@<TRIPOS>MOLECULE
tmp/3sngA02.pdb
 106 102 0 0 0
SMALL
GASTEIGER

@<TRIPOS>ATOM
      1  N        -14.7630  -24.2480   -8.1150 N.3   171  TYR171     -0.1227
      2  CA       -14.1760  -23.6930   -6.8700 C.3   171  TYR171      0.1736
      3  C        -14.5330  -24.4200   -5.5740 C.2   171  TYR171      0.2595
      4  O        -13.9700  -24.0930   -4.5090 O.2   171  TYR171     -0.2718
      5  CB       -14.6080  -22.2290   -6.6680 C.3   171  TYR171      0.0548
      6  CG       -14.3130  -21.2790   -7.8060 C.ar  171  TYR171     -0.0200
      7  CD1      -13.0620  -20.6710   -7.9280 C.ar  171  TYR171     -0.0009
      8  CD2      -15.2990  -20.9520   -8.7410 C.ar  171  TYR171     -0.0009
      9  CE1      -12.7900  -19.7810   -8.9690 C.ar  171  TYR171      0.0417
     10  CE2      -15.0380  -20.0650   -9.7890 C.ar  171  TYR171      0.0417
     11  CZ       -13.7820  -19.4850   -9.8960 C.ar  171  TYR171      0.1957
     12  OH       -13.5280  -18.6080  -10.9170 O.3   171  TYR171     -0.2866
     13  N        -15.5100  -25.3300   -5.6100 N.am  172  TYR172     -0.1976
     14  CA       -15.9830  -25.9730   -4.3640 C.3   172  TYR172      0.1639
     15  C        -16.1790  -27.4930   -4.4470 C.2   172  TYR172      0.2290
     16  O        -16.7770  -28.0820   -3.5460 O.2   172  TYR172     -0.2864
     17  CB       -17.3000  -25.3260   -3.9010 C.3   172  TYR172      0.0560
     18  CG       -17.1910  -23.8560   -3.6440 C.ar  172  TYR172     -0.0198
     19  CD1      -16.8670  -23.3760   -2.3920 C.ar  172  TYR172     -0.0009
     20  CD2      -17.4090  -22.9330   -4.6640 C.ar  172  TYR172     -0.0009
     21  CE1      -16.7540  -22.0260   -2.1630 C.ar  172  TYR172      0.0417
     22  CE2      -17.3050  -21.5730   -4.4290 C.ar  172  TYR172      0.0417
     23  CZ       -16.9830  -21.1400   -3.1910 C.ar  172  TYR172      0.1957
     24  OH       -16.8740  -19.8040   -2.9610 O.3   172  TYR172     -0.2866
     25  N        -20.1770  -23.2680   -0.9980 N.3   179  LEU179     -0.1245
     26  CA       -20.4940  -22.0860   -1.7960 C.3   179  LEU179      0.1561
     27  C        -21.4250  -21.1350   -1.0260 C.2   179  LEU179      0.2260
     28  O        -21.2190  -19.9040   -0.9900 O.2   179  LEU179     -0.2867
     29  CB       -21.1430  -22.5280   -3.1060 C.3   179  LEU179      0.0270
     30  CG       -21.7860  -21.4290   -3.9390 C.3   179  LEU179      0.0019
     31  CD1      -20.7430  -20.3480   -4.2850 C.3   179  LEU179      0.0001
     32  CD2      -22.3680  -22.0660   -5.1680 C.3   179  LEU179      0.0001
     33  N        -19.6640  -19.1440    1.6600 N.3   182  ASP182     -0.1225
     34  CA       -18.9510  -17.9860    1.1230 C.3   182  ASP182      0.1805
     35  C        -19.8940  -16.8520    0.8000 C.2   182  ASP182      0.2597
     36  O        -19.5330  -15.6850    0.9880 O.2   182  ASP182     -0.2718
     37  CB       -18.1750  -18.3370   -0.1480 C.3   182  ASP182      0.1424
     38  CG       -16.7620  -18.8320    0.1350 C.2   182  ASP182      0.3668
     39  OD1      -16.3290  -18.8260    1.3110 O.co2 182  ASP182     -0.2456
     40  OD2      -16.0990  -19.2530   -0.8370 O.co2 182  ASP182     -0.2456
     41  N        -21.0900  -17.1830    0.2870 N.am  183  ILE183     -0.1980
     42  CA       -22.1360  -16.1520    0.0540 C.3   183  ILE183      0.1595
     43  C        -22.4830  -15.5120    1.3890 C.2   183  ILE183      0.2287
     44  O        -22.4890  -14.2710    1.5260 O.2   183  ILE183     -0.2864
     45  CB       -23.3820  -16.7470   -0.6340 C.3   183  ILE183      0.0276
     46  CG1      -23.0170  -17.1870   -2.0460 C.3   183  ILE183      0.0022
     47  CG2      -24.5400  -15.7190   -0.6610 C.3   183  ILE183      0.0022
     48  CD1      -24.1130  -18.0060   -2.7730 C.3   183  ILE183      0.0001
     49  N        -19.7410  -13.3400    2.4410 N.3   186  ASN186     -0.1240
     50  CA       -19.6310  -12.0760    1.7020 C.3   186  ASN186      0.1653
     51  C        -20.6050  -10.9580    2.1880 C.2   186  ASN186      0.2266
     52  O        -20.3610   -9.7700    1.9320 O.2   186  ASN186     -0.2867
     53  CB       -19.7190  -12.3250    0.1740 C.3   186  ASN186      0.1155
     54  CG       -18.3910  -12.8580   -0.4390 C.2   186  ASN186      0.2627
     55  OD1      -17.4290  -13.1110    0.2790 O.2   186  ASN186     -0.2716
     56  ND2      -18.3590  -13.0310   -1.7810 N.am  186  ASN186     -0.0877
     57  N        -17.8690   -9.4950    4.2680 N.3   190  GLY190     -0.1210
     58  CA       -17.2690   -9.1790    2.9660 C.3   190  GLY190      0.1956
     59  C        -17.8510   -7.9780    2.2410 C.2   190  GLY190      0.2612
     60  O        -18.3690   -7.0460    2.8750 O.2   190  GLY190     -0.2717
     61  N        -17.7730   -8.0210    0.9050 N.am  191  ILE191     -0.1965
     62  CA       -18.1790   -6.9070    0.0140 C.3   191  ILE191      0.1727
     63  C        -19.6440   -6.4300    0.1160 C.2   191  ILE191      0.2616
     64  O        -19.9380   -5.2820   -0.2200 O.2   191  ILE191     -0.2715
     65  CB       -17.9120   -7.2570   -1.4760 C.3   191  ILE191      0.0290
     66  CG1      -18.8520   -8.3750   -1.9570 C.3   191  ILE191      0.0022
     67  CG2      -16.4430   -7.6480   -1.6820 C.3   191  ILE191      0.0023
     68  CD1      -18.5020   -8.9450   -3.3200 C.3   191  ILE191      0.0001
     69  N        -20.5550   -7.3000    0.5480 N.am  192  TRP192     -0.1974
     70  CA       -21.9670   -6.9080    0.7310 C.3   192  TRP192      0.1640
     71  C        -22.3090   -6.4400    2.1310 C.2   192  TRP192      0.2290
     72  O        -23.4300   -5.9900    2.3630 O.2   192  TRP192     -0.2864
     73  CB       -22.9310   -8.0560    0.3570 C.3   192  TRP192      0.0576
     74  CG       -22.7690   -8.4800   -1.0220 C.ar  192  TRP192      0.0006
     75  CD1      -22.5760   -7.6730   -2.1060 C.ar  192  TRP192      0.0946
     76  CD2      -22.7500   -9.8210   -1.5040 C.ar  192  TRP192      0.0152
     77  NE1      -22.4280   -8.4390   -3.2410 N.ar  192  TRP192     -0.2442
     78  CE2      -22.5310   -9.7610   -2.8960 C.ar  192  TRP192      0.0810
     79  CE3      -22.8830  -11.0690   -0.8960 C.ar  192  TRP192      0.0012
     80  CZ2      -22.4700  -10.8980   -3.6890 C.ar  192  TRP192      0.0191
     81  CZ3      -22.8050  -12.1900   -1.6900 C.ar  192  TRP192      0.0001
     82  CH2      -22.6090  -12.0970   -3.0660 C.ar  192  TRP192      0.0015
     83  N        -17.4630  -15.7040  -16.0140 N.3   240  ASN240     -0.1240
     84  CA       -16.6850  -14.9750  -14.9910 C.3   240  ASN240      0.1653
     85  C        -17.2700  -13.6190  -14.6580 C.2   240  ASN240      0.2266
     86  O        -17.1250  -13.1250  -13.5460 O.2   240  ASN240     -0.2867
     87  CB       -15.2180  -14.8050  -15.4120 C.3   240  ASN240      0.1155
     88  CG       -14.4190  -16.0960  -15.2670 C.2   240  ASN240      0.2627
     89  OD1      -14.3240  -16.6680  -14.1770 O.2   240  ASN240     -0.2716
     90  ND2      -13.8520  -16.5640  -16.3710 N.am  240  ASN240     -0.0877
     91  N        -21.1510  -14.4840  -12.8540 N.3   243  LEU243     -0.1245
     92  CA       -21.1150  -15.1850  -11.5570 C.3   243  LEU243      0.1561
     93  C        -21.3860  -14.2790  -10.3560 C.2   243  LEU243      0.2260
     94  O        -22.1960  -14.6260   -9.5050 O.2   243  LEU243     -0.2867
     95  CB       -19.8020  -15.9940  -11.3550 C.3   243  LEU243      0.0270
     96  CG       -19.5240  -16.5700   -9.9350 C.3   243  LEU243      0.0019
     97  CD1      -20.6400  -17.5060   -9.4330 C.3   243  LEU243      0.0001
     98  CD2      -18.1540  -17.3160   -9.8230 C.3   243  LEU243      0.0001
     99  N        -24.5330  -14.6690   -7.6900 N.3   247  MET247     -0.1245
    100  CA       -24.2960  -14.8020   -6.2570 C.3   247  MET247      0.1570
    101  C        -25.0190  -13.7530   -5.4140 C.2   247  MET247      0.2261
    102  O        -25.5140  -14.0370   -4.3190 O.2   247  MET247     -0.2867
    103  CB       -22.7950  -14.7030   -5.9420 C.3   247  MET247      0.0387
    104  CG       -21.9240  -15.8030   -6.5220 C.3   247  MET247      0.0595
    105  SD       -22.3230  -17.4360   -5.8700 S.3   247  MET247     -0.1393
    106  CE       -23.3380  -18.1240   -7.1450 C.3   247  MET247      0.0692
@<TRIPOS>BOND
     1    90    88   am
     2    83    84    1
     3    87    88    1
     4    87    84    1
     5    88    89    2
     6    84    85    1
     7    85    86    2
     8    91    92    1
     9    92    95    1
    10    92    93    1
    11    95    96    1
    12    12    11    1
    13    93    94    2
    14    96    98    1
    15    96    97    1
    16    11    10   ar
    17    11     9   ar
    18    10     8   ar
    19     9     7   ar
    20     8     6   ar
    21     1     2    1
    22     7     6   ar
    23     6     5    1
    24    99   100    1
    25   106   105    1
    26     2     5    1
    27     2     3    1
    28   104   103    1
    29   104   105    1
    30   100   103    1
    31   100   101    1
    32    13     3   am
    33    13    14    1
    34     3     4    2
    35   101   102    2
    36    32    30    1
    37    20    22   ar
    38    20    18   ar
    39    15    14    1
    40    15    16    2
    41    22    23   ar
    42    14    17    1
    43    31    30    1
    44    30    29    1
    45    17    18    1
    46    80    82   ar
    47    80    78   ar
    48    18    19   ar
    49    68    66    1
    50    77    78   ar
    51    77    75   ar
    52    23    24    1
    53    23    21   ar
    54    29    26    1
    55    82    81   ar
    56    78    76   ar
    57    48    46    1
    58    19    21   ar
    59    75    74   ar
    60    46    45    1
    61    66    65    1
    62    26    27    1
    63    26    25    1
    64    56    54   am
    65    81    79   ar
    66    67    65    1
    67    76    74   ar
    68    76    79   ar
    69    65    62    1
    70    27    28    2
    71    74    73    1
    72    40    38   ar
    73    47    45    1
    74    45    42    1
    75    54    53    1
    76    54    55    2
    77    64    63    2
    78    37    38    1
    79    37    34    1
    80    62    63    1
    81    62    61    1
    82    42    41    1
    83    42    43    1
    84    63    69   am
    85    38    39   ar
    86    53    50    1
    87    41    35   am
    88    73    70    1
    89    69    70    1
    90    70    71    1
    91    35    36    2
    92    35    34    1
    93    61    59   am
    94    34    33    1
    95    43    44    2
    96    50    51    1
    97    50    49    1
    98    52    51    2
    99    71    72    2
   100    59    60    2
   101    59    58    1
   102    58    57    1
