@<TRIPOS>MOLECULE
tmp/3sniA00.pdb
 153 147 0 0 0
SMALL
GASTEIGER

@<TRIPOS>ATOM
      1  N         10.7820  -14.7400  -31.1420 N.3    77  TYR77      -0.1227
      2  CA        11.9950  -14.1370  -30.5740 C.3    77  TYR77       0.1736
      3  C         11.8370  -12.7190  -30.0150 C.2    77  TYR77       0.2595
      4  O         12.1510  -12.4810  -28.8530 O.2    77  TYR77      -0.2718
      5  CB        13.1660  -14.1810  -31.5670 C.3    77  TYR77       0.0548
      6  CG        14.4140  -13.4780  -31.0470 C.ar   77  TYR77      -0.0200
      7  CD1       15.0850  -13.9540  -29.9240 C.ar   77  TYR77      -0.0009
      8  CD2       14.9130  -12.3340  -31.6760 C.ar   77  TYR77      -0.0009
      9  CE1       16.2270  -13.3140  -29.4370 C.ar   77  TYR77       0.0417
     10  CE2       16.0590  -11.6850  -31.1960 C.ar   77  TYR77       0.0417
     11  CZ        16.7040  -12.1810  -30.0740 C.ar   77  TYR77       0.1957
     12  OH        17.8340  -11.5620  -29.5840 O.3    77  TYR77      -0.2866
     13  N         11.3900  -11.7870  -30.8500 N.am   78  HIS78      -0.1975
     14  CA        11.2600  -10.3830  -30.4550 C.3    78  HIS78       0.1656
     15  C         10.0100  -10.1930  -29.6000 C.2    78  HIS78       0.2291
     16  O          9.0250   -9.5760  -30.0220 O.2    78  HIS78      -0.2864
     17  CB        11.2570   -9.4740  -31.6880 C.3    78  HIS78       0.0771
     18  CG        12.5940   -9.3610  -32.3550 C.ar   78  HIS78       0.0820
     19  ND1       12.8700   -9.9410  -33.5730 N.ar   78  HIS78      -0.2267
     20  CD2       13.7340   -8.7410  -31.9680 C.ar   78  HIS78       0.1154
     21  CE1       14.1220   -9.6870  -33.9090 C.ar   78  HIS78       0.1986
     22  NE2       14.6700   -8.9610  -32.9510 N.ar   78  HIS78      -0.2212
     23  N         19.3930    0.4820  -31.4430 N.3   186  THR186     -0.1218
     24  CA        19.1700   -0.9720  -31.5950 C.3   186  THR186      0.1862
     25  C         18.8910   -1.4110  -33.0410 C.2   186  THR186      0.2287
     26  O         18.7540   -2.6100  -33.3160 O.2   186  THR186     -0.2866
     27  CB        18.0410   -1.5230  -30.6860 C.3   186  THR186      0.1770
     28  OG1       16.7740   -0.9970  -31.0980 O.3   186  THR186     -0.2211
     29  CG2       18.3030   -1.2160  -29.2120 C.3   186  THR186      0.0375
     30  N         20.4540   -2.3930  -35.9770 N.3   188  LEU188     -0.1245
     31  CA        21.7850   -2.9370  -36.2370 C.3   188  LEU188      0.1561
     32  C         22.4170   -2.3140  -37.4740 C.2   188  LEU188      0.2260
     33  O         23.6390   -2.2690  -37.5890 O.2   188  LEU188     -0.2867
     34  CB        21.7470   -4.4690  -36.3580 C.3   188  LEU188      0.0270
     35  CG        23.1030   -5.1820  -36.2400 C.3   188  LEU188      0.0019
     36  CD1       23.6130   -5.1700  -34.7950 C.3   188  LEU188      0.0001
     37  CD2       23.0270   -6.6010  -36.7710 C.3   188  LEU188      0.0001
     38  N         21.1930   -5.8970  -26.6600 N.3   227  ASP227     -0.1225
     39  CA        20.3060   -6.4720  -27.6720 C.3   227  ASP227      0.1805
     40  C         20.8480   -7.8180  -28.1620 C.2   227  ASP227      0.2597
     41  O         20.0690   -8.7060  -28.5030 O.2   227  ASP227     -0.2718
     42  CB        20.1510   -5.4950  -28.8540 C.3   227  ASP227      0.1424
     43  CG        18.8640   -5.7150  -29.6730 C.2   227  ASP227      0.3668
     44  OD1       17.8710   -6.2890  -29.1540 O.co2 227  ASP227     -0.2456
     45  OD2       18.8410   -5.2760  -30.8530 O.co2 227  ASP227     -0.2456
     46  N         22.1760   -7.9570  -28.1880 N.am  228  LEU228     -0.1979
     47  CA        22.8430   -9.2050  -28.5990 C.3   228  LEU228      0.1596
     48  C         23.1800  -10.1980  -27.4740 C.2   228  LEU228      0.2287
     49  O         23.7680  -11.2520  -27.7500 O.2   228  LEU228     -0.2864
     50  CB        24.1370   -8.9080  -29.3780 C.3   228  LEU228      0.0297
     51  CG        24.1650   -7.9910  -30.6060 C.3   228  LEU228      0.0022
     52  CD1       25.5340   -8.0210  -31.2540 C.3   228  LEU228      0.0001
     53  CD2       23.0770   -8.3150  -31.6240 C.3   228  LEU228      0.0001
     54  N         22.2530  -12.6560  -25.7990 N.3   230  SER230     -0.1202
     55  CA        22.0410  -14.1020  -25.8510 C.3   230  SER230      0.2020
     56  C         23.2470  -14.8520  -26.4270 C.2   230  SER230      0.2618
     57  O         23.3750  -16.0610  -26.2330 O.2   230  SER230     -0.2717
     58  CB        20.7860  -14.4370  -26.6420 C.3   230  SER230      0.2103
     59  OG        21.0980  -14.6190  -28.0070 O.3   230  SER230     -0.2182
     60  N         24.1140  -14.1380  -27.1390 N.am  231  VAL231     -0.1979
     61  CA        25.4050  -14.6830  -27.5680 C.3   231  VAL231      0.1595
     62  C         26.4060  -14.7590  -26.4150 C.2   231  VAL231      0.2287
     63  O         27.5360  -15.2300  -26.5950 O.2   231  VAL231     -0.2864
     64  CB        26.0260  -13.8960  -28.7600 C.3   231  VAL231      0.0276
     65  CG1       25.0790  -13.8800  -29.9700 C.3   231  VAL231      0.0022
     66  CG2       26.4230  -12.4820  -28.3490 C.3   231  VAL231      0.0022
     67  N         22.0340  -20.1120  -25.4250 N.3   238  THR238     -0.1218
     68  CA        22.4530  -19.4910  -26.6830 C.3   238  THR238      0.1862
     69  C         21.9180  -20.2700  -27.8950 C.2   238  THR238      0.2287
     70  O         21.3050  -19.6870  -28.7960 O.2   238  THR238     -0.2866
     71  CB        24.0040  -19.3810  -26.7410 C.3   238  THR238      0.1770
     72  OG1       24.4690  -18.5340  -25.6820 O.3   238  THR238     -0.2211
     73  CG2       24.4910  -18.8230  -28.0860 C.3   238  THR238      0.0375
     74  N         18.8240  -19.0550  -30.6670 N.3   242  ALA242     -0.1245
     75  CA        19.0670  -19.0180  -32.1140 C.3   242  ALA242      0.1562
     76  C         17.9210  -19.6660  -32.8990 C.2   242  ALA242      0.2260
     77  O         17.5480  -19.1860  -33.9690 O.2   242  ALA242     -0.2867
     78  CB        20.3980  -19.6900  -32.4500 C.3   242  ALA242      0.0290
     79  N         15.1830  -17.1430  -33.0550 N.3   245  ILE245     -0.1231
     80  CA        15.6150  -16.1160  -34.0120 C.3   245  ILE245      0.1692
     81  C         15.3420  -16.5200  -35.4650 C.2   245  ILE245      0.2592
     82  O         14.7300  -15.7590  -36.2210 O.2   245  ILE245     -0.2718
     83  CB        17.1250  -15.7540  -33.8110 C.3   245  ILE245      0.0266
     84  CG1       17.3170  -14.9380  -32.5320 C.3   245  ILE245      0.0019
     85  CG2       17.6810  -14.9780  -35.0030 C.3   245  ILE245      0.0020
     86  CD1       18.7240  -14.9620  -31.9790 C.3   245  ILE245      0.0001
     87  N         15.7910  -17.7130  -35.8520 N.am  246  TYR246     -0.1976
     88  CA        15.5950  -18.1890  -37.2260 C.3   246  TYR246      0.1639
     89  C         14.1380  -18.5200  -37.5410 C.2   246  TYR246      0.2290
     90  O         13.6930  -18.3240  -38.6700 O.2   246  TYR246     -0.2864
     91  CB        16.5420  -19.3430  -37.5650 C.3   246  TYR246      0.0560
     92  CG        17.9510  -18.8730  -37.8440 C.ar  246  TYR246     -0.0198
     93  CD1       18.8990  -18.8090  -36.8220 C.ar  246  TYR246     -0.0009
     94  CD2       18.3360  -18.4740  -39.1250 C.ar  246  TYR246     -0.0009
     95  CE1       20.1950  -18.3710  -37.0660 C.ar  246  TYR246      0.0417
     96  CE2       19.6390  -18.0330  -39.3820 C.ar  246  TYR246      0.0417
     97  CZ        20.5580  -17.9860  -38.3460 C.ar  246  TYR246      0.1957
     98  OH        21.8430  -17.5560  -38.5790 O.3   246  TYR246     -0.2866
     99  N         13.0600  -15.4370  -38.7980 N.3   249  PHE249     -0.1241
    100  CA        13.6830  -15.2190  -40.1060 C.3   249  PHE249      0.1605
    101  C         13.0010  -16.0530  -41.1910 C.2   249  PHE249      0.2264
    102  O         12.6600  -15.5390  -42.2600 O.2   249  PHE249     -0.2867
    103  CB        15.1810  -15.5580  -40.0790 C.3   249  PHE249      0.0534
    104  CG        16.0380  -14.5640  -39.3310 C.ar  249  PHE249     -0.0203
    105  CD1       15.5500  -13.3060  -38.9750 C.ar  249  PHE249     -0.0042
    106  CD2       17.3510  -14.8850  -39.0090 C.ar  249  PHE249     -0.0042
    107  CE1       16.3510  -12.3950  -38.2890 C.ar  249  PHE249     -0.0003
    108  CE2       18.1640  -13.9780  -38.3330 C.ar  249  PHE249     -0.0003
    109  CZ        17.6590  -12.7290  -37.9720 C.ar  249  PHE249     -0.0000
    110  N         19.5470  -16.8570  -45.1460 N.3   266  MET266     -0.1245
    111  CA        19.2770  -16.6260  -43.7240 C.3   266  MET266      0.1570
    112  C         17.7980  -16.7960  -43.3740 C.2   266  MET266      0.2261
    113  O         17.4550  -17.2370  -42.2790 O.2   266  MET266     -0.2867
    114  CB        19.7300  -15.2160  -43.3570 C.3   266  MET266      0.0387
    115  CG        19.8580  -14.9330  -41.8750 C.3   266  MET266      0.0595
    116  SD        20.2190  -13.1890  -41.6090 S.3   266  MET266     -0.1393
    117  CE        18.5680  -12.5090  -41.6450 C.3   266  MET266      0.0692
    118  N         26.4360  -19.0430  -40.9820 N.3   278  GLY278     -0.1210
    119  CA        25.9000  -17.6970  -40.8140 C.3   278  GLY278      0.1956
    120  C         26.0640  -17.1600  -39.3990 C.2   278  GLY278      0.2611
    121  O         26.1920  -15.9480  -39.1920 O.2   278  GLY278     -0.2717
    122  N         26.0610  -18.0650  -38.4230 N.am  279  GLN279     -0.1979
    123  CA        26.2810  -17.6980  -37.0300 C.3   279  GLN279      0.1601
    124  C         27.7460  -17.3560  -36.7800 C.2   279  GLN279      0.2287
    125  O         28.0460  -16.3920  -36.0790 O.2   279  GLN279     -0.2864
    126  CB        25.7950  -18.8000  -36.0810 C.3   279  GLN279      0.0394
    127  CG        24.2860  -18.8090  -35.8590 C.3   279  GLN279      0.0908
    128  CD        23.7860  -17.5870  -35.0990 C.2   279  GLN279      0.2608
    129  OE1       23.9710  -17.4740  -33.8900 O.2   279  GLN279     -0.2717
    130  NE2       23.1300  -16.6760  -35.8100 N.am  279  GLN279     -0.0878
    131  N         28.2730  -14.0100  -38.2200 N.3   282  PHE282     -0.1227
    132  CA        27.6240  -13.0000  -37.3830 C.3   282  PHE282      0.1736
    133  C         28.4600  -12.6670  -36.1490 C.2   282  PHE282      0.2595
    134  O         28.5300  -11.5140  -35.7440 O.2   282  PHE282     -0.2718
    135  CB        26.2200  -13.4430  -36.9660 C.3   282  PHE282      0.0547
    136  CG        25.4690  -12.4110  -36.1560 C.ar  282  PHE282     -0.0202
    137  CD1       24.7890  -11.3700  -36.7860 C.ar  282  PHE282     -0.0042
    138  CD2       25.4440  -12.4810  -34.7640 C.ar  282  PHE282     -0.0042
    139  CE1       24.0950  -10.4170  -36.0460 C.ar  282  PHE282     -0.0003
    140  CE2       24.7560  -11.5340  -34.0160 C.ar  282  PHE282     -0.0003
    141  CZ        24.0750  -10.4990  -34.6620 C.ar  282  PHE282     -0.0000
    142  N         29.0800  -13.6760  -35.5470 N.am  283  TYR283     -0.1976
    143  CA        29.9130  -13.4580  -34.3720 C.3   283  TYR283      0.1639
    144  C         31.1610  -12.6850  -34.7680 C.2   283  TYR283      0.2290
    145  O         31.4890  -11.6670  -34.1590 O.2   283  TYR283     -0.2864
    146  CB        30.2840  -14.7870  -33.7110 C.3   283  TYR283      0.0560
    147  CG        29.2290  -15.3440  -32.7750 C.ar  283  TYR283     -0.0198
    148  CD1       27.9330  -15.6140  -33.2260 C.ar  283  TYR283     -0.0009
    149  CD2       29.5290  -15.6250  -31.4450 C.ar  283  TYR283     -0.0009
    150  CE1       26.9700  -16.1350  -32.3800 C.ar  283  TYR283      0.0417
    151  CE2       28.5680  -16.1520  -30.5880 C.ar  283  TYR283      0.0417
    152  CZ        27.2890  -16.4000  -31.0650 C.ar  283  TYR283      0.1957
    153  OH        26.3230  -16.9150  -30.2300 O.3   283  TYR283     -0.2866
@<TRIPOS>BOND
     1   110   111    1
     2   111   112    1
     3   111   114    1
     4   112   113    2
     5   114   115    1
     6   102   101    2
     7   115   116    1
     8   117   116    1
     9   101   100    1
    10   118   119    1
    11   119   120    1
    12   100   103    1
    13   100    99    1
    14   103   104    1
    15   120   121    2
    16   120   122   am
    17    96    94   ar
    18    96    97   ar
    19   104   106   ar
    20   104   105   ar
    21    94    92   ar
    22   106   108   ar
    23   105   107   ar
    24    90    89    2
    25    98    97    1
    26   122   123    1
    27    97    95   ar
    28   108   109   ar
    29   107   109   ar
    30   131   132    1
    31    92    91    1
    32    92    93   ar
    33    33    32    2
    34    91    88    1
    35    89    88    1
    36    32    31    1
    37   132   135    1
    38   132   133    1
    39    88    87    1
    40    95    93   ar
    41   123   124    1
    42   123   126    1
    43   135   136    1
    44   137   136   ar
    45   137   139   ar
    46   124   125    2
    47    37    35    1
    48    34    35    1
    49    34    31    1
    50    35    36    1
    51    31    30    1
    52    82    81    2
    53   136   138   ar
    54   133   134    2
    55   133   142   am
    56   126   127    1
    57   139   141   ar
    58   127   128    1
    59    87    81   am
    60   130   128   am
    61   142   143    1
    62    81    80    1
    63   128   129    2
    64    85    83    1
    65   144   143    1
    66   144   145    2
    67   138   140   ar
    68   141   140   ar
    69   143   146    1
    70    80    83    1
    71    80    79    1
    72    77    76    2
    73    21    19   ar
    74    21    22   ar
    75    83    84    1
    76   146   147    1
    77    19    18   ar
    78    26    25    2
    79   148   147   ar
    80   148   150   ar
    81    25    24    1
    82    22    20   ar
    83    76    75    1
    84   147   149   ar
    85    84    86    1
    86    78    75    1
    87   150   152   ar
    88    18    20   ar
    89    18    17    1
    90    75    74    1
    91    17    14    1
    92     8    10   ar
    93     8     6   ar
    94    53    51    1
    95    24    23    1
    96    24    27    1
    97     5     6    1
    98     5     2    1
    99   149   151   ar
   100    52    51    1
   101    10    11   ar
   102     1     2    1
   103    28    27    1
   104   152   151   ar
   105   152   153    1
   106     6     7   ar
   107    45    43   ar
   108    13    14    1
   109    13     3   am
   110    27    29    1
   111    51    50    1
   112     2     3    1
   113    14    15    1
   114    11    12    1
   115    11     9   ar
   116    16    15    2
   117     3     4    2
   118    65    64    1
   119     7     9   ar
   120    43    44   ar
   121    43    42    1
   122    50    47    1
   123    42    39    1
   124    70    69    2
   125    64    66    1
   126    64    61    1
   127    47    46    1
   128    47    48    1
   129    41    40    2
   130    46    40   am
   131    40    39    1
   132    73    71    1
   133    59    58    1
   134    69    68    1
   135    49    48    2
   136    39    38    1
   137    61    60    1
   138    61    62    1
   139    60    56   am
   140    71    68    1
   141    71    72    1
   142    68    67    1
   143    58    55    1
   144    63    62    2
   145    56    57    2
   146    56    55    1
   147    55    54    1
