@<TRIPOS>MOLECULE
tmp/3snlB00.pdb
 142 136 0 0 0
SMALL
GASTEIGER

@<TRIPOS>ATOM
      1  N         18.1590  -47.3130  -15.7820 N.3    78  TYR78      -0.1227
      2  CA        17.2030  -46.2720  -15.3910 C.3    78  TYR78       0.1736
      3  C         15.7600  -46.7680  -15.3660 C.2    78  TYR78       0.2595
      4  O         15.1600  -46.8520  -14.2900 O.2    78  TYR78      -0.2718
      5  CB        17.3250  -45.0390  -16.3050 C.3    78  TYR78       0.0548
      6  CG        16.2640  -43.9720  -16.0810 C.ar   78  TYR78      -0.0200
      7  CD1       16.3430  -43.1040  -14.9890 C.ar   78  TYR78      -0.0009
      8  CD2       15.1830  -43.8280  -16.9640 C.ar   78  TYR78      -0.0009
      9  CE1       15.3660  -42.1070  -14.7710 C.ar   78  TYR78       0.0417
     10  CE2       14.2030  -42.8430  -16.7620 C.ar   78  TYR78       0.0417
     11  CZ        14.3000  -41.9800  -15.6600 C.ar   78  TYR78       0.1957
     12  OH        13.3480  -40.9930  -15.4350 O.3    78  TYR78      -0.2866
     13  N         15.2190  -47.0880  -16.5490 N.am   79  HIS79      -0.1975
     14  CA        13.8030  -47.4470  -16.7380 C.3    79  HIS79       0.1656
     15  C         13.3510  -48.6790  -15.9610 C.2    79  HIS79       0.2291
     16  O         12.3920  -49.3620  -16.3510 O.2    79  HIS79      -0.2864
     17  CB        13.5100  -47.6590  -18.2240 C.3    79  HIS79       0.0771
     18  CG        13.2510  -46.3910  -18.9780 C.ar   79  HIS79       0.0820
     19  ND1       14.2490  -45.6820  -19.6070 N.ar   79  HIS79      -0.2267
     20  CD2       12.1030  -45.7110  -19.2100 C.ar   79  HIS79       0.1154
     21  CE1       13.7260  -44.6210  -20.1970 C.ar   79  HIS79       0.1986
     22  NE2       12.4250  -44.6150  -19.9710 N.ar   79  HIS79      -0.2212
     23  N          2.4650  -40.6680  -20.6300 N.3   174  THR174     -0.1218
     24  CA         3.8790  -40.7630  -20.2240 C.3   174  THR174      0.1862
     25  C          4.8060  -40.8430  -21.4320 C.2   174  THR174      0.2287
     26  O          6.0060  -41.1180  -21.2910 O.2   174  THR174     -0.2866
     27  CB         4.1620  -41.9630  -19.3030 C.3   174  THR174      0.1770
     28  OG1        4.3850  -43.1320  -20.0930 O.3   174  THR174     -0.2211
     29  CG2        3.0180  -42.1930  -18.3550 C.3   174  THR174      0.0375
     30  N          6.6770  -38.8720  -23.9420 N.3   176  LEU176     -0.1245
     31  CA         7.1780  -37.5000  -23.9480 C.3   176  LEU176      0.1561
     32  C          6.7080  -36.6830  -25.1490 C.2   176  LEU176      0.2260
     33  O          6.2970  -35.5350  -24.9850 O.2   176  LEU176     -0.2867
     34  CB         8.7070  -37.4540  -23.8140 C.3   176  LEU176      0.0270
     35  CG         9.3140  -36.0750  -23.4940 C.3   176  LEU176      0.0019
     36  CD1        8.8280  -35.4960  -22.1520 C.3   176  LEU176      0.0001
     37  CD2       10.8370  -36.1260  -23.5290 C.3   176  LEU176      0.0001
     38  N          6.9510  -38.4080  -14.0660 N.3   215  ASP215     -0.1225
     39  CA         7.9190  -39.1640  -14.8390 C.3   215  ASP215      0.1805
     40  C          9.3370  -38.6030  -14.6440 C.2   215  ASP215      0.2597
     41  O         10.3020  -39.3600  -14.4980 O.2   215  ASP215     -0.2718
     42  CB         7.5010  -39.1390  -16.3040 C.3   215  ASP215      0.1424
     43  CG         8.1590  -40.2320  -17.1300 C.2   215  ASP215      0.3668
     44  OD1        8.8100  -41.1340  -16.5500 O.co2 215  ASP215     -0.2456
     45  OD2        8.0160  -40.1850  -18.3790 O.co2 215  ASP215     -0.2456
     46  N          9.4360  -37.2770  -14.6100 N.am  216  LEU216     -0.1979
     47  CA        10.7190  -36.6040  -14.6480 C.3   216  LEU216      0.1596
     48  C         11.1300  -36.1290  -13.2700 C.2   216  LEU216      0.2287
     49  O         12.1440  -35.4450  -13.1290 O.2   216  LEU216     -0.2864
     50  CB        10.6620  -35.3840  -15.5650 C.3   216  LEU216      0.0297
     51  CG        10.0380  -35.3850  -16.9630 C.3   216  LEU216      0.0022
     52  CD1        9.8880  -33.9370  -17.4520 C.3   216  LEU216      0.0001
     53  CD2       10.8230  -36.2120  -18.0000 C.3   216  LEU216      0.0001
     54  N         12.8490  -36.8810  -11.0730 N.3   218  SER218     -0.1202
     55  CA        14.2480  -37.0560  -10.7100 C.3   218  SER218      0.2020
     56  C         14.9310  -35.7280  -10.7110 C.2   218  SER218      0.2618
     57  O         15.9340  -35.5260  -10.0060 O.2   218  SER218     -0.2717
     58  CB        14.9680  -37.9120  -11.7330 C.3   218  SER218      0.2103
     59  OG        14.5020  -39.2340  -11.6690 O.3   218  SER218     -0.2182
     60  N         14.4120  -34.8240  -11.5330 N.am  219  VAL219     -0.1979
     61  CA        14.9810  -33.4930  -11.6210 C.3   219  VAL219      0.1595
     62  C         14.5250  -32.6080  -10.4450 C.2   219  VAL219      0.2287
     63  O         14.9460  -31.4670  -10.3410 O.2   219  VAL219     -0.2864
     64  CB        14.7040  -32.8550  -12.9950 C.3   219  VAL219      0.0276
     65  CG1       15.2760  -33.7350  -14.0980 C.3   219  VAL219      0.0022
     66  CG2       13.2160  -32.6220  -13.2070 C.3   219  VAL219      0.0022
     67  N         21.2420  -38.8620  -12.9210 N.3   230  ALA230     -0.1245
     68  CA        21.6680  -38.3860  -14.2460 C.3   230  ALA230      0.1562
     69  C         22.7100  -39.3180  -14.8680 C.2   230  ALA230      0.2260
     70  O         22.9970  -39.2430  -16.0640 O.2   230  ALA230     -0.2867
     71  CB        22.2060  -36.9680  -14.1600 C.3   230  ALA230      0.0290
     72  N         20.1980  -42.4890  -16.2190 N.3   233  ILE233     -0.1231
     73  CA        19.5780  -42.1960  -17.4970 C.3   233  ILE233      0.1692
     74  C         20.6070  -42.3870  -18.5940 C.2   233  ILE233      0.2592
     75  O         20.4440  -43.2280  -19.4740 O.2   233  ILE233     -0.2718
     76  CB        19.0080  -40.7710  -17.5200 C.3   233  ILE233      0.0266
     77  CG1       17.8680  -40.6890  -16.5140 C.3   233  ILE233      0.0019
     78  CG2       18.4820  -40.4210  -18.9060 C.3   233  ILE233      0.0020
     79  CD1       17.7620  -39.3970  -15.7640 C.3   233  ILE233      0.0001
     80  N         21.6890  -41.6300  -18.4970 N.am  234  TYR234     -0.1976
     81  CA        22.7030  -41.6140  -19.5310 C.3   234  TYR234      0.1639
     82  C         23.3700  -42.9770  -19.7800 C.2   234  TYR234      0.2290
     83  O         23.6910  -43.3080  -20.9290 O.2   234  TYR234     -0.2864
     84  CB        23.7140  -40.4890  -19.2600 C.3   234  TYR234      0.0560
     85  CG        23.3520  -39.1660  -19.9410 C.ar  234  TYR234     -0.0198
     86  CD1       22.6260  -38.1720  -19.2730 C.ar  234  TYR234     -0.0009
     87  CD2       23.7360  -38.9180  -21.2650 C.ar  234  TYR234     -0.0009
     88  CE1       22.2990  -36.9520  -19.9190 C.ar  234  TYR234      0.0417
     89  CE2       23.4210  -37.7120  -21.9110 C.ar  234  TYR234      0.0417
     90  CZ        22.7050  -36.7350  -21.2400 C.ar  234  TYR234      0.1957
     91  OH        22.4110  -35.5570  -21.9090 O.3   234  TYR234     -0.2866
     92  N         21.3000  -44.7220  -22.0240 N.3   237  PHE237     -0.1241
     93  CA        21.3810  -44.0630  -23.3350 C.3   237  PHE237      0.1605
     94  C         22.5930  -44.6010  -24.0760 C.2   237  PHE237      0.2264
     95  O         22.5210  -44.9790  -25.2540 O.2   237  PHE237     -0.2867
     96  CB        21.5840  -42.5460  -23.1860 C.3   237  PHE237      0.0534
     97  CG        20.3330  -41.7580  -22.9020 C.ar  237  PHE237     -0.0203
     98  CD1       19.0710  -42.2630  -23.1980 C.ar  237  PHE237     -0.0042
     99  CD2       20.4330  -40.4670  -22.3800 C.ar  237  PHE237     -0.0042
    100  CE1       17.9260  -41.5000  -22.9420 C.ar  237  PHE237     -0.0003
    101  CE2       19.3040  -39.6940  -22.1290 C.ar  237  PHE237     -0.0003
    102  CZ        18.0480  -40.2120  -22.4080 C.ar  237  PHE237     -0.0000
    103  N         24.1160  -37.7880  -27.6760 N.3   254  MET254     -0.1230
    104  CA        23.6050  -38.0350  -26.3290 C.3   254  MET254      0.1702
    105  C         23.8810  -39.4940  -25.9230 C.2   254  MET254      0.2592
    106  O         24.1440  -39.7950  -24.7540 O.2   254  MET254     -0.2718
    107  CB        22.0970  -37.7320  -26.2900 C.3   254  MET254      0.0401
    108  CG        21.3990  -38.0090  -24.9660 C.3   254  MET254      0.0596
    109  SD        19.6190  -37.7200  -25.0190 S.3   254  MET254     -0.1393
    110  CE        19.0090  -39.1010  -25.9820 C.3   254  MET254      0.0692
    111  N         23.8320  -40.3840  -26.9120 N.am  255  MET255     -0.1979
    112  CA        23.9490  -41.8220  -26.6930 C.3   255  MET255      0.1605
    113  C         25.3340  -42.3650  -27.0620 C.2   255  MET255      0.2287
    114  O         25.4730  -43.5190  -27.4660 O.2   255  MET255     -0.2864
    115  CB        22.8520  -42.5440  -27.4690 C.3   255  MET255      0.0413
    116  CG        21.4610  -42.1390  -27.0470 C.3   255  MET255      0.0598
    117  SD        20.2180  -43.0400  -27.9720 S.3   255  MET255     -0.1393
    118  CE        18.7230  -42.6690  -27.0460 C.3   255  MET255      0.0692
    119  N         23.7900  -30.9880  -21.6020 N.3   266  GLY266     -0.1210
    120  CA        22.6140  -31.7490  -22.0030 C.3   266  GLY266      0.1956
    121  C         21.5540  -31.6470  -20.9430 C.2   266  GLY266      0.2611
    122  O         20.3860  -31.4120  -21.2310 O.2   266  GLY266     -0.2717
    123  N         21.9750  -31.8060  -19.7000 N.am  267  GLN267     -0.1979
    124  CA        21.0710  -31.6190  -18.5970 C.3   267  GLN267      0.1601
    125  C         20.4630  -30.2210  -18.6290 C.2   267  GLN267      0.2287
    126  O         19.2470  -30.0810  -18.4960 O.2   267  GLN267     -0.2864
    127  CB        21.7720  -31.9340  -17.2790 C.3   267  GLN267      0.0394
    128  CG        21.8130  -33.4320  -16.9980 C.3   267  GLN267      0.0908
    129  CD        20.4120  -34.0410  -16.8700 C.2   267  GLN267      0.2608
    130  OE1       19.7440  -33.8820  -15.8450 O.2   267  GLN267     -0.2717
    131  NE2       19.9660  -34.7360  -17.9130 N.am  267  GLN267     -0.0878
    132  N         17.7910  -29.6210  -21.2980 N.3   270  PHE270     -0.1241
    133  CA        16.5930  -30.3920  -21.0100 C.3   270  PHE270      0.1605
    134  C         15.6790  -29.7490  -19.9630 C.2   270  PHE270      0.2264
    135  O         14.4550  -29.7840  -20.0940 O.2   270  PHE270     -0.2867
    136  CB        16.9730  -31.7960  -20.5540 C.3   270  PHE270      0.0534
    137  CG        15.7950  -32.6580  -20.3020 C.ar  270  PHE270     -0.0203
    138  CD1       15.0660  -33.1810  -21.3660 C.ar  270  PHE270     -0.0042
    139  CD2       15.3670  -32.9010  -19.0190 C.ar  270  PHE270     -0.0042
    140  CE1       13.9470  -33.9540  -21.1330 C.ar  270  PHE270     -0.0003
    141  CE2       14.2660  -33.6730  -18.7920 C.ar  270  PHE270     -0.0003
    142  CZ        13.5550  -34.1880  -19.8370 C.ar  270  PHE270     -0.0000
@<TRIPOS>BOND
     1   117   116    1
     2   117   118    1
     3   103   104    1
     4   115   116    1
     5   115   112    1
     6   114   113    2
     7   113   112    1
     8   111   112    1
     9   111   105   am
    10   104   107    1
    11   104   105    1
    12   107   108    1
    13   110   109    1
    14   105   106    2
    15    95    94    2
    16    32    33    2
    17    32    31    1
    18   109   108    1
    19    94    93    1
    20    31    30    1
    21    31    34    1
    22    34    35    1
    23    37    35    1
    24    35    36    1
    25    93    96    1
    26    93    92    1
    27    98   100   ar
    28    98    97   ar
    29    96    97    1
    30   100   102   ar
    31    97    99   ar
    32   102   101   ar
    33    99   101   ar
    34   120   119    1
    35   120   121    1
    36    89    87   ar
    37    89    90   ar
    38    91    90    1
    39    25    26    2
    40    25    24    1
    41   138   140   ar
    42   138   137   ar
    43   132   133    1
    44    87    85   ar
    45    90    88   ar
    46   122   121    2
    47   140   142   ar
    48   133   136    1
    49   133   134    1
    50   121   123   am
    51    83    82    2
    52    23    24    1
    53   136   137    1
    54   137   139   ar
    55    24    27    1
    56    21    22   ar
    57    21    19   ar
    58   135   134    2
    59    28    27    1
    60    22    20   ar
    61    85    86   ar
    62    85    84    1
    63    88    86   ar
    64   142   141   ar
    65    82    81    1
    66   123   124    1
    67    19    18   ar
    68    81    84    1
    69    81    80    1
    70    75    74    2
    71    27    29    1
    72    20    18   ar
    73   139   141   ar
    74    18    17    1
    75    78    76    1
    76   125   124    1
    77   125   126    2
    78   124   127    1
    79    74    80   am
    80    74    73    1
    81    45    43   ar
    82    17    14    1
    83    53    51    1
    84   131   129   am
    85    76    73    1
    86    76    77    1
    87    73    72    1
    88    52    51    1
    89   127   128    1
    90    43    44   ar
    91    43    42    1
    92   128   129    1
    93     8    10   ar
    94     8     6   ar
    95    51    50    1
    96   129   130    2
    97    10    11   ar
    98    14    13    1
    99    14    15    1
   100    13     3   am
   101    77    79    1
   102    16    15    2
   103     5     6    1
   104     5     2    1
   105    42    39    1
   106     6     7   ar
   107    70    69    2
   108     1     2    1
   109    11    12    1
   110    11     9   ar
   111    50    47    1
   112     2     3    1
   113     3     4    2
   114     7     9   ar
   115    69    68    1
   116    39    40    1
   117    39    38    1
   118    47    46    1
   119    47    48    1
   120    40    46   am
   121    40    41    2
   122    68    71    1
   123    68    67    1
   124    65    64    1
   125    48    49    2
   126    66    64    1
   127    64    61    1
   128    58    59    1
   129    58    55    1
   130    61    60    1
   131    61    62    1
   132    60    56   am
   133    54    55    1
   134    56    55    1
   135    56    57    2
   136    62    63    2
