@<TRIPOS>MOLECULE
tmp/3snnC00.pdb
 121 115 0 0 0
SMALL
GASTEIGER

@<TRIPOS>ATOM
      1  N          1.8180   43.3530   28.8680 N.3   282  PHE282     -0.1241
      2  CA         0.6550   43.6960   28.0300 C.3   282  PHE282      0.1605
      3  C         -0.5790   42.8470   28.3420 C.2   282  PHE282      0.2264
      4  O         -1.2400   42.2990   27.4500 O.2   282  PHE282     -0.2867
      5  CB         1.0120   43.7220   26.5370 C.3   282  PHE282      0.0534
      6  CG         1.8460   44.9090   26.1570 C.ar  282  PHE282     -0.0203
      7  CD1        1.2410   46.0900   25.7330 C.ar  282  PHE282     -0.0042
      8  CD2        3.2320   44.8690   26.2760 C.ar  282  PHE282     -0.0042
      9  CE1        2.0100   47.2080   25.4100 C.ar  282  PHE282     -0.0003
     10  CE2        4.0090   45.9790   25.9560 C.ar  282  PHE282     -0.0003
     11  CZ         3.3950   47.1520   25.5210 C.ar  282  PHE282     -0.0000
     12  N         -1.9400   46.5800    7.9710 N.3   411  ASP411     -0.1225
     13  CA        -1.5010   47.4300    9.0770 C.3   411  ASP411      0.1805
     14  C         -0.1110   48.0070    8.8240 C.2   411  ASP411      0.2598
     15  O          0.8100   47.2810    8.4410 O.2   411  ASP411     -0.2718
     16  CB        -1.4950   46.6300   10.3770 C.3   411  ASP411      0.1424
     17  CG        -1.3370   47.5090   11.6020 C.2   411  ASP411      0.3668
     18  OD1       -0.2210   48.0160   11.8470 O.co2 411  ASP411     -0.2456
     19  OD2       -2.3330   47.6860   12.3350 O.co2 411  ASP411     -0.2456
     20  N          0.0390   49.3090    9.0580 N.am  412  LEU412     -0.1966
     21  CA         1.3190   49.9880    8.8570 C.3   412  LEU412      0.1728
     22  C          2.3690   49.5710    9.8810 C.2   412  LEU412      0.2617
     23  O          2.0970   49.5120   11.0830 O.2   412  LEU412     -0.2715
     24  CB         1.1360   51.5120    8.8420 C.3   412  LEU412      0.0311
     25  CG         0.5440   52.0480    7.5340 C.3   412  LEU412      0.0022
     26  CD1       -0.3060   53.2810    7.7750 C.3   412  LEU412      0.0001
     27  CD2        1.6540   52.3280    6.5060 C.3   412  LEU412      0.0001
     28  N          3.5650   49.2640    9.3840 N.am  413  THR413     -0.1937
     29  CA         4.6820   48.8580   10.2250 C.3   413  THR413      0.2028
     30  C          5.1810   50.0450   11.0450 C.2   413  THR413      0.2643
     31  O          5.4740   51.1060   10.4860 O.2   413  THR413     -0.2714
     32  CB         5.8290   48.2960    9.3630 C.3   413  THR413      0.1808
     33  OG1        5.3220   47.2300    8.5550 O.3   413  THR413     -0.2208
     34  CG2        6.9640   47.7590   10.2390 C.3   413  THR413      0.0379
     35  N          5.2690   49.8570   12.3640 N.am  414  SER414     -0.1935
     36  CA         5.7210   50.9010   13.2990 C.3   414  SER414      0.2055
     37  C          5.3760   52.3040   12.8100 C.2   414  SER414      0.2643
     38  O          6.2710   53.1010   12.5000 O.2   414  SER414     -0.2714
     39  CB         7.2300   50.7910   13.5470 C.3   414  SER414      0.2130
     40  OG         7.5560   49.5480   14.1360 O.3   414  SER414     -0.2179
     41  N          4.0840   52.6100   12.7460 N.am  415  LEU415     -0.1963
     42  CA         3.6410   53.8230   12.0590 C.3   415  LEU415      0.1728
     43  C          4.3090   55.1020   12.5480 C.2   415  LEU415      0.2616
     44  O          4.9670   55.7880   11.7670 O.2   415  LEU415     -0.2715
     45  CB         2.1190   53.9780   12.0690 C.3   415  LEU415      0.0311
     46  CG         1.6770   55.2480   11.3280 C.3   415  LEU415      0.0022
     47  CD1        2.0470   55.1970    9.8340 C.3   415  LEU415      0.0001
     48  CD2        0.2020   55.5630   11.5180 C.3   415  LEU415      0.0001
     49  N          4.1350   55.4300   13.8260 N.am  416  TYR416     -0.1974
     50  CA         4.6440   56.6990   14.3430 C.3   416  TYR416      0.1639
     51  C          6.1540   56.8470   14.1850 C.2   416  TYR416      0.2290
     52  O          6.6050   57.8850   13.7130 O.2   416  TYR416     -0.2864
     53  CB         4.1880   56.9520   15.7850 C.3   416  TYR416      0.0560
     54  CG         2.7550   57.4360   15.8970 C.ar  416  TYR416     -0.0198
     55  CD1        1.8720   57.3330   14.8160 C.ar  416  TYR416     -0.0009
     56  CD2        2.2760   57.9780   17.0900 C.ar  416  TYR416     -0.0009
     57  CE1        0.5510   57.7630   14.9180 C.ar  416  TYR416      0.0417
     58  CE2        0.9470   58.4110   17.2050 C.ar  416  TYR416      0.0417
     59  CZ         0.0940   58.3010   16.1120 C.ar  416  TYR416      0.1957
     60  OH        -1.2180   58.7210   16.2060 O.3   416  TYR416     -0.2866
     61  N         13.8320   45.8660   17.1410 N.3   482  ARG482     -0.1245
     62  CA        12.4490   45.3810   17.2400 C.3   482  ARG482      0.1563
     63  C         12.0900   44.4600   16.0770 C.2   482  ARG482      0.2260
     64  O         11.4320   43.4340   16.2700 O.2   482  ARG482     -0.2867
     65  CB        11.4730   46.5630   17.2880 C.3   482  ARG482      0.0307
     66  CG        10.0090   46.1870   17.5490 C.3   482  ARG482      0.0489
     67  CD         9.2030   46.0450   16.2600 C.3   482  ARG482      0.2205
     68  NE         7.8950   45.4430   16.4960 N.pl3 482  ARG482     -0.0865
     69  CZ         6.7970   45.7200   15.7930 C.cat 482  ARG482      0.5346
     70  NH1        6.8420   46.5990   14.7970 N.pl3 482  ARG482      0.1354
     71  NH2        5.6470   45.1200   16.0910 N.pl3 482  ARG482      0.1354
     72  N         11.0010   40.5600   16.3240 N.3   486  LYS486     -0.1245
     73  CA         9.6880   40.1930   15.7870 C.3   486  LYS486      0.1561
     74  C          9.8350   39.0410   14.7870 C.2   486  LYS486      0.2260
     75  O          9.0130   38.1270   14.7590 O.2   486  LYS486     -0.2867
     76  CB         8.9850   41.3930   15.1440 C.3   486  LYS486      0.0271
     77  CG         7.6050   41.0530   14.5860 C.3   486  LYS486      0.0035
     78  CD         6.7970   42.2940   14.2520 C.3   486  LYS486      0.0206
     79  CE         5.5360   41.9170   13.4790 C.3   486  LYS486      0.1093
     80  NZ         4.6530   43.0940   13.2280 N.3   486  LYS486     -0.1314
     81  N          9.0340   48.0130   20.5270 N.3   560  LYS560     -0.1245
     82  CA         7.9440   48.7580   19.8890 C.3   560  LYS560      0.1561
     83  C          7.3770   49.7960   20.8640 C.2   560  LYS560      0.2260
     84  O          7.1350   50.9390   20.4870 O.2   560  LYS560     -0.2867
     85  CB         6.8410   47.8050   19.4020 C.3   560  LYS560      0.0271
     86  CG         5.5270   48.4680   19.0350 C.3   560  LYS560      0.0035
     87  CD         4.4600   47.4280   18.7210 C.3   560  LYS560      0.0206
     88  CE         3.0850   48.0660   18.6240 C.3   560  LYS560      0.1093
     89  NZ         2.0880   47.1260   18.0230 N.3   560  LYS560     -0.1314
     90  N          7.4850   53.9490   20.2490 N.3   564  ASN564     -0.1240
     91  CA         6.2100   54.6660   20.3070 C.3   564  ASN564      0.1653
     92  C          6.2240   55.6580   21.4660 C.2   564  ASN564      0.2266
     93  O          5.6130   56.7300   21.3870 O.2   564  ASN564     -0.2867
     94  CB         5.0320   53.6980   20.4470 C.3   564  ASN564      0.1155
     95  CG         4.7360   52.9400   19.1620 C.2   564  ASN564      0.2627
     96  OD1        3.9470   51.9900   19.1550 O.2   564  ASN564     -0.2716
     97  ND2        5.3610   53.3540   18.0710 N.am  564  ASN564     -0.0877
     98  N         -6.3410   54.0630   13.3710 N.3   622  THR622     -0.1203
     99  CA        -4.9910   54.6350   13.4450 C.3   622  THR622      0.1994
    100  C         -4.1290   54.3820   12.2010 C.2   622  THR622      0.2617
    101  O         -3.7420   55.3280   11.5170 O.2   622  THR622     -0.2717
    102  CB        -4.2350   54.2140   14.7300 C.3   622  THR622      0.1784
    103  OG1       -5.0690   54.4400   15.8790 O.3   622  THR622     -0.2211
    104  CG2       -2.9470   55.0170   14.8730 C.3   622  THR622      0.0376
    105  N         -3.8340   53.1150   11.9210 N.am  623  ASP623     -0.1973
    106  CA        -2.9250   52.7500   10.8390 C.3   623  ASP623      0.1709
    107  C         -3.2920   51.4110   10.2100 C.2   623  ASP623      0.2293
    108  O         -2.4630   50.7810    9.5480 O.2   623  ASP623     -0.2864
    109  CB        -1.4930   52.6890   11.3700 C.3   623  ASP623      0.1436
    110  CG        -1.2440   51.4700   12.2350 C.2   623  ASP623      0.3671
    111  OD1       -0.0980   50.9760   12.2400 O.co2 623  ASP623     -0.2456
    112  OD2       -2.1840   50.9890   12.9050 O.co2 623  ASP623     -0.2456
    113  N         -2.1800   41.7340    7.3050 N.3   686  GLU686     -0.1245
    114  CA        -2.2710   41.1270    8.6230 C.3   686  GLU686      0.1567
    115  C         -3.1820   39.8870    8.5870 C.2   686  GLU686      0.2260
    116  O         -2.6920   38.7650    8.4400 O.2   686  GLU686     -0.2867
    117  CB        -2.7340   42.1580    9.6670 C.3   686  GLU686      0.0388
    118  CG        -2.2340   41.8610   11.0800 C.3   686  GLU686      0.1160
    119  CD        -2.1890   43.0870   11.9870 C.2   686  GLU686      0.3649
    120  OE1       -1.0720   43.5170   12.3480 O.co2 686  GLU686     -0.2457
    121  OE2       -3.2630   43.6160   12.3430 O.co2 686  GLU686     -0.2457
@<TRIPOS>BOND
     1    27    25    1
     2   113   114    1
     3    25    26    1
     4    25    24    1
     5    12    13    1
     6   116   115    2
     7    15    14    2
     8    33    32    1
     9   115   114    1
    10   114   117    1
    11    14    20   am
    12    14    13    1
    13    24    21    1
    14    21    20    1
    15    21    22    1
    16    13    16    1
    17    32    29    1
    18    32    34    1
    19    28    22   am
    20    28    29    1
    21   108   107    2
    22   117   118    1
    23    47    46    1
    24    22    23    2
    25   107   106    1
    26    29    30    1
    27    16    17    1
    28    31    30    2
    29   106   109    1
    30   106   105    1
    31    30    35   am
    32   118   119    1
    33    46    48    1
    34    46    45    1
    35   109   110    1
    36   101   100    2
    37    17    18   ar
    38    17    19   ar
    39    44    43    2
    40   105   100   am
    41   119   121   ar
    42   119   120   ar
    43    42    45    1
    44    42    43    1
    45    42    41    1
    46   100    99    1
    47   110   111   ar
    48   110   112   ar
    49    35    36    1
    50    38    37    2
    51    43    49   am
    52    41    37   am
    53    37    36    1
    54    80    79    1
    55    36    39    1
    56    98    99    1
    57    99   102    1
    58    79    78    1
    59    39    40    1
    60    52    51    2
    61    49    50    1
    62    51    50    1
    63    78    77    1
    64    50    53    1
    65    77    76    1
    66   102   104    1
    67   102   103    1
    68    75    74    2
    69    74    73    1
    70    70    69    1
    71    55    57   ar
    72    55    54   ar
    73    57    59   ar
    74    76    73    1
    75    53    54    1
    76    73    72    1
    77    69    71    1
    78    69    68    2
    79    54    56   ar
    80    63    64    2
    81    63    62    1
    82    59    60    1
    83    59    58   ar
    84    67    68    1
    85    67    66    1
    86    56    58   ar
    87    61    62    1
    88    62    65    1
    89    65    66    1
    90    89    88    1
    91    97    95   am
    92    88    87    1
    93    87    86    1
    94    86    85    1
    95    96    95    2
    96    95    94    1
    97    85    82    1
    98    82    81    1
    99    82    83    1
   100    90    91    1
   101    91    94    1
   102    91    92    1
   103    84    83    2
   104    93    92    2
   105     9    11   ar
   106     9     7   ar
   107    11    10   ar
   108     7     6   ar
   109    10     8   ar
   110     6     8   ar
   111     6     5    1
   112     5     2    1
   113     4     3    2
   114     2     3    1
   115     2     1    1
