@<TRIPOS>MOLECULE
tmp/3so6A00.pdb
 135 134 0 0 0
SMALL
GASTEIGER

@<TRIPOS>ATOM
      1  N         20.7070   67.1340   20.3660 N.3    19  PRO19      -0.2102
      2  CA        20.7260   65.7220   19.9030 C.3    19  PRO19       0.1504
      3  C         19.5650   65.2780   18.9780 C.2    19  PRO19       0.2575
      4  O         19.6580   64.2340   18.3100 O.2    19  PRO19      -0.2718
      5  CB        20.6790   64.9570   21.2190 C.3    19  PRO19       0.0282
      6  CG        20.0220   65.9560   22.2280 C.3    19  PRO19       0.0208
      7  CD        20.5230   67.2740   21.8250 C.3    19  PRO19       0.0893
      8  N         18.4610   65.9950   18.9800 N.am   20  LYS20      -0.1980
      9  CA        17.2860   65.4000   18.3350 C.3    20  LYS20       0.1596
     10  C         16.5210   66.4120   17.6490 C.2    20  LYS20       0.2287
     11  O         16.2670   67.4860   18.2120 O.2    20  LYS20      -0.2864
     12  CB        16.2990   64.7520   19.3420 C.3    20  LYS20       0.0298
     13  CG        16.9170   63.6440   20.2320 C.3    20  LYS20       0.0038
     14  CD        15.9300   63.0430   21.2230 C.3    20  LYS20       0.0206
     15  CE        16.6960   62.2170   22.2070 C.3    20  LYS20       0.1093
     16  NZ        16.9670   60.7970   21.8130 N.3    20  LYS20      -0.1314
     17  N         24.4520   51.8070   21.1130 N.3    71  ILE71      -0.1231
     18  CA        23.0540   52.2940   21.0050 C.3    71  ILE71       0.1692
     19  C         22.7990   53.4530   21.9720 C.2    71  ILE71       0.2592
     20  O         22.0130   54.3280   21.6310 O.2    71  ILE71      -0.2718
     21  CB        22.0390   51.0800   21.2520 C.3    71  ILE71       0.0266
     22  CG1       20.6930   51.3550   20.6380 C.3    71  ILE71       0.0019
     23  CG2       22.0380   50.6460   22.7670 C.3    71  ILE71       0.0020
     24  CD1       20.6210   51.2620   19.1650 C.3    71  ILE71       0.0001
     25  N         23.4520   53.4740   23.1490 N.am   72  TYR72      -0.1976
     26  CA        23.1620   54.5320   24.1240 C.3    72  TYR72       0.1639
     27  C         23.6670   55.9040   23.7270 C.2    72  TYR72       0.2290
     28  O         23.2540   56.9130   24.2550 O.2    72  TYR72      -0.2864
     29  CB        23.7760   54.1800   25.4530 C.3    72  TYR72       0.0560
     30  CG        23.2930   52.8890   26.0340 C.ar   72  TYR72      -0.0198
     31  CD1       21.9360   52.7090   26.3840 C.ar   72  TYR72      -0.0009
     32  CD2       24.2030   51.8500   26.2520 C.ar   72  TYR72      -0.0009
     33  CE1       21.5440   51.5030   26.9450 C.ar   72  TYR72       0.0417
     34  CE2       23.7940   50.6340   26.7820 C.ar   72  TYR72       0.0417
     35  CZ        22.4420   50.4660   27.1250 C.ar   72  TYR72       0.1957
     36  OH        21.9790   49.2710   27.7260 O.3    72  TYR72      -0.2866
     37  N         23.3760   57.0260   20.4660 N.3    74  ILE74      -0.1231
     38  CA        22.7100   57.4780   19.2340 C.3    74  ILE74       0.1692
     39  C         21.4200   58.1270   19.6940 C.2    74  ILE74       0.2593
     40  O         20.6420   57.4910   20.4440 O.2    74  ILE74      -0.2718
     41  CB        22.4340   56.2910   18.2870 C.3    74  ILE74       0.0266
     42  CG1       23.7300   55.5540   17.9020 C.3    74  ILE74       0.0019
     43  CG2       21.6160   56.7980   17.1180 C.3    74  ILE74       0.0020
     44  CD1       23.4670   54.2250   17.1520 C.3    74  ILE74       0.0001
     45  N         21.2070   59.3930   19.3330 N.am   75  SER75      -0.1938
     46  CA        20.0020   60.0830   19.7640 C.3    75  SER75       0.2055
     47  C         18.9100   60.0520   18.7760 C.2    75  SER75       0.2643
     48  O         17.7370   60.1650   19.1610 O.2    75  SER75      -0.2714
     49  CB        20.3310   61.5470   20.0990 C.3    75  SER75       0.2130
     50  OG        21.0640   62.0950   19.0370 O.3    75  SER75      -0.2179
     51  N         19.2250   59.9210   17.4790 N.am   76  TYR76      -0.1959
     52  CA        18.2280   60.2690   16.4290 C.3    76  TYR76       0.1771
     53  C         18.6760   59.6250   15.1240 C.2    76  TYR76       0.2619
     54  O         19.8930   59.5430   14.8710 O.2    76  TYR76      -0.2715
     55  CB        18.2240   61.8160   16.3080 C.3    76  TYR76       0.0574
     56  CG        17.0450   62.4090   15.5220 C.ar   76  TYR76      -0.0198
     57  CD1       15.7680   62.4820   16.0490 C.ar   76  TYR76      -0.0009
     58  CD2       17.2450   62.9430   14.2180 C.ar   76  TYR76      -0.0009
     59  CE1       14.7370   63.0550   15.3300 C.ar   76  TYR76       0.0417
     60  CE2       16.1970   63.4710   13.4950 C.ar   76  TYR76       0.0417
     61  CZ        14.9530   63.5280   14.0430 C.ar   76  TYR76       0.1957
     62  OH        13.9220   64.0450   13.2950 O.3    76  TYR76      -0.2866
     63  N         17.7310   59.2670   14.2590 N.am   77  CYS77      -0.1968
     64  CA        18.0810   58.9050   12.9340 C.3    77  CYS77       0.1712
     65  C         17.0310   59.3910   11.9450 C.2    77  CYS77       0.2296
     66  O         15.9080   59.6810   12.3370 O.2    77  CYS77      -0.2864
     67  CB        18.3430   57.4120   12.7590 C.3    77  CYS77       0.0983
     68  SG        16.8890   56.3700   12.9250 S.3    77  CYS77      -0.0798
     69  N         26.3130   61.1210   20.1890 N.3    92  GLN92      -0.1245
     70  CA        27.2690   61.8220   21.0080 C.3    92  GLN92       0.1566
     71  C         28.6000   61.0480   20.8710 C.2    92  GLN92       0.2260
     72  O         28.6420   59.8080   20.8110 O.2    92  GLN92      -0.2867
     73  CB        26.8360   61.7530   22.5000 C.3    92  GLN92       0.0367
     74  CG        27.7450   62.5390   23.4490 C.3    92  GLN92       0.0905
     75  CD        26.9920   62.9630   24.7030 C.2    92  GLN92       0.2608
     76  OE1       26.3610   62.1380   25.3750 O.2    92  GLN92      -0.2717
     77  NE2       27.1470   64.2650   25.0920 N.am   92  GLN92      -0.0878
     78  N         28.3180   66.3350   19.7370 N.3    99  LEU99      -0.1245
     79  CA        27.2450   65.6090   19.0360 C.3    99  LEU99       0.1561
     80  C         27.5720   65.6500   17.5660 C.2    99  LEU99       0.2260
     81  O         27.8150   66.7360   17.0160 O.2    99  LEU99      -0.2867
     82  CB        25.9160   66.2470   19.2670 C.3    99  LEU99       0.0270
     83  CG        25.5350   66.4690   20.7510 C.3    99  LEU99       0.0019
     84  CD1       24.1880   67.2080   20.8790 C.3    99  LEU99       0.0001
     85  CD2       25.6560   65.1730   21.6260 C.3    99  LEU99       0.0001
     86  N         16.4430   50.8680   18.2200 N.3   123  PHE123     -0.1227
     87  CA        16.1780   51.7440   19.3690 C.3   123  PHE123      0.1736
     88  C         15.1080   51.1160   20.2330 C.2   123  PHE123      0.2595
     89  O         15.1840   51.1130   21.4550 O.2   123  PHE123     -0.2718
     90  CB        15.6050   53.0650   18.9030 C.3   123  PHE123      0.0547
     91  CG        16.5380   53.9690   18.1230 C.ar  123  PHE123     -0.0202
     92  CD1       17.9380   53.8330   18.1400 C.ar  123  PHE123     -0.0042
     93  CD2       15.9790   55.0850   17.4200 C.ar  123  PHE123     -0.0042
     94  CE1       18.7340   54.7550   17.4590 C.ar  123  PHE123     -0.0003
     95  CE2       16.7700   56.0100   16.7920 C.ar  123  PHE123     -0.0003
     96  CZ        18.1560   55.8230   16.7790 C.ar  123  PHE123     -0.0000
     97  N         14.0120   50.6120   19.6470 N.am  124  LYS124     -0.1980
     98  CA        12.8750   50.0620   20.3830 C.3   124  LYS124      0.1596
     99  C         13.2610   48.8040   21.1560 C.2   124  LYS124      0.2287
    100  O         12.9820   48.6710   22.3550 O.2   124  LYS124     -0.2864
    101  CB        11.7280   49.7620   19.4110 C.3   124  LYS124      0.0298
    102  CG        10.5010   49.1790   20.1670 C.3   124  LYS124      0.0038
    103  CD         9.2640   48.9280   19.1900 C.3   124  LYS124      0.0206
    104  CE         7.9650   48.8080   20.0240 C.3   124  LYS124      0.1093
    105  NZ         7.6600   47.4260   20.2540 N.3   124  LYS124     -0.1314
    106  N         16.3330   47.8440   22.0080 N.3   126  ALA126     -0.1231
    107  CA        17.2850   48.2270   23.0830 C.3   126  ALA126      0.1694
    108  C         16.5620   48.7930   24.2790 C.2   126  ALA126      0.2592
    109  O         16.9100   48.4820   25.4080 O.2   126  ALA126     -0.2718
    110  CB        18.3370   49.1910   22.5320 C.3   126  ALA126      0.0304
    111  N         15.5740   49.6310   24.0230 N.am  127  PHE127     -0.1976
    112  CA        14.7870   50.1780   25.1340 C.3   127  PHE127      0.1639
    113  C         14.0870   49.0880   25.9570 C.2   127  PHE127      0.2290
    114  O         14.0620   49.1440   27.1750 O.2   127  PHE127     -0.2864
    115  CB        13.7870   51.2180   24.6050 C.3   127  PHE127      0.0560
    116  CG        13.0050   51.8710   25.7140 C.ar  127  PHE127     -0.0200
    117  CD1       13.6470   52.7150   26.6320 C.ar  127  PHE127     -0.0042
    118  CD2       11.6930   51.5840   25.8920 C.ar  127  PHE127     -0.0042
    119  CE1       12.9130   53.3700   27.6080 C.ar  127  PHE127     -0.0003
    120  CE2       10.9740   52.1880   26.9990 C.ar  127  PHE127     -0.0003
    121  CZ        11.6440   53.0570   27.8360 C.ar  127  PHE127     -0.0000
    122  N         16.5300   47.4450   28.0870 N.3   130  TRP130     -0.1241
    123  CA        16.9520   48.3550   29.1560 C.3   130  TRP130      0.1605
    124  C         15.9430   48.3290   30.3210 C.2   130  TRP130      0.2264
    125  O         16.3230   48.3330   31.4930 O.2   130  TRP130     -0.2867
    126  CB        17.1690   49.7640   28.5570 C.3   130  TRP130      0.0550
    127  CG        17.4670   50.8260   29.5520 C.ar  130  TRP130      0.0003
    128  CD1       18.7300   51.2320   29.9540 C.ar  130  TRP130      0.0946
    129  CD2       16.5140   51.7190   30.1800 C.ar  130  TRP130      0.0152
    130  NE1       18.5910   52.2490   30.9010 N.ar  130  TRP130     -0.2442
    131  CE2       17.2670   52.5980   31.0190 C.ar  130  TRP130      0.0810
    132  CE3       15.1110   51.8200   30.1790 C.ar  130  TRP130      0.0012
    133  CZ2       16.6500   53.5870   31.8330 C.ar  130  TRP130      0.0191
    134  CZ3       14.4990   52.8090   30.9280 C.ar  130  TRP130      0.0001
    135  CH2       15.2730   53.6810   31.7900 C.ar  130  TRP130      0.0015
@<TRIPOS>BOND
     1    65    66    2
     2    65    64    1
     3    67    68    1
     4    67    64    1
     5    64    63    1
     6    62    61    1
     7    60    61   ar
     8    60    58   ar
     9    61    59   ar
    10    58    56   ar
    11    63    53   am
    12    54    53    2
    13    53    52    1
    14    59    57   ar
    15    56    57   ar
    16    56    55    1
    17    55    52    1
    18    52    51    1
    19    96    95   ar
    20    96    94   ar
    21    95    93   ar
    22    81    80    2
    23    43    41    1
    24    44    42    1
    25    93    91   ar
    26    94    92   ar
    27    51    47   am
    28    80    79    1
    29    10    11    2
    30    10     9    1
    31    42    41    1
    32    91    92   ar
    33    91    90    1
    34    86    87    1
    35    41    38    1
    36     4     3    2
    37     9     8    1
    38     9    12    1
    39    47    48    2
    40    47    46    1
    41    90    87    1
    42     3     8   am
    43     3     2    1
    44    79    82    1
    45    79    78    1
    46    50    49    1
    47    24    22    1
    48   103   104    1
    49   103   102    1
    50    38    39    1
    51    38    37    1
    52    82    83    1
    53    45    39   am
    54    45    46    1
    55    12    13    1
    56    87    88    1
    57   101   102    1
    58   101    98    1
    59    97    88   am
    60    97    98    1
    61    39    40    2
    62    46    49    1
    63     2     1    1
    64     2     5    1
    65   104   105    1
    66    69    70    1
    67    13    14    1
    68    88    89    2
    69     1     7    1
    70    98    99    1
    71    22    21    1
    72    83    84    1
    73    83    85    1
    74    72    71    2
    75    71    70    1
    76    18    17    1
    77    18    21    1
    78    18    19    1
    79    70    73    1
    80    99   100    2
    81     5     6    1
    82    14    15    1
    83    21    23    1
    84    20    19    2
    85    16    15    1
    86     7     6    1
    87    19    25   am
    88   106   107    1
    89    73    74    1
    90   110   107    1
    91   107   108    1
    92    25    26    1
    93    74    75    1
    94    27    26    1
    95    27    28    2
    96   111   108   am
    97   111   112    1
    98    26    29    1
    99   108   109    2
   100   115   112    1
   101   115   116    1
   102    75    77   am
   103    75    76    2
   104   112   113    1
   105    29    30    1
   106   116   118   ar
   107   116   117   ar
   108   118   120   ar
   109   113   114    2
   110    30    32   ar
   111    30    31   ar
   112    32    34   ar
   113    31    33   ar
   114   117   119   ar
   115    34    35   ar
   116    33    35   ar
   117   120   121   ar
   118    35    36    1
   119   119   121   ar
   120   122   123    1
   121   126   123    1
   122   126   127    1
   123   123   124    1
   124   127   128   ar
   125   127   129   ar
   126   128   130   ar
   127   132   129   ar
   128   132   134   ar
   129   129   131   ar
   130   124   125    2
   131   130   131   ar
   132   134   135   ar
   133   131   133   ar
   134   135   133   ar
