@<TRIPOS>MOLECULE
tmp/3soaA00.pdb
 178 169 0 0 0
SMALL
GASTEIGER

@<TRIPOS>ATOM
      1  N        -37.9830  -18.3160   38.6020 N.3    11  GLU11      -0.1231
      2  CA       -38.3910  -18.1450   37.2110 C.3    11  GLU11       0.1699
      3  C        -38.4620  -16.7080   36.7080 C.2    11  GLU11       0.2592
      4  O        -38.7250  -15.7700   37.4640 O.2    11  GLU11      -0.2718
      5  CB       -39.7870  -18.7350   37.0280 C.3    11  GLU11       0.0402
      6  CG       -40.9150  -17.8090   37.4950 C.3    11  GLU11       0.1161
      7  CD       -41.5140  -18.2170   38.8320 C.2    11  GLU11       0.3649
      8  OE1      -40.8740  -19.0080   39.5570 O.co2  11  GLU11      -0.2457
      9  OE2      -42.6310  -17.7540   39.1540 O.co2  11  GLU11      -0.2457
     10  N        -38.1990  -16.5550   35.4130 N.am   12  GLU12      -0.1966
     11  CA       -38.4090  -15.2870   34.7270 C.3    12  GLU12       0.1733
     12  C        -39.8940  -14.9150   34.6400 C.2    12  GLU12       0.2616
     13  O        -40.7680  -15.7690   34.4730 O.2    12  GLU12      -0.2715
     14  CB       -37.7930  -15.3170   33.3210 C.3    12  GLU12       0.0429
     15  CG       -38.0590  -14.0590   32.4820 C.3    12  GLU12       0.1163
     16  CD       -37.5520  -14.1760   31.0500 C.2    12  GLU12       0.3649
     17  OE1      -37.9800  -13.3710   30.1930 O.co2  12  GLU12      -0.2457
     18  OE2      -36.7250  -15.0730   30.7800 O.co2  12  GLU12      -0.2457
     19  N        -40.1530  -13.6190   34.7660 N.am   13  LEU13      -0.1963
     20  CA       -41.4670  -13.0220   34.5460 C.3    13  LEU13       0.1728
     21  C        -41.5570  -12.4340   33.1260 C.2    13  LEU13       0.2617
     22  O        -42.4730  -12.7590   32.3680 O.2    13  LEU13      -0.2715
     23  CB       -41.8010  -11.9990   35.6330 C.3    13  LEU13       0.0311
     24  CG       -41.8200  -12.5460   37.0680 C.3    13  LEU13       0.0022
     25  CD1      -41.9870  -11.4150   38.0790 C.3    13  LEU13       0.0001
     26  CD2      -42.8960  -13.6180   37.2550 C.3    13  LEU13       0.0001
     27  N        -40.6220  -11.5480   32.7850 N.am   14  GLY14      -0.1940
     28  CA       -40.5930  -10.9200   31.4710 C.3    14  GLY14       0.2014
     29  C        -39.1810  -10.6170   30.9840 C.2    14  GLY14       0.2638
     30  O        -38.2030  -11.0200   31.6220 O.2    14  GLY14      -0.2714
     31  N        -39.0650   -9.9540   29.8330 N.am   15  LYS15      -0.1977
     32  CA       -37.7460   -9.6660   29.2590 C.3    15  LYS15       0.1596
     33  C        -37.6660   -8.3570   28.4660 C.2    15  LYS15       0.2287
     34  O        -38.6670   -7.8750   27.9340 O.2    15  LYS15      -0.2864
     35  CB       -37.2690  -10.8330   28.3860 C.3    15  LYS15       0.0298
     36  CG       -35.8250  -10.6900   27.9190 C.3    15  LYS15       0.0038
     37  CD       -35.3410  -11.9230   27.1780 C.3    15  LYS15       0.0206
     38  CE       -33.8850  -11.7790   26.7510 C.3    15  LYS15       0.1093
     39  NZ       -33.3760  -13.0360   26.1360 N.3    15  LYS15      -0.1314
     40  N        -36.7390   -9.6310   33.9630 N.3    19  VAL19      -0.1245
     41  CA       -37.4890   -9.6720   35.2120 C.3    19  VAL19       0.1561
     42  C        -37.4780  -11.0970   35.7140 C.2    19  VAL19       0.2260
     43  O        -37.6230  -12.0310   34.9290 O.2    19  VAL19      -0.2867
     44  CB       -38.9750   -9.2850   35.0310 C.3    19  VAL19       0.0252
     45  CG1      -39.5680   -8.8290   36.3600 C.3    19  VAL19       0.0019
     46  CG2      -39.1420   -8.2080   33.9730 C.3    19  VAL19       0.0019
     47  N        -40.1430   -9.0140   42.8080 N.3    32  ALA32      -0.1245
     48  CA       -39.7500   -9.1920   41.4110 C.3    32  ALA32       0.1562
     49  C        -38.5220   -8.3320   41.1060 C.2    32  ALA32       0.2260
     50  O        -38.5220   -7.1270   41.3680 O.2    32  ALA32      -0.2867
     51  CB       -40.9000   -8.8460   40.4800 C.3    32  ALA32       0.0290
     52  N        -35.6430   -6.6920   38.6470 N.3    34  MET34      -0.1245
     53  CA       -35.1580   -6.2850   37.3430 C.3    34  MET34       0.1570
     54  C        -33.6700   -6.5600   37.3000 C.2    34  MET34       0.2261
     55  O        -32.9070   -6.0360   38.1190 O.2    34  MET34      -0.2867
     56  CB       -35.4260   -4.8000   37.1130 C.3    34  MET34       0.0387
     57  CG       -36.7640   -4.5260   36.4680 C.3    34  MET34       0.0595
     58  SD       -36.8900   -5.3220   34.8510 S.3    34  MET34      -0.1393
     59  CE       -35.8000   -4.2850   33.8880 C.3    34  MET34       0.0692
     60  N        -35.6110    6.0450   36.9380 N.3    52  GLU52      -0.1245
     61  CA       -36.6720    5.0870   37.1990 C.3    52  GLU52       0.1567
     62  C        -36.6710    4.6730   38.6700 C.2    52  GLU52       0.2260
     63  O        -37.7220    4.6380   39.3010 O.2    52  GLU52      -0.2867
     64  CB       -36.5940    3.8790   36.2570 C.3    52  GLU52       0.0388
     65  CG       -37.8380    2.9940   36.3030 C.3    52  GLU52       0.1160
     66  CD       -37.9940    2.1110   35.0770 C.2    52  GLU52       0.3649
     67  OE1      -37.3410    2.3960   34.0540 O.co2  52  GLU52      -0.2457
     68  OE2      -38.7730    1.1330   35.1370 O.co2  52  GLU52      -0.2457
     69  N        -46.9150   -0.5470   41.8720 N.3    65  VAL65      -0.1245
     70  CA       -45.8580   -1.3750   42.4170 C.3    65  VAL65       0.1561
     71  C        -44.8520   -0.4780   43.1200 C.2    65  VAL65       0.2260
     72  O        -44.3840    0.5120   42.5580 O.2    65  VAL65      -0.2867
     73  CB       -45.1380   -2.1540   41.3100 C.3    65  VAL65       0.0252
     74  CG1      -43.9080   -2.8200   41.8690 C.3    65  VAL65       0.0019
     75  CG2      -46.0670   -3.1810   40.6730 C.3    65  VAL65       0.0019
     76  N        -38.7210   -4.0560   43.0320 N.3    81  PHE81      -0.1227
     77  CA       -39.9960   -3.4380   43.2950 C.3    81  PHE81       0.1736
     78  C        -40.8960   -4.5790   43.7420 C.2    81  PHE81       0.2595
     79  O        -40.4310   -5.6870   44.0200 O.2    81  PHE81      -0.2718
     80  CB       -40.5190   -2.7990   42.0220 C.3    81  PHE81       0.0547
     81  CG       -40.5030   -3.7330   40.8710 C.ar   81  PHE81      -0.0202
     82  CD1      -41.5320   -4.6290   40.6990 C.ar   81  PHE81      -0.0042
     83  CD2      -39.4320   -3.7660   40.0000 C.ar   81  PHE81      -0.0042
     84  CE1      -41.5170   -5.5150   39.6710 C.ar   81  PHE81      -0.0003
     85  CE2      -39.4130   -4.6550   38.9600 C.ar   81  PHE81      -0.0003
     86  CZ       -40.4510   -5.5340   38.8010 C.ar   81  PHE81      -0.0000
     87  N        -42.1850   -4.2940   43.8240 N.am   82  ASP82      -0.1960
     88  CA       -43.1910   -5.2670   44.2260 C.3    82  ASP82       0.1840
     89  C        -43.5090   -6.3310   43.1500 C.2    82  ASP82       0.2622
     90  O        -43.6160   -6.0210   41.9650 O.2    82  ASP82      -0.2715
     91  CB       -44.4470   -4.4960   44.6210 C.3    82  ASP82       0.1450
     92  CG       -45.6130   -5.3890   44.8980 C.2    82  ASP82       0.3671
     93  OD1      -45.3930   -6.5220   45.3720 O.co2  82  ASP82      -0.2456
     94  OD2      -46.7520   -4.9520   44.6400 O.co2  82  ASP82      -0.2456
     95  N        -43.6480   -7.5840   43.5840 N.am   83  LEU83      -0.1963
     96  CA       -43.9450   -8.7310   42.7110 C.3    83  LEU83       0.1728
     97  C        -45.4240   -8.8790   42.3440 C.2    83  LEU83       0.2616
     98  O        -46.2880   -8.3900   43.0670 O.2    83  LEU83      -0.2715
     99  CB       -43.4940  -10.0200   43.3970 C.3    83  LEU83       0.0311
    100  CG       -43.7540  -11.3470   42.6860 C.3    83  LEU83       0.0022
    101  CD1      -42.9770  -11.3930   41.3890 C.3    83  LEU83       0.0001
    102  CD2      -43.3600  -12.5020   43.5870 C.3    83  LEU83       0.0001
    103  N        -45.7120   -9.5510   41.2270 N.am   84  VAL84      -0.1963
    104  CA       -47.0880   -9.9590   40.9020 C.3    84  VAL84       0.1727
    105  C        -47.1620  -11.1900   40.0120 C.2    84  VAL84       0.2617
    106  O        -46.2700  -11.4080   39.1880 O.2    84  VAL84      -0.2715
    107  CB       -47.8710   -8.8690   40.1380 C.3    84  VAL84       0.0290
    108  CG1      -48.1590   -7.6710   41.0180 C.3    84  VAL84       0.0023
    109  CG2      -47.1330   -8.4680   38.8900 C.3    84  VAL84       0.0023
    110  N        -48.2180  -11.9960   40.1610 N.am   85  THR85      -0.1937
    111  CA       -48.6530  -12.8180   39.0330 C.3    85  THR85       0.2028
    112  C        -50.1340  -12.5990   38.7290 C.2    85  THR85       0.2643
    113  O        -50.9850  -13.3250   39.2430 O.2    85  THR85      -0.2714
    114  CB       -48.4970  -14.3120   39.3800 C.3    85  THR85       0.1808
    115  OG1      -49.5050  -14.7010   40.3290 O.3    85  THR85      -0.2208
    116  CG2      -47.1190  -14.5760   39.9640 C.3    85  THR85       0.0379
    117  N        -50.4240  -11.6630   37.8210 N.am   86  GLY86      -0.1939
    118  CA       -51.7820  -11.3790   37.3720 C.3    86  GLY86       0.2014
    119  C        -52.1890  -11.5420   35.9110 C.2    86  GLY86       0.2639
    120  O        -53.3770  -11.4820   35.5910 O.2    86  GLY86      -0.2714
    121  N        -51.2230  -11.7520   35.0220 N.am   87  GLY87      -0.1939
    122  CA       -51.4870  -11.6140   33.6000 C.3    87  GLY87       0.2014
    123  C        -51.7180  -10.1450   33.2740 C.2    87  GLY87       0.2638
    124  O        -51.7870   -9.3070   34.1780 O.2    87  GLY87      -0.2714
    125  N        -51.8450   -9.8270   31.9880 N.am   88  GLU88      -0.1977
    126  CA       -52.1690   -8.4700   31.5580 C.3    88  GLU88       0.1602
    127  C        -53.6560   -8.2020   31.7530 C.2    88  GLU88       0.2287
    128  O        -54.4540   -9.1360   31.8290 O.2    88  GLU88      -0.2864
    129  CB       -51.7940   -8.2690   30.0940 C.3    88  GLU88       0.0415
    130  CG       -52.0960   -6.8820   29.5700 C.3    88  GLU88       0.1163
    131  CD       -51.8820   -6.7740   28.0740 C.2    88  GLU88       0.3649
    132  OE1      -51.3010   -7.7150   27.4900 O.co2  88  GLU88      -0.2457
    133  OE2      -52.3010   -5.7540   27.4810 O.co2  88  GLU88      -0.2457
    134  N        -50.0010   -2.4710   27.4970 N.3   131  GLU131     -0.1231
    135  CA       -48.8630   -3.2330   27.9710 C.3   131  GLU131      0.1699
    136  C        -48.5710   -2.8450   29.4270 C.2   131  GLU131      0.2592
    137  O        -48.4860   -3.7040   30.3090 O.2   131  GLU131     -0.2718
    138  CB       -47.6470   -2.9970   27.0580 C.3   131  GLU131      0.0402
    139  CG       -47.7170   -3.6930   25.6820 C.3   131  GLU131      0.1161
    140  CD       -48.5170   -2.9220   24.6380 C.2   131  GLU131      0.3649
    141  OE1      -49.0390   -1.8360   24.9550 O.co2 131  GLU131     -0.2457
    142  OE2      -48.6190   -3.4070   23.4910 O.co2 131  GLU131     -0.2457
    143  N        -48.4750   -1.5370   29.6630 N.am  132  ASN132     -0.1974
    144  CA       -48.1290   -0.9600   30.9650 C.3   132  ASN132      0.1688
    145  C        -49.2190   -1.0960   32.0330 C.2   132  ASN132      0.2292
    146  O        -49.0320   -0.6630   33.1670 O.2   132  ASN132     -0.2864
    147  CB       -47.7220    0.5150   30.8130 C.3   132  ASN132      0.1181
    148  CG       -46.2890    0.6870   30.3270 C.2   132  ASN132      0.2629
    149  OD1      -45.5170   -0.2690   30.2820 O.2   132  ASN132     -0.2716
    150  ND2      -45.9240    1.9180   29.9800 N.am  132  ASN132     -0.0877
    151  N        -51.4270   -3.6680   34.2260 N.3   134  LEU134     -0.1245
    152  CA       -51.4350   -5.0740   34.6510 C.3   134  LEU134      0.1561
    153  C        -52.3140   -5.3650   35.8750 C.2   134  LEU134      0.2260
    154  O        -52.7620   -4.4460   36.5640 O.2   134  LEU134     -0.2867
    155  CB       -50.0080   -5.5500   34.9250 C.3   134  LEU134      0.0270
    156  CG       -48.9640   -5.1320   33.8930 C.3   134  LEU134      0.0019
    157  CD1      -47.5740   -5.4950   34.3740 C.3   134  LEU134      0.0001
    158  CD2      -49.2610   -5.7700   32.5460 C.3   134  LEU134      0.0001
    159  N        -54.4230  -12.9170   39.8180 N.3   138  LYS138     -0.1245
    160  CA       -55.5750  -13.4630   39.1300 C.3   138  LYS138      0.1561
    161  C        -56.6560  -13.6730   40.1740 C.2   138  LYS138      0.2260
    162  O        -57.7900  -14.0190   39.8490 O.2   138  LYS138     -0.2867
    163  CB       -55.2230  -14.7860   38.4560 C.3   138  LYS138      0.0271
    164  CG       -54.1210  -14.6690   37.4260 C.3   138  LYS138      0.0035
    165  CD       -53.9530  -15.9570   36.6470 C.3   138  LYS138      0.0206
    166  CE       -53.2610  -15.6860   35.3260 C.3   138  LYS138      0.1093
    167  NZ       -53.8910  -14.5290   34.6180 N.3   138  LYS138     -0.1314
    168  N        -42.4940    3.2200   34.0950 N.3   149  PHE149     -0.1241
    169  CA       -41.3050    3.2570   33.2600 C.3   149  PHE149      0.1605
    170  C        -41.2040    4.7520   32.9340 C.2   149  PHE149      0.2264
    171  O        -42.2460    5.3710   32.7920 O.2   149  PHE149     -0.2867
    172  CB       -41.5420    2.3100   32.0790 C.3   149  PHE149      0.0534
    173  CG       -42.1470    1.0050   32.5140 C.ar  149  PHE149     -0.0203
    174  CD1      -41.4920    0.2450   33.4600 C.ar  149  PHE149     -0.0042
    175  CD2      -43.3900    0.5850   32.0650 C.ar  149  PHE149     -0.0042
    176  CE1      -42.0300   -0.9170   33.9430 C.ar  149  PHE149     -0.0003
    177  CE2      -43.9280   -0.5970   32.5330 C.ar  149  PHE149     -0.0003
    178  CZ       -43.2500   -1.3460   33.4790 C.ar  149  PHE149     -0.0000
@<TRIPOS>BOND
     1   142   140   ar
     2   140   141   ar
     3   140   139    1
     4   139   138    1
     5    39    38    1
     6    38    37    1
     7   138   135    1
     8    37    36    1
     9   133   131   ar
    10   132   131   ar
    11   134   135    1
    12    36    35    1
    13    34    33    2
    14   135   136    1
    15   131   130    1
    16    35    32    1
    17    33    32    1
    18    32    31    1
    19   136   143   am
    20   136   137    2
    21   130   129    1
    22   143   144    1
    23    31    29   am
    24   150   148   am
    25   129   126    1
    26    17    16   ar
    27   149   148    2
    28   148   147    1
    29    18    16   ar
    30   147   144    1
    31   144   145    1
    32    29    28    1
    33    29    30    2
    34    16    15    1
    35    28    27    1
    36   126   127    1
    37   126   125    1
    38   127   128    2
    39   125   123   am
    40   145   146    2
    41   175   173   ar
    42   175   177   ar
    43   172   173    1
    44   172   169    1
    45    22    21    2
    46    15    14    1
    47   173   174   ar
    48   177   178   ar
    49   158   156    1
    50    27    21   am
    51   171   170    2
    52   170   169    1
    53    21    20    1
    54   169   168    1
    55   123   122    1
    56   123   124    2
    57    14    11    1
    58   174   176   ar
    59   178   176   ar
    60   122   121    1
    61    59    58    1
    62   156   157    1
    63   156   155    1
    64    40    41    1
    65    46    44    1
    66    67    66   ar
    67   151   152    1
    68    13    12    2
    69    20    19    1
    70    20    23    1
    71   167   166    1
    72    12    11    1
    73    12    19   am
    74   152   155    1
    75   152   153    1
    76    11    10    1
    77    58    57    1
    78    43    42    2
    79   121   119   am
    80    44    41    1
    81    44    45    1
    82    66    68   ar
    83    66    65    1
    84    41    42    1
    85   166   165    1
    86    10     3   am
    87   120   119    2
    88    23    24    1
    89   153   154    2
    90   119   118    1
    91    64    65    1
    92    64    61    1
    93    57    56    1
    94   165   164    1
    95     3     2    1
    96     3     4    2
    97    60    61    1
    98     5     2    1
    99     5     6    1
   100    24    26    1
   101    24    25    1
   102    56    53    1
   103    61    62    1
   104     2     1    1
   105    54    53    1
   106    54    55    2
   107    53    52    1
   108   118   117    1
   109   164   163    1
   110     6     7    1
   111   117   112   am
   112   163   160    1
   113    62    63    2
   114   112   111    1
   115   112   113    2
   116    86    85   ar
   117    86    84   ar
   118     7     9   ar
   119     7     8   ar
   120   109   107    1
   121    85    83   ar
   122   111   114    1
   123   111   110    1
   124   160   159    1
   125   160   161    1
   126   106   105    2
   127   114   116    1
   128   114   115    1
   129    84    82   ar
   130   162   161    2
   131    83    81   ar
   132   105   110   am
   133   105   104    1
   134   107   104    1
   135   107   108    1
   136    51    48    1
   137    75    73    1
   138    82    81   ar
   139    81    80    1
   140   104   103    1
   141    49    50    2
   142    49    48    1
   143   103    97   am
   144    73    74    1
   145    73    70    1
   146   101   100    1
   147    48    47    1
   148    69    70    1
   149    90    89    2
   150    80    77    1
   151    97    96    1
   152    97    98    2
   153    70    71    1
   154    72    71    2
   155   100    99    1
   156   100   102    1
   157    96    99    1
   158    96    95    1
   159    76    77    1
   160    89    95   am
   161    89    88    1
   162    77    78    1
   163    78    87   am
   164    78    79    2
   165    87    88    1
   166    88    91    1
   167    91    92    1
   168    94    92   ar
   169    92    93   ar
