@<TRIPOS>MOLECULE
tmp/3socB00.pdb
 165 157 0 0 0
SMALL
GASTEIGER

@<TRIPOS>ATOM
      1  N         78.0220   39.7610    5.8150 N.3    23  LYS23      -0.1231
      2  CA        78.0500   41.0230    5.0920 C.3    23  LYS23       0.1693
      3  C         78.8650   42.0350    5.8520 C.2    23  LYS23       0.2592
      4  O         79.4370   42.9460    5.2720 O.2    23  LYS23      -0.2718
      5  CB        76.6090   41.5260    4.8720 C.3    23  LYS23       0.0285
      6  CG        75.8810   40.7740    3.7540 C.3    23  LYS23       0.0035
      7  CD        76.6190   40.9440    2.4070 C.3    23  LYS23       0.0206
      8  CE        75.7530   40.5850    1.1940 C.3    23  LYS23       0.1093
      9  NZ        76.5460   40.5370   -0.0600 N.3    23  LYS23      -0.1314
     10  N         78.9290   41.8520    7.1590 N.am   24  ALA24      -0.1966
     11  CA        79.6430   42.7690    8.0310 C.3    24  ALA24       0.1728
     12  C         79.4670   42.3210    9.4650 C.2    24  ALA24       0.2616
     13  O         78.8380   41.2440    9.7670 O.2    24  ALA24      -0.2715
     14  CB        79.1820   44.2910    7.8480 C.3    24  ALA24       0.0334
     15  N         80.0570   43.1740   10.3060 N.am   25  ARG25      -0.1963
     16  CA        79.9150   43.1780   11.7350 C.3    25  ARG25       0.1729
     17  C         78.8980   44.2810   12.1080 C.2    25  ARG25       0.2616
     18  O         77.8960   44.0470   12.8220 O.2    25  ARG25      -0.2715
     19  CB        81.3060   43.4770   12.3240 C.3    25  ARG25       0.0348
     20  CG        81.4510   43.4530   13.8490 C.3    25  ARG25       0.0492
     21  CD        81.1330   42.1150   14.4440 C.3    25  ARG25       0.2205
     22  NE        81.8870   41.0410   13.8110 N.pl3  25  ARG25      -0.0865
     23  CZ        81.6300   39.7470   13.9740 C.cat  25  ARG25       0.5346
     24  NH1       80.6420   39.3410   14.7690 N.pl3  25  ARG25       0.1354
     25  NH2       82.3720   38.8440   13.3470 N.pl3  25  ARG25       0.1354
     26  N         79.1290   45.4870   11.5960 N.am   26  GLY26      -0.1955
     27  CA        78.5520   46.6550   12.2400 C.3    26  GLY26       0.1869
     28  C         78.9940   46.5740   13.6940 C.2    26  GLY26       0.2309
     29  O         79.9150   45.8280   14.0190 O.2    26  GLY26      -0.2863
     30  N         76.3900   39.9950   10.8330 N.3    31  VAL31      -0.1245
     31  CA        75.2060   40.0120    9.9680 C.3    31  VAL31       0.1561
     32  C         75.4140   39.0960    8.7940 C.2    31  VAL31       0.2260
     33  O         76.3240   39.3100    8.0000 O.2    31  VAL31      -0.2867
     34  CB        74.9370   41.4060    9.4020 C.3    31  VAL31       0.0252
     35  CG1       73.7180   41.3550    8.5180 C.3    31  VAL31       0.0019
     36  CG2       74.7680   42.4150   10.5090 C.3    31  VAL31       0.0019
     37  N         68.1880   39.0860    6.6360 N.3    42  ALA42      -0.1245
     38  CA        69.4180   39.2990    7.3540 C.3    42  ALA42       0.1562
     39  C         69.3480   38.6060    8.7160 C.2    42  ALA42       0.2260
     40  O         68.4170   38.8570    9.4900 O.2    42  ALA42      -0.2867
     41  CB        69.6860   40.8260    7.5330 C.3    42  ALA42       0.0290
     42  N         71.2370   38.4340   12.1510 N.3    44  LYS44      -0.1245
     43  CA        72.2190   39.0300   13.0300 C.3    44  LYS44       0.1561
     44  C         72.4750   38.0070   14.1100 C.2    44  LYS44       0.2260
     45  O         71.5320   37.5650   14.7960 O.2    44  LYS44      -0.2867
     46  CB        71.6850   40.3140   13.6560 C.3    44  LYS44       0.0271
     47  CG        71.3040   41.4270   12.6480 C.3    44  LYS44       0.0035
     48  CD        70.6860   42.6990   13.3640 C.3    44  LYS44       0.0206
     49  CE        71.7460   43.5760   13.9890 C.3    44  LYS44       0.1093
     50  NZ        71.1950   44.8970   14.4640 N.3    44  LYS44      -0.1314
     51  N         63.6010   49.4750    9.6910 N.3    72  LEU72      -0.1245
     52  CA        63.9930   48.1710    9.1520 C.3    72  LEU72       0.1561
     53  C         63.1090   47.0920    9.7340 C.2    72  LEU72       0.2260
     54  O         62.9230   46.9850   10.9650 O.2    72  LEU72      -0.2867
     55  CB        65.4630   47.8660    9.4090 C.3    72  LEU72       0.0270
     56  CG        65.9350   46.4260    9.1760 C.3    72  LEU72       0.0019
     57  CD1       65.7870   46.1160    7.6530 C.3    72  LEU72       0.0001
     58  CD2       67.4030   46.2540    9.6810 C.3    72  LEU72       0.0001
     59  N         66.0960   40.2490   10.4080 N.3    92  THR92      -0.1203
     60  CA        65.4080   41.3940    9.7810 C.3    92  THR92       0.1994
     61  C         65.2970   41.1870    8.3000 C.2    92  THR92       0.2618
     62  O         65.8380   40.1910    7.7460 O.2    92  THR92      -0.2717
     63  CB        66.1300   42.7250   10.0470 C.3    92  THR92       0.1784
     64  OG1       67.3920   42.7100    9.3890 O.3    92  THR92      -0.2211
     65  CG2       66.3320   42.9630   11.5470 C.3    92  THR92       0.0376
     66  N         64.5870   42.1070    7.6250 N.am   93  ALA93      -0.1965
     67  CA        64.5690   42.1270    6.1840 C.3    93  ALA93       0.1728
     68  C         65.9810   42.3810    5.6540 C.2    93  ALA93       0.2616
     69  O         66.8230   42.9680    6.3330 O.2    93  ALA93      -0.2715
     70  CB        63.6530   43.2030    5.6670 C.3    93  ALA93       0.0334
     71  N         66.2110   41.9120    4.4500 N.am   94  PHE94      -0.1960
     72  CA        67.4500   42.1290    3.7530 C.3    94  PHE94       0.1771
     73  C         67.1890   43.0430    2.5680 C.2    94  PHE94       0.2620
     74  O         66.2600   42.8120    1.7620 O.2    94  PHE94      -0.2715
     75  CB        68.0300   40.8250    3.2410 C.3    94  PHE94       0.0574
     76  CG        69.3100   41.0060    2.5280 C.ar   94  PHE94      -0.0200
     77  CD1       70.4800   41.1040    3.2240 C.ar   94  PHE94      -0.0042
     78  CD2       69.3280   41.1030    1.1540 C.ar   94  PHE94      -0.0042
     79  CE1       71.6620   41.2830    2.5580 C.ar   94  PHE94      -0.0003
     80  CE2       70.4870   41.2810    0.4850 C.ar   94  PHE94      -0.0003
     81  CZ        71.6630   41.3600    1.1820 C.ar   94  PHE94      -0.0000
     82  N         68.0060   44.0930    2.4690 N.am   95  HIS95      -0.1959
     83  CA        67.9400   45.0540    1.3860 C.3    95  HIS95       0.1787
     84  C         69.2340   44.9830    0.5710 C.2    95  HIS95       0.2620
     85  O         70.3580   45.2590    1.0650 O.2    95  HIS95      -0.2715
     86  CB        67.7070   46.4530    1.9560 C.3    95  HIS95       0.0785
     87  CG        66.3960   46.5830    2.6540 C.ar   95  HIS95       0.0821
     88  ND1       65.1830   46.4080    2.0130 N.ar   95  HIS95      -0.2267
     89  CD2       66.1080   46.7770    3.9640 C.ar   95  HIS95       0.1154
     90  CE1       64.2090   46.5540    2.8950 C.ar   95  HIS95       0.1986
     91  NE2       64.7500   46.8080    4.0820 N.ar   95  HIS95      -0.2212
     92  N         69.0710   44.6550   -0.7050 N.am   96  GLU96      -0.1963
     93  CA        70.2240   44.3800   -1.5670 C.3    96  GLU96       0.1733
     94  C         71.0610   45.6340   -1.8220 C.2    96  GLU96       0.2616
     95  O         72.2670   45.5230   -2.0340 O.2    96  GLU96      -0.2715
     96  CB        69.7400   43.7160   -2.8830 C.3    96  GLU96       0.0429
     97  CG        70.8080   43.4850   -3.9620 C.3    96  GLU96       0.1163
     98  CD        71.9880   42.6270   -3.4920 C.2    96  GLU96       0.3649
     99  OE1       73.0910   42.7950   -4.0350 O.co2  96  GLU96      -0.2457
    100  OE2       71.8240   41.7910   -2.5780 O.co2  96  GLU96      -0.2457
    101  N         70.4450   46.8250   -1.8040 N.am   97  LYS97      -0.1963
    102  CA        71.2210   48.0470   -1.9610 C.3    97  LYS97       0.1728
    103  C         72.0930   48.3370   -0.7480 C.2    97  LYS97       0.2617
    104  O         73.0510   49.1110   -0.8470 O.2    97  LYS97      -0.2715
    105  CB        70.3440   49.2280   -2.2740 C.3    97  LYS97       0.0311
    106  CG        69.8120   49.2270   -3.7020 C.3    97  LYS97       0.0038
    107  CD        69.5630   50.6570   -4.1510 C.3    97  LYS97       0.0206
    108  CE        68.6600   50.7480   -5.3800 C.3    97  LYS97       0.1093
    109  NZ        68.9250   49.7120   -6.3620 N.3    97  LYS97      -0.1314
    110  N         71.8010   47.7060    0.3920 N.am   98  GLY98      -0.1940
    111  CA        72.6920   47.8720    1.5390 C.3    98  GLY98       0.2014
    112  C         72.4780   49.1870    2.2520 C.2    98  GLY98       0.2639
    113  O         71.4040   49.7840    2.1690 O.2    98  GLY98      -0.2714
    114  N         73.5130   49.6510    2.9590 N.am   99  SER99      -0.1949
    115  CA        73.4390   50.8910    3.7320 C.3    99  SER99       0.1924
    116  C         73.6020   52.0830    2.8350 C.2    99  SER99       0.2314
    117  O         74.1340   51.9890    1.7040 O.2    99  SER99      -0.2863
    118  CB        74.4890   50.9210    4.8380 C.3    99  SER99       0.2116
    119  OG        75.7770   51.0470    4.3120 O.3    99  SER99      -0.2180
    120  N         77.2550   52.3220    2.0640 N.3   102  ASP102     -0.1239
    121  CA        77.5760   51.4150    0.9580 C.3   102  ASP102      0.1674
    122  C         77.1910   52.0810   -0.3710 C.2   102  ASP102      0.2266
    123  O         77.9680   52.1370   -1.3220 O.2   102  ASP102     -0.2867
    124  CB        76.7480   50.0910    1.0280 C.3   102  ASP102      0.1410
    125  CG        77.0920   49.1830    2.2150 C.2   102  ASP102      0.3668
    126  OD1       78.2710   49.1890    2.5870 O.co2 102  ASP102     -0.2456
    127  OD2       76.1820   48.4180    2.7180 O.co2 102  ASP102     -0.2456
    128  N         75.7510   54.2420    7.8710 N.3   151  LYS151     -0.1231
    129  CA        75.7680   52.7650    7.9470 C.3   151  LYS151      0.1693
    130  C         74.4800   52.2010    8.5570 C.2   151  LYS151      0.2592
    131  O         74.1470   51.0670    8.3360 O.2   151  LYS151     -0.2718
    132  CB        76.9840   52.3170    8.7580 C.3   151  LYS151      0.0285
    133  CG        77.2180   50.8250    8.9010 C.3   151  LYS151      0.0035
    134  CD        77.6840   50.1560    7.6040 C.3   151  LYS151      0.0206
    135  CE        77.8560   48.6490    7.8420 C.3   151  LYS151      0.1093
    136  NZ        78.2830   47.8500    6.6480 N.3   151  LYS151     -0.1314
    137  N         73.7460   53.0110    9.3000 N.am  152  ASN152     -0.1974
    138  CA        72.5300   52.5430    9.9640 C.3   152  ASN152      0.1688
    139  C         71.2490   53.0330    9.3000 C.2   152  ASN152      0.2292
    140  O         70.1640   53.0060    9.9250 O.2   152  ASN152     -0.2864
    141  CB        72.5570   52.9210   11.4530 C.3   152  ASN152      0.1181
    142  CG        73.4590   51.9900   12.2750 C.2   152  ASN152      0.2629
    143  OD1       73.7440   50.8570   11.8620 O.2   152  ASN152     -0.2716
    144  ND2       73.9290   52.4730   13.4370 N.am  152  ASN152     -0.0877
    145  N         69.3890   51.9970    5.7530 N.3   154  LEU154     -0.1245
    146  CA        69.3760   51.0170    4.6740 C.3   154  LEU154      0.1561
    147  C         68.4450   51.5100    3.5840 C.2   154  LEU154      0.2260
    148  O         67.4610   52.1940    3.8660 O.2   154  LEU154     -0.2867
    149  CB        68.8960   49.6700    5.1940 C.3   154  LEU154      0.0270
    150  CG        69.7380   49.0770    6.3160 C.3   154  LEU154      0.0019
    151  CD1       69.3360   47.6620    6.6320 C.3   154  LEU154      0.0001
    152  CD2       71.1930   49.0790    5.9310 C.3   154  LEU154      0.0001
    153  N         67.9920   51.5210   10.8410 N.3   164  ALA164     -0.1231
    154  CA        68.3660   50.2030   11.3220 C.3   164  ALA164      0.1694
    155  C         69.2090   50.2650   12.6320 C.2   164  ALA164      0.2592
    156  O         69.8950   51.2520   12.9120 O.2   164  ALA164     -0.2718
    157  CB        69.1770   49.4600   10.2340 C.3   164  ALA164      0.0304
    158  N         69.2420   49.1360   13.3100 N.am  165  ASP165     -0.1974
    159  CA        70.1450   48.8390   14.4120 C.3   165  ASP165      0.1709
    160  C         69.7500   49.5600   15.6940 C.2   165  ASP165      0.2293
    161  O         70.1670   50.6880   15.9410 O.2   165  ASP165     -0.2864
    162  CB        71.6260   49.1230   14.1260 C.3   165  ASP165      0.1436
    163  CG        72.5350   48.3070   15.0800 C.2   165  ASP165      0.3671
    164  OD1       72.1580   48.1500   16.2840 O.co2 165  ASP165     -0.2456
    165  OD2       73.5480   47.7480   14.6080 O.co2 165  ASP165     -0.2456
@<TRIPOS>BOND
     1   109   108    1
     2   108   107    1
     3   107   106    1
     4    99    98   ar
     5    97    98    1
     6    97    96    1
     7   106   105    1
     8    98   100   ar
     9    96    93    1
    10   105   102    1
    11    95    94    2
    12   102   101    1
    13   102   103    1
    14    94   101   am
    15    94    93    1
    16    93    92    1
    17   123   122    2
    18   104   103    2
    19   103   110   am
    20    92    84   am
    21   122   121    1
    22     9     8    1
    23   110   111    1
    24    80    78   ar
    25    80    81   ar
    26    84    85    2
    27    84    83    1
    28   121   124    1
    29   121   120    1
    30   124   125    1
    31    78    76   ar
    32    81    79   ar
    33     8     7    1
    34    83    86    1
    35    83    82    1
    36   111   112    1
    37   117   116    2
    38    74    73    2
    39    86    87    1
    40    88    87   ar
    41    88    90   ar
    42   113   112    2
    43   125   126   ar
    44   125   127   ar
    45   112   114   am
    46     7     6    1
    47    82    73   am
    48    76    77   ar
    49    76    75    1
    50    79    77   ar
    51    73    72    1
    52    87    89   ar
    53   116   115    1
    54    90    91   ar
    55   114   115    1
    56    75    72    1
    57   147   148    2
    58   147   146    1
    59   115   118    1
    60    72    71    1
    61     6     5    1
    62    89    91   ar
    63   119   118    1
    64    71    68   am
    65   146   149    1
    66   146   145    1
    67     5     2    1
    68     2     1    1
    69     2     3    1
    70   149   150    1
    71     4     3    2
    72    68    67    1
    73    68    69    2
    74    70    67    1
    75     3    10   am
    76   152   150    1
    77    67    66    1
    78   150   151    1
    79    37    38    1
    80   136   135    1
    81    10    11    1
    82    38    41    1
    83    38    39    1
    84   134   135    1
    85   134   133    1
    86    66    61   am
    87    57    56    1
    88    62    61    2
    89    14    11    1
    90   128   129    1
    91   129   130    1
    92   129   132    1
    93    33    32    2
    94    11    12    1
    95    61    60    1
    96   131   130    2
    97    35    34    1
    98   130   137   am
    99    39    40    2
   100   132   133    1
   101    32    31    1
   102    52    55    1
   103    52    51    1
   104    52    53    1
   105    56    55    1
   106    56    58    1
   107   137   138    1
   108   139   140    2
   109   139   138    1
   110    64    63    1
   111    34    31    1
   112    34    36    1
   113    12    13    2
   114    12    15   am
   115    53    54    2
   116    60    63    1
   117    60    59    1
   118   138   141    1
   119    31    30    1
   120    63    65    1
   121   157   154    1
   122    15    16    1
   123   153   154    1
   124   154   155    1
   125   141   142    1
   126    26    17   am
   127    26    27    1
   128    16    17    1
   129    16    19    1
   130   143   142    2
   131    17    18    2
   132    42    43    1
   133    27    28    1
   134   142   144   am
   135    19    20    1
   136   155   156    2
   137   155   158   am
   138    47    48    1
   139    47    46    1
   140    43    46    1
   141    43    44    1
   142   158   159    1
   143    25    23    1
   144    48    49    1
   145    28    29    2
   146    22    23    2
   147    22    21    1
   148    20    21    1
   149    23    24    1
   150    49    50    1
   151    44    45    2
   152   162   159    1
   153   162   163    1
   154   159   160    1
   155   165   163   ar
   156   163   164   ar
   157   160   161    2
