@<TRIPOS>MOLECULE
tmp/3soiB00.pdb
 95 87 0 0 0
SMALL
GASTEIGER

@<TRIPOS>ATOM
      1  N         -7.8290   -7.9430   10.8280 N.3    39  SER39      -0.1217
      2  CA        -6.7420   -6.9890   10.6540 C.3    39  SER39       0.1889
      3  C         -5.9770   -6.6020   11.9170 C.2    39  SER39       0.2288
      4  O         -4.9550   -5.9250   11.8310 O.2    39  SER39      -0.2866
      5  CB        -7.2510   -5.7520    9.9300 C.3    39  SER39       0.2089
      6  OG        -7.6100   -6.0980    8.6140 O.3    39  SER39      -0.2183
      7  N         -2.3710   -7.1610   11.8090 N.3    42  LYS42      -0.1245
      8  CA        -1.4720   -6.1760   11.2150 C.3    42  LYS42       0.1561
      9  C         -0.5860   -5.5090   12.2690 C.2    42  LYS42       0.2260
     10  O          0.5740   -5.2260   12.0080 O.2    42  LYS42      -0.2867
     11  CB        -2.2640   -5.1390   10.4120 C.3    42  LYS42       0.0271
     12  CG        -2.9180   -5.7490    9.1860 C.3    42  LYS42       0.0035
     13  CD        -3.8530   -4.8070    8.4420 C.3    42  LYS42       0.0206
     14  CE        -4.3270   -5.4760    7.1620 C.3    42  LYS42       0.1093
     15  NZ        -5.7390   -5.1990    6.8040 N.3    42  LYS42      -0.1314
     16  N         -8.8080   -4.2460   -0.4790 N.3    72  TYR72      -0.1241
     17  CA        -8.8610   -3.0550    0.3510 C.3    72  TYR72       0.1605
     18  C         -7.4550   -2.4790    0.4860 C.2    72  TYR72       0.2264
     19  O         -6.7340   -2.7730    1.4500 O.2    72  TYR72      -0.2867
     20  CB        -9.4470   -3.4240    1.7170 C.3    72  TYR72       0.0534
     21  CG        -9.7420   -2.2560    2.6330 C.ar   72  TYR72      -0.0201
     22  CD1      -10.9790   -1.6150    2.5970 C.ar   72  TYR72      -0.0009
     23  CD2       -8.7930   -1.8110    3.5570 C.ar   72  TYR72      -0.0009
     24  CE1      -11.2590   -0.5510    3.4420 C.ar   72  TYR72       0.0417
     25  CE2       -9.0620   -0.7480    4.4020 C.ar   72  TYR72       0.0417
     26  CZ       -10.2960   -0.1240    4.3430 C.ar   72  TYR72       0.1957
     27  OH       -10.5690    0.9300    5.1830 O.3    72  TYR72      -0.2866
     28  N         -5.3710    0.1010    7.5150 N.3    97  SER97      -0.1217
     29  CA        -5.6720   -1.3240    7.4210 C.3    97  SER97       0.1889
     30  C         -5.4780   -1.8100    5.9860 C.2    97  SER97       0.2288
     31  O         -6.2090   -2.6760    5.4840 O.2    97  SER97      -0.2866
     32  CB        -7.0790   -1.6180    7.9400 C.3    97  SER97       0.2089
     33  OG        -7.1720   -2.9710    8.3240 O.3    97  SER97      -0.2183
     34  N         -4.5120   -3.7830    3.1060 N.3    99  ASN99      -0.1240
     35  CA        -4.3390   -5.2260    2.9740 C.3    99  ASN99       0.1653
     36  C         -3.0640   -5.6180    2.2450 C.2    99  ASN99       0.2266
     37  O         -2.3360   -6.5040    2.6900 O.2    99  ASN99      -0.2867
     38  CB        -5.5470   -5.8490    2.2730 C.3    99  ASN99       0.1155
     39  CG        -6.6900   -6.1310    3.2240 C.2    99  ASN99       0.2627
     40  OD1       -6.5090   -6.1370    4.4370 O.2    99  ASN99      -0.2716
     41  ND2       -7.8720   -6.3810    2.6760 N.am   99  ASN99      -0.0877
     42  N         -9.6130  -13.5880    6.4110 N.3   137  ASN137     -0.1240
     43  CA       -10.9190  -13.2120    6.9290 C.3   137  ASN137      0.1653
     44  C        -11.9370  -14.3390    6.8190 C.2   137  ASN137      0.2266
     45  O        -12.9580  -14.3220    7.5060 O.2   137  ASN137     -0.2867
     46  CB       -11.4210  -11.9530    6.2280 C.3   137  ASN137      0.1155
     47  CG       -10.5580  -10.7500    6.5290 C.2   137  ASN137      0.2627
     48  OD1      -10.1080  -10.5730    7.6600 O.2   137  ASN137     -0.2716
     49  ND2      -10.3090   -9.9230    5.5200 N.am  137  ASN137     -0.0877
     50  N         -8.9970    4.2140   11.2930 N.3   183  THR183     -0.1218
     51  CA       -10.1100    3.2840   11.0710 C.3   183  THR183      0.1862
     52  C        -10.9010    2.9450   12.3370 C.2   183  THR183      0.2287
     53  O        -11.9000    2.2340   12.2730 O.2   183  THR183     -0.2866
     54  CB        -9.6200    1.9540   10.4670 C.3   183  THR183      0.1770
     55  OG1       -8.8900    1.2170   11.4620 O.3   183  THR183     -0.2211
     56  CG2       -8.7390    2.1970    9.2330 C.3   183  THR183      0.0375
     57  N         -8.0030   -2.0490   14.2390 N.3   202  THR202     -0.1203
     58  CA        -9.3070   -2.6380   14.0220 C.3   202  THR202      0.1994
     59  C         -9.2260   -3.8820   13.1530 C.2   202  THR202      0.2618
     60  O         -8.2070   -4.1530   12.5120 O.2   202  THR202     -0.2717
     61  CB       -10.2500   -1.6430   13.3250 C.3   202  THR202      0.1784
     62  OG1       -9.6630   -1.2270   12.0880 O.3   202  THR202     -0.2211
     63  CG2      -10.4880   -0.4260   14.2070 C.3   202  THR202      0.0376
     64  N        -10.3150   -4.6380   13.1370 N.am  203  GLY203     -0.1942
     65  CA       -10.3990   -5.8120   12.2990 C.3   203  GLY203      0.2014
     66  C        -11.8330   -6.1280   11.9500 C.2   203  GLY203      0.2638
     67  O        -12.7380   -5.8940   12.7460 O.2   203  GLY203     -0.2714
     68  N        -12.0320   -6.6470   10.7450 N.am  204  ALA204     -0.1977
     69  CA       -13.3340   -7.1610   10.3210 C.3   204  ALA204      0.1597
     70  C        -13.1280   -8.4040    9.4790 C.2   204  ALA204      0.2287
     71  O        -12.3020   -8.4300    8.5680 O.2   204  ALA204     -0.2864
     72  CB       -14.1270   -6.1140    9.5470 C.3   204  ALA204      0.0319
     73  N        -15.8840   -8.4550   14.2000 N.3   210  ARG210     -0.1245
     74  CA       -15.5220   -7.0610   14.3280 C.3   210  ARG210      0.1563
     75  C        -14.6510   -6.9420   15.5580 C.2   210  ARG210      0.2260
     76  O        -15.1210   -7.1620   16.6720 O.2   210  ARG210     -0.2867
     77  CB       -16.7750   -6.1990   14.4760 C.3   210  ARG210      0.0307
     78  CG       -16.5080   -4.7050   14.4750 C.3   210  ARG210      0.0489
     79  CD       -15.6040   -4.3310   13.3090 C.3   210  ARG210      0.2205
     80  NE       -15.5550   -2.8930   13.0640 N.pl3 210  ARG210     -0.0865
     81  CZ       -14.6820   -2.3030   12.2530 C.cat 210  ARG210      0.5346
     82  NH1      -13.7620   -3.0220   11.6210 N.pl3 210  ARG210      0.1354
     83  NH2      -14.7210   -0.9870   12.0830 N.pl3 210  ARG210      0.1354
     84  N        -21.7760   -6.3250   11.1050 N.3   239  TYR239     -0.1241
     85  CA       -21.3820   -5.9830   12.4580 C.3   239  TYR239      0.1605
     86  C        -21.8480   -4.5890   12.8220 C.2   239  TYR239      0.2264
     87  O        -22.2720   -3.8030   11.9630 O.2   239  TYR239     -0.2867
     88  CB       -19.8750   -6.1290   12.6730 C.3   239  TYR239      0.0534
     89  CG       -19.0340   -5.2740   11.7600 C.ar  239  TYR239     -0.0201
     90  CD1      -18.9220   -3.8980   11.9640 C.ar  239  TYR239     -0.0009
     91  CD2      -18.3420   -5.8410   10.6980 C.ar  239  TYR239     -0.0009
     92  CE1      -18.1540   -3.1110   11.1230 C.ar  239  TYR239      0.0417
     93  CE2      -17.5680   -5.0660    9.8560 C.ar  239  TYR239      0.0417
     94  CZ       -17.4780   -3.7020   10.0770 C.ar  239  TYR239      0.1957
     95  OH       -16.7180   -2.9300    9.2430 O.3   239  TYR239     -0.2866
@<TRIPOS>BOND
     1    16    17    1
     2    17    18    1
     3    17    20    1
     4    18    19    2
     5    20    21    1
     6    36    37    2
     7    36    35    1
     8    38    35    1
     9    38    39    1
    10    22    21   ar
    11    22    24   ar
    12    21    23   ar
    13    41    39   am
    14    35    34    1
    15    39    40    2
    16    24    26   ar
    17    23    25   ar
    18    26    25   ar
    19    26    27    1
    20    31    30    2
    21    49    47   am
    22    30    29    1
    23    46    47    1
    24    46    43    1
    25    42    43    1
    26    47    48    2
    27    15    14    1
    28    44    43    1
    29    44    45    2
    30    14    13    1
    31    29    28    1
    32    29    32    1
    33    32    33    1
    34    13    12    1
    35    71    70    2
    36     6     5    1
    37    12    11    1
    38    56    54    1
    39    95    94    1
    40    70    69    1
    41    72    69    1
    42    93    94   ar
    43    93    91   ar
    44     5     2    1
    45    94    92   ar
    46    69    68    1
    47    11     8    1
    48    54    51    1
    49    54    55    1
    50     2     1    1
    51     2     3    1
    52    91    89   ar
    53    68    66   am
    54    51    50    1
    55    51    52    1
    56    84    85    1
    57    92    90   ar
    58     8     7    1
    59     8     9    1
    60    82    81    1
    61    89    90   ar
    62    89    88    1
    63     4     3    2
    64    66    65    1
    65    66    67    2
    66    87    86    2
    67    10     9    2
    68    83    81    1
    69    62    61    1
    70    81    80    2
    71    53    52    2
    72    65    64    1
    73    85    88    1
    74    85    86    1
    75    60    59    2
    76    80    79    1
    77    64    59   am
    78    59    58    1
    79    79    78    1
    80    61    58    1
    81    61    63    1
    82    58    57    1
    83    73    74    1
    84    74    77    1
    85    74    75    1
    86    78    77    1
    87    75    76    2
