@<TRIPOS>MOLECULE
tmp/3somG01.pdb
 94 95 0 0 0
SMALL
GASTEIGER

@<TRIPOS>ATOM
      1  N        101.9600   31.2440  296.2250 N.3    28  TRP28      -0.1241
      2  CA       102.8500   30.5050  295.3240 C.3    28  TRP28       0.1605
      3  C        102.0570   29.7880  294.2640 C.2    28  TRP28       0.2264
      4  O        102.4560   29.7520  293.1010 O.2    28  TRP28      -0.2867
      5  CB       103.7020   29.5060  296.1050 C.3    28  TRP28       0.0550
      6  CG       104.5040   30.0960  297.2260 C.ar   28  TRP28       0.0003
      7  CD1      104.7880   31.4160  297.4370 C.ar   28  TRP28       0.0946
      8  CD2      105.1850   29.3720  298.2550 C.ar   28  TRP28       0.0152
      9  NE1      105.5350   31.5570  298.5750 N.ar   28  TRP28      -0.2442
     10  CE2      105.8070   30.3220  299.0950 C.ar   28  TRP28       0.0810
     11  CE3      105.3200   28.0050  298.5620 C.ar   28  TRP28       0.0012
     12  CZ2      106.5430   29.9530  300.2140 C.ar   28  TRP28       0.0191
     13  CZ3      106.0370   27.6430  299.6840 C.ar   28  TRP28       0.0001
     14  CH2      106.6140   28.6090  300.5130 C.ar   28  TRP28       0.0015
     15  N        100.0660   32.7220  292.1770 N.3    31  GLU31      -0.1182
     16  CA       100.9270   33.5270  291.2950 C.3    31  GLU31       0.1915
     17  C        101.2860   32.8150  289.9880 C.2    31  GLU31       0.2634
     18  O        101.5740   33.5100  289.0140 O.2    31  GLU31      -0.2714
     19  CB       102.1960   34.0660  291.9900 C.2    31  GLU31       0.0085
     20  CG       103.3240   33.0740  292.2290 C.2    31  GLU31       0.0835
     21  CD       104.3470   33.4940  293.2680 C.2    31  GLU31       0.3877
     22  OE1      104.4680   34.7100  293.5400 O.co2  31  GLU31      -0.2406
     23  OE2      105.0350   32.6000  293.8100 O.co2  31  GLU31      -0.2406
     24  N        101.2130   31.4620  289.9310 N.am   32  LEU32      -0.1977
     25  CA       101.5350   30.7090  288.7060 C.3    32  LEU32       0.1596
     26  C        100.3370   30.4520  287.8260 C.2    32  LEU32       0.2287
     27  O        100.4910   29.8290  286.7800 O.2    32  LEU32      -0.2864
     28  CB       102.1730   29.3570  289.0610 C.3    32  LEU32       0.0297
     29  CG       103.5470   29.4110  289.7200 C.3    32  LEU32       0.0022
     30  CD1      104.0260   28.0430  290.0500 C.3    32  LEU32       0.0001
     31  CD2      104.5630   30.1520  288.8540 C.3    32  LEU32       0.0001
     32  N        104.1830   21.0430  292.9620 N.3   118  HIS118     -0.1226
     33  CA       105.4110   21.7030  292.5480 C.3   118  HIS118      0.1752
     34  C        105.7990   22.8020  293.5590 C.2   118  HIS118      0.2595
     35  O        106.9110   22.7680  294.0810 O.2   118  HIS118     -0.2718
     36  CB       105.2400   22.3010  291.1370 C.3   118  HIS118      0.0759
     37  CG       106.5200   22.7970  290.5370 C.ar  118  HIS118      0.0818
     38  ND1      107.3170   21.9770  289.7680 N.ar  118  HIS118     -0.2268
     39  CD2      107.1050   24.0110  290.6240 C.ar  118  HIS118      0.1154
     40  CE1      108.3400   22.7210  289.3860 C.ar  118  HIS118      0.1986
     41  NE2      108.2550   23.9470  289.8790 N.ar  118  HIS118     -0.2212
     42  N        104.8760   23.7510  293.8540 N.am  119  VAL119     -0.1980
     43  CA       105.1280   24.8870  294.7710 C.3   119  VAL119      0.1595
     44  C        105.3030   24.4300  296.2310 C.2   119  VAL119      0.2287
     45  O        105.8510   25.1850  297.0260 O.2   119  VAL119     -0.2864
     46  CB       104.0750   26.0260  294.6630 C.3   119  VAL119      0.0276
     47  CG1      104.0430   26.6010  293.2550 C.3   119  VAL119      0.0022
     48  CG2      102.6730   25.5880  295.1280 C.3   119  VAL119      0.0022
     49  N        108.4890   17.6570  291.2940 N.3   124  TYR124     -0.1241
     50  CA       108.7220   18.5600  290.1710 C.3   124  TYR124      0.1605
     51  C        107.6870   18.2830  289.0730 C.2   124  TYR124      0.2264
     52  O        107.5450   17.1330  288.6140 O.2   124  TYR124     -0.2867
     53  CB       110.1640   18.4270  289.6310 C.3   124  TYR124      0.0534
     54  CG       110.5980   19.5930  288.7690 C.ar  124  TYR124     -0.0201
     55  CD1      111.5200   20.5230  289.2370 C.ar  124  TYR124     -0.0009
     56  CD2      110.0670   19.7820  287.4940 C.ar  124  TYR124     -0.0009
     57  CE1      111.9200   21.6000  288.4470 C.ar  124  TYR124      0.0417
     58  CE2      110.4610   20.8490  286.6980 C.ar  124  TYR124      0.0417
     59  CZ       111.3950   21.7530  287.1770 C.ar  124  TYR124      0.1957
     60  OH       111.7600   22.8150  286.3830 O.3   124  TYR124     -0.2866
     61  N        110.1160   29.4050  300.4460 N.3   172  PRO172     -0.2102
     62  CA       109.8320   28.4930  299.3220 C.3   172  PRO172      0.1504
     63  C        110.9170   27.4380  299.1810 C.2   172  PRO172      0.2576
     64  O        112.1040   27.7620  299.1660 O.2   172  PRO172     -0.2718
     65  CB       109.7560   29.4150  298.0960 C.3   172  PRO172      0.0282
     66  CG       110.3950   30.6670  298.4970 C.3   172  PRO172      0.0208
     67  CD       110.4040   30.7810  299.9830 C.3   172  PRO172      0.0893
     68  N        110.4950   26.1720  299.1620 N.am  173  ARG173     -0.1966
     69  CA       111.3460   25.0010  298.9920 C.3   173  ARG173      0.1729
     70  C        111.0750   24.4500  297.5900 C.2   173  ARG173      0.2616
     71  O        110.0090   23.8970  297.3330 O.2   173  ARG173     -0.2715
     72  CB       111.1030   23.9470  300.0970 C.3   173  ARG173      0.0348
     73  CG       111.4060   24.4510  301.5020 C.3   173  ARG173      0.0492
     74  CD       111.0050   23.4620  302.5870 C.3   173  ARG173      0.2205
     75  NE       111.8660   22.2760  302.6070 N.pl3 173  ARG173     -0.0865
     76  CZ       112.6710   21.9430  303.6100 C.cat 173  ARG173      0.5346
     77  NH1      112.7440   22.7060  304.6970 N.pl3 173  ARG173      0.1354
     78  NH2      113.4190   20.8490  303.5320 N.pl3 173  ARG173      0.1354
     79  N        112.0040   24.6810  296.6690 N.am  174  LYS174     -0.1964
     80  CA       111.9140   24.2470  295.2860 C.3   174  LYS174      0.1713
     81  C        111.9010   22.7050  295.1700 C.2   174  LYS174      0.2458
     82  O        112.6260   22.0200  295.8980 O.2   174  LYS174     -0.2730
     83  CB       113.0700   24.8210  294.4500 C.3   174  LYS174      0.0311
     84  CG       112.9750   26.3020  294.1590 C.3   174  LYS174      0.0038
     85  CD       113.8980   26.6660  293.0090 C.3   174  LYS174      0.0206
     86  CE       114.1570   28.1460  292.9280 C.3   174  LYS174      0.1093
     87  NZ       115.0290   28.4790  291.7760 N.3   174  LYS174     -0.1314
     88  N        111.0690   22.1460  294.2570 N.am  175  PRO175     -0.2727
     89  CA       111.0770   20.6950  294.0590 C.3   175  PRO175      0.1402
     90  C        112.3720   20.2450  293.3650 C.2   175  PRO175      0.2269
     91  O        112.9750   21.0120  292.6190 O.2   175  PRO175     -0.2865
     92  CB       109.8400   20.4620  293.1920 C.3   175  PRO175      0.0296
     93  CG       109.6540   21.6980  292.4410 C.3   175  PRO175      0.0237
     94  CD       110.1350   22.8090  293.3150 C.3   175  PRO175      0.0939
@<TRIPOS>BOND
     1    60    59    1
     2    58    59   ar
     3    58    56   ar
     4    27    26    2
     5    59    57   ar
     6    56    54   ar
     7    26    25    1
     8    57    55   ar
     9    52    51    2
    10    25    28    1
    11    25    24    1
    12    54    55   ar
    13    54    53    1
    14    31    29    1
    15    18    17    2
    16    28    29    1
    17    51    50    1
    18    40    38   ar
    19    40    41   ar
    20    53    50    1
    21    29    30    1
    22    38    37   ar
    23    41    39   ar
    24    24    17   am
    25    17    16    1
    26    50    49    1
    27    37    39   ar
    28    37    36    1
    29    36    33    1
    30    16    19    1
    31    16    15    1
    32    87    86    1
    33    19    20    2
    34    20    21    1
    35    93    92    1
    36    93    94    1
    37    33    32    1
    38    33    34    1
    39    91    90    2
    40    86    85    1
    41    85    84    1
    42     4     3    2
    43    92    89    1
    44    47    46    1
    45    21    22   ar
    46    21    23   ar
    47    94    88    1
    48    90    89    1
    49    34    42   am
    50    34    35    2
    51    42    43    1
    52    89    88    1
    53    84    83    1
    54    88    81   am
    55     3     2    1
    56    83    80    1
    57    46    43    1
    58    46    48    1
    59    43    44    1
    60    81    80    1
    61    81    82    2
    62    80    79    1
    63     2     5    1
    64     2     1    1
    65     5     6    1
    66    44    45    2
    67    79    70   am
    68     6     7   ar
    69     6     8   ar
    70    71    70    2
    71     7     9   ar
    72    70    69    1
    73    65    66    1
    74    65    62    1
    75     8    11   ar
    76     8    10   ar
    77    66    67    1
    78    11    13   ar
    79     9    10   ar
    80    69    68    1
    81    69    72    1
    82    10    12   ar
    83    68    63   am
    84    64    63    2
    85    63    62    1
    86    62    61    1
    87    13    14   ar
    88    67    61    1
    89    72    73    1
    90    12    14   ar
    91    73    74    1
    92    74    75    1
    93    75    76    2
    94    78    76    1
    95    76    77    1
