@<TRIPOS>MOLECULE
tmp/3somN01.pdb
 122 119 0 0 0
SMALL
GASTEIGER

@<TRIPOS>ATOM
      1  N         79.2220   -3.9380  407.8380 N.3    74  VAL74      -0.1231
      2  CA        78.3190   -5.1080  407.8780 C.3    74  VAL74       0.1692
      3  C         76.9510   -4.7110  407.2960 C.2    74  VAL74       0.2592
      4  O         76.4320   -5.4240  406.4410 O.2    74  VAL74      -0.2718
      5  CB        78.1850   -5.7220  409.2990 C.3    74  VAL74       0.0266
      6  CG1       77.0770   -6.7670  409.3790 C.3    74  VAL74       0.0020
      7  CG2       79.5020   -6.3170  409.7470 C.3    74  VAL74       0.0020
      8  N         76.4070   -3.5510  407.7220 N.am   75  ASP75      -0.1974
      9  CA        75.1300   -3.0170  407.2530 C.3    75  ASP75       0.1709
     10  C         75.1800   -2.7190  405.7500 C.2    75  ASP75       0.2293
     11  O         74.1840   -2.9460  405.0720 O.2    75  ASP75      -0.2864
     12  CB        74.7380   -1.7690  408.0660 C.3    75  ASP75       0.1436
     13  CG        74.3900   -2.0460  409.5210 C.2    75  ASP75       0.3671
     14  OD1       74.1700   -3.2270  409.8640 O.co2  75  ASP75      -0.2456
     15  OD2       74.2940   -1.0680  410.3120 O.co2  75  ASP75      -0.2456
     16  N         67.2460   -4.7960  409.6520 N.3    99  ASP99      -0.1239
     17  CA        67.1290   -4.7740  411.1210 C.3    99  ASP99       0.1674
     18  C         67.4970   -3.4090  411.7640 C.2    99  ASP99       0.2266
     19  O         66.9340   -3.0380  412.8050 O.2    99  ASP99      -0.2867
     20  CB        68.0400   -5.8510  411.7360 C.3    99  ASP99       0.1410
     21  CG        69.5340   -5.6100  411.5220 C.2    99  ASP99       0.3668
     22  OD1       69.9890   -5.6570  410.3500 O.co2  99  ASP99      -0.2456
     23  OD2       70.2400   -5.3110  412.5180 O.co2  99  ASP99      -0.2456
     24  N         74.1880  -16.0170  415.4600 N.3   153  PHE153     -0.1227
     25  CA        73.5040  -15.5320  414.2660 C.3   153  PHE153      0.1736
     26  C         73.0080  -14.1280  414.5530 C.2   153  PHE153      0.2595
     27  O         73.0630  -13.6720  415.6970 O.2   153  PHE153     -0.2718
     28  CB        72.3340  -16.4810  413.8910 C.3   153  PHE153      0.0547
     29  CG        71.0710  -16.2930  414.7050 C.ar  153  PHE153     -0.0202
     30  CD1       69.9560  -15.6730  414.1530 C.ar  153  PHE153     -0.0042
     31  CD2       71.0020  -16.7220  416.0290 C.ar  153  PHE153     -0.0042
     32  CE1       68.8000  -15.4730  414.9130 C.ar  153  PHE153     -0.0003
     33  CE2       69.8460  -16.5260  416.7820 C.ar  153  PHE153     -0.0003
     34  CZ        68.7510  -15.9120  416.2170 C.ar  153  PHE153     -0.0000
     35  N         72.5170  -13.4430  413.5190 N.am  154  ALA154     -0.1966
     36  CA        71.9070  -12.1270  413.6360 C.3   154  ALA154      0.1728
     37  C         70.7560  -12.0700  412.6620 C.2   154  ALA154      0.2616
     38  O         70.8060  -12.7510  411.6410 O.2   154  ALA154     -0.2715
     39  CB        72.9310  -11.0390  413.3330 C.3   154  ALA154      0.0334
     40  N         69.6970  -11.3150  412.9920 N.am  155  ILE155     -0.1963
     41  CA        68.5720  -11.0960  412.0910 C.3   155  ILE155      0.1727
     42  C         68.9700   -9.8980  411.2330 C.2   155  ILE155      0.2616
     43  O         69.4270   -8.8790  411.7670 O.2   155  ILE155     -0.2715
     44  CB        67.2240  -10.9270  412.8310 C.3   155  ILE155      0.0290
     45  CG1       67.0080  -12.0750  413.8640 C.3   155  ILE155      0.0022
     46  CG2       66.0840  -10.8890  411.8210 C.3   155  ILE155      0.0023
     47  CD1       66.0750  -11.7950  414.9900 C.3   155  ILE155      0.0001
     48  N         68.8900  -10.0330  409.8960 N.am  156  ARG156     -0.1977
     49  CA        69.3920   -8.9390  409.0800 C.3   156  ARG156      0.1597
     50  C         68.3030   -8.2430  408.2700 C.2   156  ARG156      0.2287
     51  O         68.5550   -7.1650  407.7420 O.2   156  ARG156     -0.2864
     52  CB        70.5640   -9.4020  408.1950 C.3   156  ARG156      0.0334
     53  CG        71.5530  -10.2580  408.9640 C.3   156  ARG156      0.0492
     54  CD        72.9800   -9.7430  409.0990 C.3   156  ARG156      0.2205
     55  NE        73.1430   -8.7170  410.1080 N.pl3 156  ARG156     -0.0865
     56  CZ        74.1670   -8.5990  410.9470 C.cat 156  ARG156      0.5346
     57  NH1       75.1090   -9.5300  410.9950 N.pl3 156  ARG156      0.1354
     58  NH2       74.2260   -7.5770  411.7860 N.pl3 156  ARG156      0.1354
     59  N         75.6010  -16.4920  426.4400 N.3   200  TYR200     -0.1227
     60  CA        74.1650  -16.7380  426.1850 C.3   200  TYR200      0.1736
     61  C         73.9400  -17.4480  424.8350 C.2   200  TYR200      0.2595
     62  O         72.9180  -18.1030  424.6480 O.2   200  TYR200     -0.2718
     63  CB        73.3550  -15.4120  426.2300 C.3   200  TYR200      0.0548
     64  CG        73.3800  -14.5980  424.9470 C.ar  200  TYR200     -0.0200
     65  CD1       72.4440  -14.8170  423.9380 C.ar  200  TYR200     -0.0009
     66  CD2       74.3360  -13.6020  424.7470 C.ar  200  TYR200     -0.0009
     67  CE1       72.4930  -14.1110  422.7340 C.ar  200  TYR200      0.0417
     68  CE2       74.3630  -12.8510  423.5680 C.ar  200  TYR200      0.0417
     69  CZ        73.4350  -13.1110  422.5640 C.ar  200  TYR200      0.1957
     70  OH        73.4250  -12.3890  421.3950 O.3   200  TYR200     -0.2866
     71  N         74.8750  -17.2620  423.8820 N.am  201  ARG201     -0.1980
     72  CA        74.7870  -17.8010  422.5270 C.3   201  ARG201      0.1597
     73  C         74.9580  -19.3280  422.4990 C.2   201  ARG201      0.2287
     74  O         74.5720  -19.9610  421.5210 O.2   201  ARG201     -0.2864
     75  CB        75.8080  -17.1210  421.6120 C.3   201  ARG201      0.0334
     76  CG        75.6270  -15.6210  421.4820 C.3   201  ARG201      0.0492
     77  CD        76.6520  -15.0330  420.5550 C.3   201  ARG201      0.2205
     78  NE        76.6030  -13.5720  420.5270 N.pl3 201  ARG201     -0.0865
     79  CZ        76.2300  -12.8460  419.4820 C.cat 201  ARG201      0.5346
     80  NH1       75.8500  -13.4360  418.3590 N.pl3 201  ARG201      0.1354
     81  NH2       76.2380  -11.5230  419.5480 N.pl3 201  ARG201      0.1354
     82  N         80.9570  -18.1390  415.9030 N.3   210  TYR210     -0.1241
     83  CA        81.7340  -17.1160  415.2120 C.3   210  TYR210      0.1605
     84  C         83.2010  -17.4310  415.4690 C.2   210  TYR210      0.2264
     85  O         83.5410  -17.8310  416.5880 O.2   210  TYR210     -0.2867
     86  CB        81.4110  -15.7080  415.7530 C.3   210  TYR210      0.0534
     87  CG        80.0580  -15.1170  415.4150 C.ar  210  TYR210     -0.0201
     88  CD1       79.1650  -15.7870  414.5780 C.ar  210  TYR210     -0.0009
     89  CD2       79.6920  -13.8590  415.8870 C.ar  210  TYR210     -0.0009
     90  CE1       77.9280  -15.2310  414.2490 C.ar  210  TYR210      0.0417
     91  CE2       78.4610  -13.2940  415.5650 C.ar  210  TYR210      0.0417
     92  CZ        77.5830  -13.9810  414.7440 C.ar  210  TYR210      0.1957
     93  OH        76.3880  -13.4000  414.4090 O.3   210  TYR210     -0.2866
     94  N         83.3600   -8.0540  416.0190 N.3   218  PHE218     -0.1241
     95  CA        82.0900   -7.6380  416.6200 C.3   218  PHE218      0.1605
     96  C         82.2460   -7.0800  418.0440 C.2   218  PHE218      0.2264
     97  O         81.4170   -6.2630  418.4350 O.2   218  PHE218     -0.2867
     98  CB        81.0600   -8.7760  416.5850 C.3   218  PHE218      0.0534
     99  CG        80.4530   -8.9750  415.2180 C.ar  218  PHE218     -0.0203
    100  CD1       79.9370   -7.8970  414.5000 C.ar  218  PHE218     -0.0042
    101  CD2       80.3760  -10.2430  414.6520 C.ar  218  PHE218     -0.0042
    102  CE1       79.3780   -8.0850  413.2340 C.ar  218  PHE218     -0.0003
    103  CE2       79.8000  -10.4340  413.3900 C.ar  218  PHE218     -0.0003
    104  CZ        79.3060   -9.3550  412.6900 C.ar  218  PHE218     -0.0000
    105  N         81.0020   -0.2920  416.8630 N.3   222  PRO222     -0.2116
    106  CA        80.8230    0.0860  415.4500 C.3   222  PRO222      0.1372
    107  C         81.5850    1.3350  415.0000 C.2   222  PRO222      0.2244
    108  O         82.1230    1.3330  413.8880 O.2   222  PRO222     -0.2868
    109  CB        79.3080    0.2900  415.3370 C.3   222  PRO222      0.0268
    110  CG        78.7460   -0.6800  416.3180 C.3   222  PRO222      0.0207
    111  CD        79.7090   -0.6590  417.4820 C.3   222  PRO222      0.0892
    112  N         85.1610    0.3170  413.9880 N.3   225  ARG225     -0.1245
    113  CA        85.3370   -0.8420  413.1160 C.3   225  ARG225      0.1563
    114  C         86.1410   -0.5890  411.8420 C.2   225  ARG225      0.2260
    115  O         86.9390   -1.4580  411.4720 O.2   225  ARG225     -0.2867
    116  CB        83.9950   -1.4750  412.7840 C.3   225  ARG225      0.0307
    117  CG        83.6020   -2.4060  413.9040 C.3   225  ARG225      0.0489
    118  CD        82.2150   -2.9610  413.7390 C.3   225  ARG225      0.2205
    119  NE        81.7290   -3.4600  415.0180 N.pl3 225  ARG225     -0.0865
    120  CZ        80.5210   -3.9660  415.2230 C.cat 225  ARG225      0.5346
    121  NH1       79.6520   -4.0630  414.2220 N.pl3 225  ARG225      0.1354
    122  NH2       80.1680   -4.3840  416.4320 N.pl3 225  ARG225      0.1354
@<TRIPOS>BOND
     1    11    10    2
     2    10     9    1
     3     4     3    2
     4     9     8    1
     5     9    12    1
     6     3     8   am
     7     3     2    1
     8    51    50    2
     9     1     2    1
    10     2     5    1
    11    12    13    1
    12    52    53    1
    13    52    49    1
    14    50    49    1
    15    53    54    1
    16    49    48    1
    17    54    55    1
    18     5     6    1
    19     5     7    1
    20    13    14   ar
    21    13    15   ar
    22    16    17    1
    23    48    42   am
    24    55    56    2
    25    22    21   ar
    26    56    57    1
    27    56    58    1
    28    17    20    1
    29    17    18    1
    30    42    43    2
    31    42    41    1
    32   115   114    2
    33    21    20    1
    34    21    23   ar
    35    38    37    2
    36    18    19    2
    37    46    44    1
    38   114   113    1
    39    41    44    1
    40    41    40    1
    41    37    40   am
    42    37    36    1
    43   104   102   ar
    44   104   103   ar
    45   116   113    1
    46   116   117    1
    47    44    45    1
    48   113   112    1
    49   102   100   ar
    50    39    36    1
    51   103   101   ar
    52    35    36    1
    53    35    26   am
    54   118   117    1
    55   118   119    1
    56    45    47    1
    57   108   107    2
    58    28    25    1
    59    28    29    1
    60    30    29   ar
    61    30    32   ar
    62   121   120    1
    63    90    88   ar
    64    90    92   ar
    65    25    26    1
    66    25    24    1
    67    93    92    1
    68   100    99   ar
    69    26    27    2
    70    88    87   ar
    71   101    99   ar
    72    29    31   ar
    73    92    91   ar
    74    32    34   ar
    75   107   106    1
    76   119   120    2
    77    83    84    1
    78    83    86    1
    79    83    82    1
    80    99    98    1
    81   120   122    1
    82   109   106    1
    83   109   110    1
    84    87    86    1
    85    87    89   ar
    86   106   105    1
    87    84    85    2
    88    91    89   ar
    89    94    95    1
    90    31    33   ar
    91    34    33   ar
    92   110   111    1
    93    98    95    1
    94    95    96    1
    95   105   111    1
    96    96    97    2
    97    80    79    1
    98    79    81    1
    99    79    78    2
   100    78    77    1
   101    77    76    1
   102    70    69    1
   103    76    75    1
   104    74    73    2
   105    75    72    1
   106    73    72    1
   107    72    71    1
   108    69    67   ar
   109    69    68   ar
   110    67    65   ar
   111    68    66   ar
   112    71    61   am
   113    65    64   ar
   114    62    61    2
   115    66    64   ar
   116    61    60    1
   117    64    63    1
   118    60    63    1
   119    60    59    1
