@<TRIPOS>MOLECULE
tmp/3sorA01.pdb
 206 204 0 0 0
SMALL
GASTEIGER

@<TRIPOS>ATOM
      1  N        -21.5140  -26.1160   17.7720 N.3    26  ARG26      -0.1231
      2  CA       -20.3410  -25.3950   18.2130 C.3    26  ARG26       0.1694
      3  C        -20.3930  -23.9820   17.6400 C.2    26  ARG26       0.2592
      4  O        -21.0800  -23.7270   16.6560 O.2    26  ARG26      -0.2718
      5  CB       -19.0580  -26.1060   17.7450 C.3    26  ARG26       0.0321
      6  CG       -18.8950  -26.1880   16.2220 C.3    26  ARG26       0.0489
      7  CD       -17.6690  -26.9990   15.7960 C.3    26  ARG26       0.2205
      8  NE       -17.5290  -27.0470   14.3310 N.pl3  26  ARG26      -0.0865
      9  CZ       -17.0390  -26.0590   13.5760 C.cat  26  ARG26       0.5346
     10  NH1      -16.6060  -24.9100   14.1100 N.pl3  26  ARG26       0.1354
     11  NH2      -16.9760  -26.2230   12.2600 N.pl3  26  ARG26       0.1354
     12  N        -19.6500  -23.0820   18.2680 N.am   27  HIS27      -0.1962
     13  CA       -19.4850  -21.7200   17.7640 C.3    27  HIS27       0.1787
     14  C        -18.7300  -21.7870   16.4350 C.2    27  HIS27       0.2620
     15  O        -17.7060  -22.4910   16.2940 O.2    27  HIS27      -0.2715
     16  CB       -18.7780  -20.8750   18.8510 C.3    27  HIS27       0.0785
     17  CG       -18.2350  -19.5680   18.3830 C.ar   27  HIS27       0.0821
     18  ND1      -18.9700  -18.4060   18.4250 N.ar   27  HIS27      -0.2267
     19  CD2      -17.0080  -19.2250   17.9230 C.ar   27  HIS27       0.1154
     20  CE1      -18.2290  -17.4060   17.9870 C.ar   27  HIS27       0.1986
     21  NE2      -17.0380  -17.8750   17.6660 N.ar   27  HIS27      -0.2212
     22  N        -19.2770  -21.0760   15.4480 N.am   28  LEU28      -0.1963
     23  CA       -18.6990  -20.9900   14.0980 C.3    28  LEU28       0.1728
     24  C        -18.0190  -19.6330   13.9430 C.2    28  LEU28       0.2616
     25  O        -16.8490  -19.5560   13.5980 O.2    28  LEU28      -0.2715
     26  CB       -19.8120  -21.1620   13.0320 C.3    28  LEU28       0.0311
     27  CG       -19.4850  -20.9730   11.5450 C.3    28  LEU28       0.0022
     28  CD1      -18.3780  -21.9250   11.0970 C.3    28  LEU28       0.0001
     29  CD2      -20.7620  -21.1320   10.6780 C.3    28  LEU28       0.0001
     30  N        -18.7770  -18.5690   14.2030 N.am   29  CYS29      -0.1968
     31  CA       -18.2980  -17.2000   14.0090 C.3    29  CYS29       0.1712
     32  C        -19.0100  -16.1700   14.8970 C.2    29  CYS29       0.2296
     33  O        -20.0540  -16.4370   15.4720 O.2    29  CYS29      -0.2864
     34  CB       -18.4700  -16.7860   12.5430 C.3    29  CYS29       0.0983
     35  SG       -17.3030  -17.4740   11.3940 S.3    29  CYS29      -0.0798
     36  N        -16.2860  -15.8500    4.6090 N.3    44  HIS44      -0.1226
     37  CA       -15.5110  -17.0630    4.7920 C.3    44  HIS44       0.1752
     38  C        -16.0710  -17.9500    5.9070 C.2    44  HIS44       0.2596
     39  O        -15.6840  -19.1070    6.0280 O.2    44  HIS44      -0.2718
     40  CB       -14.0270  -16.7360    5.0700 C.3    44  HIS44       0.0759
     41  CG       -13.7590  -16.2090    6.4400 C.ar   44  HIS44       0.0818
     42  ND1      -13.7130  -14.8610    6.7250 N.ar   44  HIS44      -0.2268
     43  CD2      -13.5160  -16.8490    7.6090 C.ar   44  HIS44       0.1154
     44  CE1      -13.4340  -14.6910    8.0070 C.ar   44  HIS44       0.1986
     45  NE2      -13.3310  -15.8810    8.5710 N.ar   44  HIS44      -0.2212
     46  N        -16.9900  -17.4130    6.7060 N.am   45  CYS45      -0.1970
     47  CA       -17.6390  -18.1840    7.7750 C.3    45  CYS45       0.1712
     48  C        -18.4730  -19.3720    7.2610 C.2    45  CYS45       0.2296
     49  O        -18.6230  -20.3690    7.9730 O.2    45  CYS45      -0.2864
     50  CB       -18.4880  -17.2450    8.6500 C.3    45  CYS45       0.0983
     51  SG       -17.5010  -16.1950    9.8080 S.3    45  CYS45      -0.0798
     52  N        -17.9680  -21.2680    4.4870 N.3    47  TYR47      -0.1227
     53  CA       -17.1720  -22.2360    3.7370 C.3    47  TYR47       0.1736
     54  C        -17.6840  -23.6930    3.8230 C.2    47  TYR47       0.2596
     55  O        -17.8560  -24.3600    2.7960 O.2    47  TYR47      -0.2718
     56  CB       -15.6910  -22.1900    4.1770 C.3    47  TYR47       0.0548
     57  CG       -14.8600  -23.2380    3.4540 C.ar   47  TYR47      -0.0200
     58  CD1      -14.7000  -23.1720    2.0750 C.ar   47  TYR47      -0.0009
     59  CD2      -14.2900  -24.3210    4.1350 C.ar   47  TYR47      -0.0009
     60  CE1      -13.9910  -24.1260    1.3920 C.ar   47  TYR47       0.0417
     61  CE2      -13.5520  -25.2870    3.4440 C.ar   47  TYR47       0.0417
     62  CZ       -13.4160  -25.1740    2.0750 C.ar   47  TYR47       0.1957
     63  OH       -12.7080  -26.1010    1.3480 O.3    47  TYR47      -0.2866
     64  N        -17.8970  -24.2060    5.0220 N.am   48  GLY48      -0.1957
     65  CA       -18.3700  -25.5890    5.1460 C.3    48  GLY48       0.1869
     66  C        -19.8770  -25.7830    5.2750 C.2    48  GLY48       0.2309
     67  O        -20.3230  -26.8720    5.6600 O.2    48  GLY48      -0.2863
     68  N         -9.7580  -17.9520   20.2150 N.3   134  TYR134     -0.1241
     69  CA        -8.5370  -18.4200   20.8780 C.3   134  TYR134      0.1605
     70  C         -7.7130  -17.2490   21.4540 C.2   134  TYR134      0.2264
     71  O         -7.6320  -16.1770   20.8510 O.2   134  TYR134     -0.2867
     72  CB        -7.6460  -19.1600   19.8610 C.3   134  TYR134      0.0534
     73  CG        -8.1170  -20.5020   19.2900 C.ar  134  TYR134     -0.0201
     74  CD1       -9.4130  -20.9670   19.4490 C.ar  134  TYR134     -0.0009
     75  CD2       -7.2460  -21.2710   18.5350 C.ar  134  TYR134     -0.0009
     76  CE1       -9.8120  -22.1840   18.9030 C.ar  134  TYR134      0.0417
     77  CE2       -7.6290  -22.4790   17.9900 C.ar  134  TYR134      0.0417
     78  CZ        -8.9120  -22.9280   18.1690 C.ar  134  TYR134      0.1957
     79  OH        -9.2830  -24.1330   17.6130 O.3   134  TYR134     -0.2866
     80  N         -2.6950  -18.7860   18.9070 N.3   137  LEU137     -0.1245
     81  CA        -2.7130  -19.8800   17.9200 C.3   137  LEU137      0.1561
     82  C         -2.5350  -21.1940   18.6670 C.2   137  LEU137      0.2260
     83  O         -1.5990  -21.3330   19.4840 O.2   137  LEU137     -0.2867
     84  CB        -1.5680  -19.7530   16.9000 C.3   137  LEU137      0.0270
     85  CG        -1.7840  -19.0480   15.5600 C.3   137  LEU137      0.0019
     86  CD1       -0.4490  -18.9700   14.8580 C.3   137  LEU137      0.0001
     87  CD2       -2.8100  -19.7660   14.6710 C.3   137  LEU137      0.0001
     88  N         -8.3650  -22.7860   22.3960 N.3   140  LYS140     -0.1231
     89  CA        -9.7590  -23.2020   22.2430 C.3   140  LYS140      0.1693
     90  C        -10.7060  -21.9980   22.3360 C.2   140  LYS140      0.2591
     91  O        -10.3020  -20.9100   22.7810 O.2   140  LYS140     -0.2718
     92  CB       -10.1250  -24.2430   23.3070 C.3   140  LYS140      0.0285
     93  CG       -10.1510  -23.7230   24.7480 C.3   140  LYS140      0.0035
     94  CD       -10.5130  -24.8550   25.7230 C.3   140  LYS140      0.0206
     95  CE       -10.0480  -24.5520   27.1430 C.3   140  LYS140      0.1093
     96  NZ       -10.1400  -25.7520   28.0390 N.3   140  LYS140     -0.1314
     97  N        -11.9610  -22.2060   21.9240 N.am  141  ILE141     -0.1980
     98  CA       -13.0010  -21.1840   22.0140 C.3   141  ILE141      0.1595
     99  C        -13.2250  -20.8840   23.4840 C.2   141  ILE141      0.2287
    100  O        -13.3360  -21.8100   24.3040 O.2   141  ILE141     -0.2864
    101  CB       -14.3440  -21.6420   21.3470 C.3   141  ILE141      0.0276
    102  CG1      -14.1780  -21.8240   19.8280 C.3   141  ILE141      0.0022
    103  CG2      -15.4820  -20.6750   21.6470 C.3   141  ILE141      0.0022
    104  CD1      -13.6180  -20.6470   19.0810 C.3   141  ILE141      0.0001
    105  N         -5.1110   -8.5640   19.3880 N.3   182  ASP182     -0.1225
    106  CA        -5.5830   -8.8470   18.0380 C.3   182  ASP182      0.1805
    107  C         -6.6830   -9.8900   18.1570 C.2   182  ASP182      0.2598
    108  O         -6.8330  -10.5330   19.2050 O.2   182  ASP182     -0.2718
    109  CB        -4.4220   -9.4080   17.1760 C.3   182  ASP182      0.1424
    110  CG        -4.7450   -9.4920   15.6850 C.2   182  ASP182      0.3668
    111  OD1       -5.5640   -8.6770   15.1820 O.co2 182  ASP182     -0.2456
    112  OD2       -4.1340  -10.3610   15.0140 O.co2 182  ASP182     -0.2456
    113  N         -7.4530  -10.0430   17.0800 N.am  183  ALA183     -0.1966
    114  CA        -8.3890  -11.1550   16.9190 C.3   183  ALA183      0.1728
    115  C         -7.6140  -12.4530   16.6770 C.2   183  ALA183      0.2616
    116  O         -6.4810  -12.4200   16.1770 O.2   183  ALA183     -0.2715
    117  CB        -9.3260  -10.8780   15.7430 C.3   183  ALA183      0.0334
    118  N         -8.2140  -13.5870   17.0400 N.am  184  CYS184     -0.1954
    119  CA        -7.6620  -14.9050   16.6850 C.3   184  CYS184      0.1843
    120  C         -8.7840  -15.8770   16.2940 C.2   184  CYS184      0.2625
    121  O         -9.9210  -15.4660   16.1170 O.2   184  CYS184     -0.2714
    122  CB        -6.7930  -15.4740   17.8200 C.3   184  CYS184      0.0997
    123  SG        -5.6620  -16.8090   17.3590 S.3   184  CYS184     -0.0797
    124  N         -8.4280  -17.1470   16.1240 N.am  185  LYS185     -0.1963
    125  CA        -9.3110  -18.2010   15.6200 C.3   185  LYS185      0.1728
    126  C        -10.6200  -18.3020   16.3920 C.2   185  LYS185      0.2616
    127  O        -10.6300  -18.7000   17.5440 O.2   185  LYS185     -0.2715
    128  CB        -8.5860  -19.5570   15.6400 C.3   185  LYS185      0.0311
    129  CG        -7.9410  -19.9320   14.3100 C.3   185  LYS185      0.0038
    130  CD        -6.6900  -20.8050   14.4620 C.3   185  LYS185      0.0206
    131  CE        -6.5650  -21.8390   13.3140 C.3   185  LYS185      0.1093
    132  NZ        -5.1570  -22.0500   12.8280 N.3   185  LYS185     -0.1314
    133  N        -11.7220  -17.9570   15.7290 N.am  186  GLY186     -0.1955
    134  CA       -13.0410  -17.9990   16.3440 C.3   186  GLY186      0.1869
    135  C        -13.6720  -16.6410   16.4550 C.2   186  GLY186      0.2309
    136  O        -14.8920  -16.5290   16.6630 O.2   186  GLY186     -0.2863
    137  N        -13.5690  -14.3570   13.8810 N.3   188  SER188     -0.1217
    138  CA       -13.9250  -13.8200   12.5670 C.3   188  SER188      0.1889
    139  C        -15.4380  -13.6790   12.4300 C.2   188  SER188      0.2288
    140  O        -16.1880  -14.4030   13.0780 O.2   188  SER188     -0.2866
    141  CB       -13.3370  -14.6270   11.4100 C.3   188  SER188      0.2089
    142  OG       -13.8170  -15.9400   11.4010 O.3   188  SER188     -0.2183
    143  N        -14.1050   -8.5560   11.3740 N.3   206  THR206     -0.1203
    144  CA       -12.9710   -9.4600   11.5150 C.3   206  THR206      0.1994
    145  C        -12.8910  -10.4520   10.3540 C.2   206  THR206      0.2619
    146  O        -13.8270  -11.2470   10.1390 O.2   206  THR206     -0.2717
    147  CB       -13.0490  -10.2320   12.8530 C.3   206  THR206      0.1784
    148  OG1      -13.0980   -9.2980   13.9330 O.3   206  THR206     -0.2211
    149  CG2      -11.8270  -11.1610   13.0210 C.3   206  THR206      0.0376
    150  N        -11.7510  -10.4390    9.6540 N.am  207  SER207     -0.1937
    151  CA       -11.6130  -11.1530    8.3870 C.3   207  SER207      0.2055
    152  C        -10.4350  -12.1110    8.3910 C.2   207  SER207      0.2643
    153  O        -10.6300  -13.3110    8.3520 O.2   207  SER207     -0.2714
    154  CB       -11.4950  -10.1710    7.2160 C.3   207  SER207      0.2130
    155  OG       -11.5670  -10.8810    6.0000 O.3   207  SER207     -0.2179
    156  N         -9.2200  -11.5750    8.4220 N.am  208  TRP208     -0.1959
    157  CA        -8.0130  -12.3950    8.2920 C.3   208  TRP208      0.1771
    158  C         -6.7980  -11.6840    8.8650 C.2   208  TRP208      0.2620
    159  O         -6.8640  -10.5230    9.2350 O.2   208  TRP208     -0.2715
    160  CB        -7.7750  -12.8330    6.8230 C.3   208  TRP208      0.0590
    161  CG        -7.4060  -11.7180    5.8440 C.ar  208  TRP208      0.0006
    162  CD1       -8.2580  -10.8970    5.1640 C.ar  208  TRP208      0.0946
    163  CD2       -6.0830  -11.3360    5.4440 C.ar  208  TRP208      0.0152
    164  NE1       -7.5410  -10.0020    4.3800 N.ar  208  TRP208     -0.2442
    165  CE2       -6.2060  -10.2670    4.5290 C.ar  208  TRP208      0.0810
    166  CE3       -4.8030  -11.7930    5.7740 C.ar  208  TRP208      0.0012
    167  CZ2       -5.0980   -9.6600    3.9450 C.ar  208  TRP208      0.0191
    168  CZ3       -3.7230  -11.1800    5.2130 C.ar  208  TRP208      0.0001
    169  CH2       -3.8700  -10.1300    4.3050 C.ar  208  TRP208      0.0015
    170  N         -5.7090  -12.4240    8.9970 N.am  209  GLY209     -0.1954
    171  CA        -4.4050  -11.8480    9.3090 C.3   209  GLY209      0.1869
    172  C         -3.3960  -12.9640    9.4220 C.2   209  GLY209      0.2309
    173  O         -3.7760  -14.1400    9.5080 O.2   209  GLY209     -0.2863
    174  N         -0.9110  -15.0430   11.3600 N.3   211  GLY211     -0.1210
    175  CA        -0.7470  -15.3250   12.7830 C.3   211  GLY211      0.1956
    176  C         -1.7390  -14.5560   13.6440 C.2   211  GLY211      0.2612
    177  O         -2.5840  -13.8220   13.1160 O.2   211  GLY211     -0.2717
    178  N         -1.6420  -14.7380   14.9680 N.am  212  CYS212     -0.1970
    179  CA        -2.4740  -14.0330   15.9460 C.3   212  CYS212      0.1712
    180  C         -1.6240  -13.1260   16.8560 C.2   212  CYS212      0.2296
    181  O         -0.8480  -13.6160   17.7090 O.2   212  CYS212     -0.2864
    182  CB        -3.2490  -15.0310   16.8180 C.3   212  CYS212      0.0983
    183  SG        -4.4590  -16.0000   15.9190 S.3   212  CYS212     -0.0798
    184  N         -4.1910   -7.0060   12.0610 N.3   219  GLY219     -0.1210
    185  CA        -5.4310   -7.6780   11.6910 C.3   219  GLY219      0.1956
    186  C         -6.0120   -6.9700   10.4870 C.2   219  GLY219      0.2612
    187  O         -5.9120   -5.7560   10.3940 O.2   219  GLY219     -0.2717
    188  N         -6.6110   -7.7180    9.5650 N.am  220  VAL220     -0.1965
    189  CA        -7.2830   -7.1090    8.4140 C.3   220  VAL220      0.1727
    190  C         -8.7860   -7.3560    8.5570 C.2   220  VAL220      0.2616
    191  O         -9.2100   -8.4650    8.9080 O.2   220  VAL220     -0.2715
    192  CB        -6.7800   -7.6470    7.0490 C.3   220  VAL220      0.0290
    193  CG1       -7.3320   -6.7950    5.9080 C.3   220  VAL220      0.0023
    194  CG2       -5.2500   -7.6430    6.9780 C.3   220  VAL220      0.0023
    195  N         -9.5670   -6.3100    8.2740 N.am  221  TYR221     -0.1974
    196  CA       -10.9980   -6.2760    8.5840 C.3   221  TYR221      0.1639
    197  C        -11.7270   -5.7740    7.3570 C.2   221  TYR221      0.2290
    198  O        -11.2270   -4.9070    6.6690 O.2   221  TYR221     -0.2864
    199  CB       -11.3050   -5.3350    9.7680 C.3   221  TYR221      0.0560
    200  CG       -10.7320   -5.7750   11.1020 C.ar  221  TYR221     -0.0198
    201  CD1       -9.3690   -5.6240   11.3740 C.ar  221  TYR221     -0.0009
    202  CD2      -11.5350   -6.3160   12.0930 C.ar  221  TYR221     -0.0009
    203  CE1       -8.8230   -6.0330   12.5870 C.ar  221  TYR221      0.0417
    204  CE2      -10.9880   -6.7030   13.3310 C.ar  221  TYR221      0.0417
    205  CZ        -9.6360   -6.5680   13.5530 C.ar  221  TYR221      0.1957
    206  OH        -9.0900   -6.9610   14.7410 O.3   221  TYR221     -0.2866
@<TRIPOS>BOND
     1    63    62    1
     2    60    62   ar
     3    60    58   ar
     4    62    61   ar
     5    58    57   ar
     6    55    54    2
     7    61    59   ar
     8    57    59   ar
     9    57    56    1
    10    53    54    1
    11    53    56    1
    12    53    52    1
    13    54    64   am
    14   167   169   ar
    15   167   165   ar
    16   169   168   ar
    17   164   165   ar
    18   164   162   ar
    19   165   163   ar
    20    36    37    1
    21    37    40    1
    22    37    38    1
    23    64    65    1
    24    40    41    1
    25    65    66    1
    26   162   161   ar
    27   168   166   ar
    28    66    67    2
    29   163   166   ar
    30   163   161   ar
    31   161   160    1
    32    38    39    2
    33    38    46   am
    34   193   192    1
    35   155   154    1
    36    41    42   ar
    37    41    43   ar
    38   198   197    2
    39    46    47    1
    40    42    44   ar
    41   160   157    1
    42   194   192    1
    43   192   189    1
    44   154   151    1
    45    48    47    1
    46    48    49    2
    47   197   196    1
    48    43    45   ar
    49    47    50    1
    50    44    45   ar
    51   195   190   am
    52   195   196    1
    53   157   156    1
    54   157   158    1
    55   153   152    2
    56   151   152    1
    57   151   150    1
    58   152   156   am
    59   189   190    1
    60   189   188    1
    61   190   191    2
    62   196   199    1
    63    50    51    1
    64   158   170   am
    65   158   159    2
    66   170   171    1
    67   171   172    1
    68   172   173    2
    69   188   186   am
    70   150   145   am
    71   199   200    1
    72    51    35    1
    73   146   145    2
    74   145   144    1
    75   187   186    2
    76   186   185    1
    77    29    27    1
    78    28    27    1
    79   200   201   ar
    80   200   202   ar
    81   174   175    1
    82   201   203   ar
    83   143   144    1
    84    35    34    1
    85   142   141    1
    86   141   138    1
    87   144   147    1
    88    27    26    1
    89   185   184    1
    90   202   204   ar
    91    11     9    1
    92   139   138    1
    93   139   140    2
    94    34    31    1
    95   138   137    1
    96   203   205   ar
    97   175   176    1
    98   132   131    1
    99   147   149    1
   100   147   148    1
   101    26    23    1
   102   177   176    2
   103   131   130    1
   104   204   205   ar
   105   205   206    1
   106     9    10    1
   107     9     8    2
   108    25    24    2
   109   176   178   am
   110    24    23    1
   111    24    30   am
   112    31    30    1
   113    31    32    1
   114    23    22    1
   115   129   130    1
   116   129   128    1
   117     8     7    1
   118    87    85    1
   119    86    85    1
   120    32    33    2
   121   178   179    1
   122   112   110   ar
   123   111   110   ar
   124    22    14   am
   125    85    84    1
   126   125   128    1
   127   125   124    1
   128   125   126    1
   129   110   109    1
   130   133   134    1
   131   133   126   am
   132   117   114    1
   133     7     6    1
   134   183   182    1
   135   183   123    1
   136   179   182    1
   137   179   180    1
   138   121   120    2
   139   124   120   am
   140   116   115    2
   141     6     5    1
   142   120   119    1
   143    15    14    2
   144   134   135    1
   145   126   127    2
   146    14    13    1
   147   135   136    2
   148     4     3    2
   149   115   114    1
   150   115   118   am
   151   119   118    1
   152   119   122    1
   153   180   181    2
   154    84    81    1
   155   114   113    1
   156   113   107   am
   157   109   106    1
   158   123   122    1
   159    79    78    1
   160     3     2    1
   161     3    12   am
   162    21    19   ar
   163    21    20   ar
   164     5     2    1
   165    13    12    1
   166    13    16    1
   167     1     2    1
   168    81    82    1
   169    81    80    1
   170    19    17   ar
   171    20    18   ar
   172    77    78   ar
   173    77    75   ar
   174   106   107    1
   175   106   105    1
   176   107   108    2
   177    78    76   ar
   178    17    18   ar
   179    17    16    1
   180    75    73   ar
   181    82    83    2
   182    76    74   ar
   183   104   102    1
   184    73    74   ar
   185    73    72    1
   186   102   101    1
   187    72    69    1
   188    68    69    1
   189    71    70    2
   190    69    70    1
   191   101   103    1
   192   101    98    1
   193    97    98    1
   194    97    90   am
   195    98    99    1
   196    89    90    1
   197    89    88    1
   198    89    92    1
   199    90    91    2
   200    92    93    1
   201    99   100    2
   202    93    94    1
   203    94    95    1
   204    95    96    1
