@<TRIPOS>MOLECULE
tmp/3sosA01.pdb
 115 114 0 0 0
SMALL
GASTEIGER

@<TRIPOS>ATOM
      1  N        -14.7170   -9.2860   29.0010 N.3     7  SER7       -0.1202
      2  CA       -15.8180   -8.3380   28.9880 C.3     7  SER7        0.2020
      3  C        -16.8350   -8.6590   30.0800 C.2     7  SER7        0.2619
      4  O        -16.8440   -9.7690   30.6360 O.2     7  SER7       -0.2717
      5  CB       -16.4960   -8.3600   27.6310 C.3     7  SER7        0.2103
      6  OG       -15.5200   -8.3230   26.6080 O.3     7  SER7       -0.2182
      7  N        -17.6950   -7.6870   30.3770 N.am    8  VAL8       -0.1965
      8  CA       -18.8040   -7.8890   31.3080 C.3     8  VAL8        0.1727
      9  C        -20.1050   -7.9460   30.5340 C.2     8  VAL8        0.2616
     10  O        -20.2120   -7.4100   29.4250 O.2     8  VAL8       -0.2715
     11  CB       -18.9240   -6.7630   32.3720 C.3     8  VAL8        0.0290
     12  CG1      -17.6840   -6.7130   33.2560 C.3     8  VAL8        0.0023
     13  CG2      -19.1910   -5.4030   31.7270 C.3     8  VAL8        0.0023
     14  N        -21.1080   -8.5720   31.1360 N.am    9  ARG9       -0.1963
     15  CA       -22.4450   -8.6300   30.5460 C.3     9  ARG9        0.1729
     16  C        -22.9220   -7.2270   30.1270 C.2     9  ARG9        0.2617
     17  O        -22.6220   -6.2310   30.8020 O.2     9  ARG9       -0.2715
     18  CB       -23.4300   -9.2810   31.5420 C.3     9  ARG9        0.0348
     19  CG       -24.7690   -9.6920   30.9440 C.3     9  ARG9        0.0492
     20  CD       -25.5670  -10.5720   31.8960 C.3     9  ARG9        0.2205
     21  NE       -24.8830  -11.8450   32.1490 N.pl3   9  ARG9       -0.0865
     22  CZ       -24.8840  -12.9080   31.3330 C.cat   9  ARG9        0.5346
     23  NH1      -25.5420  -12.8960   30.1630 N.pl3   9  ARG9        0.1354
     24  NH2      -24.2080  -14.0020   31.6940 N.pl3   9  ARG9        0.1354
     25  N        -23.6230   -7.1460   28.9920 N.am   10  GLY10      -0.1940
     26  CA       -24.1680   -5.8680   28.4940 C.3    10  GLY10       0.2014
     27  C        -23.2060   -4.9500   27.7340 C.2    10  GLY10       0.2639
     28  O        -23.6310   -3.9580   27.1560 O.2    10  GLY10      -0.2714
     29  N        -21.9210   -5.2830   27.7090 N.am   11  GLU11      -0.1963
     30  CA       -20.8730   -4.3390   27.2930 C.3    11  GLU11       0.1733
     31  C        -20.8080   -4.1160   25.7630 C.2    11  GLU11       0.2616
     32  O        -20.7370   -2.9630   25.3020 O.2    11  GLU11      -0.2715
     33  CB       -19.5290   -4.8040   27.8680 C.3    11  GLU11       0.0429
     34  CG       -18.3390   -3.9410   27.5390 C.3    11  GLU11       0.1163
     35  CD       -17.0920   -4.2810   28.3660 C.2    11  GLU11       0.3649
     36  OE1      -17.0440   -5.3480   29.0590 O.co2  11  GLU11      -0.2457
     37  OE2      -16.1470   -3.4530   28.3120 O.co2  11  GLU11      -0.2457
     38  N        -20.8200   -5.2120   24.9940 N.am   12  TRP12      -0.1960
     39  CA       -20.8880   -5.1880   23.5200 C.3    12  TRP12       0.1756
     40  C        -22.1910   -5.8200   23.0170 C.2    12  TRP12       0.2461
     41  O        -22.2050   -6.9440   22.5360 O.2    12  TRP12      -0.2730
     42  CB       -19.7210   -5.9600   22.9480 C.3    12  TRP12       0.0590
     43  CG       -18.4180   -5.5360   23.4970 C.ar   12  TRP12       0.0006
     44  CD1      -17.6290   -6.2190   24.4190 C.ar   12  TRP12       0.0946
     45  CD2      -17.6870   -4.3150   23.1920 C.ar   12  TRP12       0.0152
     46  NE1      -16.4750   -5.5350   24.6740 N.ar   12  TRP12      -0.2442
     47  CE2      -16.4510   -4.3690   23.9800 C.ar   12  TRP12       0.0810
     48  CE3      -17.9050   -3.2310   22.3610 C.ar   12  TRP12       0.0012
     49  CZ2      -15.5050   -3.3500   23.9330 C.ar   12  TRP12       0.0191
     50  CZ3      -16.9460   -2.2180   22.3170 C.ar   12  TRP12       0.0001
     51  CH2      -15.7760   -2.2770   23.0820 C.ar   12  TRP12       0.0015
     52  N        -23.3080   -5.1070   23.1340 N.am   13  PRO13      -0.2727
     53  CA       -24.6070   -5.7310   22.8980 C.3    13  PRO13       0.1402
     54  C        -24.9310   -6.0510   21.4470 C.2    13  PRO13       0.2269
     55  O        -25.9500   -6.6820   21.1910 O.2    13  PRO13      -0.2865
     56  CB       -25.5920   -4.7000   23.4460 C.3    13  PRO13       0.0296
     57  CG       -24.8710   -3.3860   23.3190 C.3    13  PRO13       0.0237
     58  CD       -23.4150   -3.6900   23.5300 C.3    13  PRO13       0.0939
     59  N        -22.5430   -7.6910   19.5890 N.3    15  GLN15      -0.1245
     60  CA       -21.7480   -8.8970   19.3300 C.3    15  GLN15       0.1566
     61  C        -22.6290  -10.1270   19.3910 C.2    15  GLN15       0.2260
     62  O        -23.2880  -10.3510   20.4040 O.2    15  GLN15      -0.2867
     63  CB       -20.6040   -9.0210   20.3520 C.3    15  GLN15       0.0367
     64  CG       -19.7900  -10.3150   20.2550 C.3    15  GLN15       0.0905
     65  CD       -18.8100  -10.3290   19.0930 C.2    15  GLN15       0.2608
     66  OE1      -18.0090   -9.4180   18.9520 O.2    15  GLN15      -0.2717
     67  NE2      -18.8530  -11.3770   18.2820 N.am   15  GLN15      -0.0878
     68  N        -26.9570  -11.6650   23.0770 N.3    60  GLY60      -0.1210
     69  CA       -26.9790  -11.5020   24.5180 C.3    60  GLY60       0.1956
     70  C        -26.1290  -12.5090   25.2760 C.2    60  GLY60       0.2612
     71  O        -26.4260  -12.8090   26.4310 O.2    60  GLY60      -0.2717
     72  N        -25.0630  -13.0020   24.6460 N.am   61  ILE61      -0.1965
     73  CA       -24.1750  -13.9860   25.2570 C.3    61  ILE61       0.1727
     74  C        -22.8760  -13.3290   25.7700 C.2    61  ILE61       0.2616
     75  O        -22.1770  -12.6480   25.0090 O.2    61  ILE61      -0.2715
     76  CB       -23.8100  -15.1290   24.2470 C.3    61  ILE61       0.0290
     77  CG1      -25.0630  -15.8810   23.7120 C.3    61  ILE61       0.0022
     78  CG2      -22.8290  -16.1100   24.8610 C.3    61  ILE61       0.0023
     79  CD1      -26.1900  -16.1580   24.7150 C.3    61  ILE61       0.0001
     80  N        -22.5480  -13.5320   27.0500 N.am   62  LEU62      -0.1977
     81  CA       -21.1890  -13.2180   27.5600 C.3    62  LEU62       0.1596
     82  C        -20.2900  -14.4570   27.5130 C.2    62  LEU62       0.2287
     83  O        -19.2330  -14.4520   26.8650 O.2    62  LEU62      -0.2864
     84  CB       -21.2460  -12.6750   28.9850 C.3    62  LEU62       0.0297
     85  CG       -19.9060  -12.2330   29.6010 C.3    62  LEU62       0.0022
     86  CD1      -19.3850  -11.0010   28.8810 C.3    62  LEU62       0.0001
     87  CD2      -20.0270  -11.9700   31.1070 C.3    62  LEU62       0.0001
     88  N        -29.3460   -6.2190   26.2210 N.3   108  SER108     -0.1217
     89  CA       -28.3700   -7.2380   25.8320 C.3   108  SER108      0.1889
     90  C        -28.2820   -7.5210   24.3200 C.2   108  SER108      0.2288
     91  O        -27.4220   -8.2820   23.8930 O.2   108  SER108     -0.2866
     92  CB       -28.6510   -8.5420   26.5870 C.3   108  SER108      0.2089
     93  OG       -29.9170   -9.0610   26.2550 O.3   108  SER108     -0.2183
     94  N        -14.6250  -14.3670   20.8110 N.3   132  TRP132     -0.1241
     95  CA       -14.2290  -15.4890   21.6480 C.3   132  TRP132      0.1605
     96  C        -13.1570  -16.3280   20.9980 C.2   132  TRP132      0.2264
     97  O        -13.0550  -17.5400   21.2720 O.2   132  TRP132     -0.2867
     98  CB       -15.4040  -16.4110   21.8680 C.3   132  TRP132      0.0550
     99  CG       -16.5970  -15.8710   22.5820 C.ar  132  TRP132      0.0003
    100  CD1      -16.9330  -16.0670   23.9010 C.ar  132  TRP132      0.0946
    101  CD2      -17.7180  -15.1310   22.0120 C.ar  132  TRP132      0.0152
    102  NE1      -18.1280  -15.4780   24.1950 N.ar  132  TRP132     -0.2442
    103  CE2      -18.6540  -14.9090   23.1060 C.ar  132  TRP132      0.0810
    104  CE3      -18.0110  -14.6170   20.7650 C.ar  132  TRP132      0.0012
    105  CZ2      -19.8160  -14.2120   22.9360 C.ar  132  TRP132      0.0191
    106  CZ3      -19.1960  -13.9190   20.6080 C.ar  132  TRP132      0.0001
    107  CH2      -20.0690  -13.7240   21.6700 C.ar  132  TRP132      0.0015
    108  N        -16.2540  -13.5580   26.3480 N.3   145  LEU145     -0.1245
    109  CA       -16.0320  -12.5280   25.3530 C.3   145  LEU145      0.1561
    110  C        -14.8660  -11.6390   25.7600 C.2   145  LEU145      0.2260
    111  O        -14.9300  -10.9580   26.7840 O.2   145  LEU145     -0.2867
    112  CB       -17.2960  -11.6780   25.1650 C.3   145  LEU145      0.0270
    113  CG       -17.2870  -10.6010   24.0650 C.3   145  LEU145      0.0019
    114  CD1      -16.8830  -11.1690   22.7100 C.3   145  LEU145      0.0001
    115  CD2      -18.6550   -9.9350   23.9840 C.3   145  LEU145      0.0001
@<TRIPOS>BOND
     1    67    65   am
     2    66    65    2
     3    65    64    1
     4    60    61    1
     5    60    59    1
     6    60    63    1
     7    61    62    2
     8    64    63    1
     9   106   104   ar
    10   106   107   ar
    11   104   101   ar
    12    94    95    1
    13    96    97    2
    14    96    95    1
    15    55    54    2
    16    54    53    1
    17    95    98    1
    18   107   105   ar
    19    98    99    1
    20   101    99   ar
    21   101   103   ar
    22    50    48   ar
    23    50    51   ar
    24    48    45   ar
    25    41    40    2
    26    99   100   ar
    27   114   113    1
    28    53    52    1
    29    53    56    1
    30   105   103   ar
    31    42    43    1
    32    42    39    1
    33    40    52   am
    34    40    39    1
    35    68    69    1
    36    51    49   ar
    37   103   102   ar
    38    52    58    1
    39    45    43   ar
    40    45    47   ar
    41    57    56    1
    42    57    58    1
    43    43    44   ar
    44    39    38    1
    45    77    76    1
    46    77    79    1
    47    91    90    2
    48   100   102   ar
    49    49    47   ar
    50    47    46   ar
    51   115   113    1
    52   113   112    1
    53    76    78    1
    54    76    73    1
    55    90    89    1
    56    44    46   ar
    57    69    70    1
    58    72    73    1
    59    72    70   am
    60    38    31   am
    61    75    74    2
    62   112   109    1
    63    73    74    1
    64    70    71    2
    65    32    31    2
    66   109   110    1
    67   109   108    1
    68   110   111    2
    69    31    30    1
    70    74    80   am
    71    89    88    1
    72    89    92    1
    73    93    92    1
    74     6     5    1
    75    83    82    2
    76    80    81    1
    77    28    27    2
    78    30    29    1
    79    30    33    1
    80    82    81    1
    81    34    33    1
    82    34    35    1
    83    81    84    1
    84     5     2    1
    85    29    27   am
    86    27    26    1
    87    37    35   ar
    88    35    36   ar
    89    26    25    1
    90    86    85    1
    91    84    85    1
    92     2     1    1
    93     2     3    1
    94    25    16   am
    95    10     9    2
    96    85    87    1
    97     3     7   am
    98     3     4    2
    99    16    15    1
   100    16    17    2
   101    23    22    1
   102     7     8    1
   103     9    14   am
   104     9     8    1
   105    15    14    1
   106    15    18    1
   107    19    18    1
   108    19    20    1
   109     8    11    1
   110    22    24    1
   111    22    21    2
   112    13    11    1
   113    20    21    1
   114    11    12    1
