@<TRIPOS>MOLECULE
tmp/3souA00.pdb
 149 146 0 0 0
SMALL
GASTEIGER

@<TRIPOS>ATOM
      1  N         22.0560    9.6690   69.3490 N.3    17  CYS17      -0.1221
      2  CA        22.6880   10.9490   69.6730 C.3    17  CYS17       0.1808
      3  C         21.9440   11.7380   70.7510 C.2    17  CYS17       0.2601
      4  O         22.3830   12.8160   71.1620 O.2    17  CYS17      -0.2717
      5  CB        22.8450   11.8100   68.4110 C.3    17  CYS17       0.0970
      6  SG        21.3290   12.5540   67.7170 S.3    17  CYS17      -0.0800
      7  N         20.8130   11.2050   71.2010 N.am   18  ALA18      -0.1979
      8  CA        20.0730   11.8140   72.3080 C.3    18  ALA18       0.1597
      9  C         19.8340   10.7410   73.3660 C.2    18  ALA18       0.2287
     10  O         20.5310    9.7260   73.3750 O.2    18  ALA18      -0.2864
     11  CB        18.7700   12.4330   71.8300 C.3    18  ALA18       0.0319
     12  N         15.8780   15.0250   73.3350 N.3    25  ARG25      -0.1245
     13  CA        17.0630   15.8890   73.3510 C.3    25  ARG25       0.1563
     14  C         17.0060   16.9270   74.4630 C.2    25  ARG25       0.2260
     15  O         17.9750   17.6480   74.7000 O.2    25  ARG25      -0.2867
     16  CB        17.2020   16.6220   72.0080 C.3    25  ARG25       0.0307
     17  CG        17.1460   15.7060   70.7920 C.3    25  ARG25       0.0489
     18  CD        17.0450   16.5060   69.4900 C.3    25  ARG25       0.2205
     19  NE        16.7800   15.6240   68.3540 N.pl3  25  ARG25      -0.0865
     20  CZ        17.7280   14.9550   67.7100 C.cat  25  ARG25       0.5346
     21  NH1       18.9790   15.0860   68.0970 N.pl3  25  ARG25       0.1354
     22  NH2       17.4270   14.1600   66.6830 N.pl3  25  ARG25       0.1354
     23  N         19.6980   18.4940   78.5100 N.3    28  PRO28      -0.2102
     24  CA        21.0420   17.9120   78.3740 C.3    28  PRO28       0.1504
     25  C         21.8110   17.9760   79.6990 C.2    28  PRO28       0.2575
     26  O         22.7170   17.1900   79.9200 O.2    28  PRO28      -0.2718
     27  CB        21.7250   18.8050   77.3260 C.3    28  PRO28       0.0282
     28  CG        20.8250   20.0150   77.1570 C.3    28  PRO28       0.0208
     29  CD        19.4450   19.5810   77.5400 C.3    28  PRO28       0.0893
     30  N         21.4190   18.9020   80.5610 N.am   29  ASP29      -0.1974
     31  CA        22.0050   19.0650   81.8930 C.3    29  ASP29       0.1708
     32  C         21.6460   17.9080   82.8200 C.2    29  ASP29       0.2293
     33  O         22.2080   17.7800   83.9080 O.2    29  ASP29      -0.2864
     34  CB        21.5290   20.3870   82.5210 C.3    29  ASP29       0.1436
     35  CG        20.0270   20.6110   82.3560 C.2    29  ASP29       0.3671
     36  OD1       19.5360   20.5520   81.2100 O.co2  29  ASP29      -0.2456
     37  OD2       19.3400   20.8750   83.3690 O.co2  29  ASP29      -0.2456
     38  N         21.2350   14.6900   81.2950 N.3    31  GLN31      -0.1231
     39  CA        21.6090   13.4980   80.5430 C.3    31  GLN31       0.1698
     40  C         23.0130   13.0410   80.9090 C.2    31  GLN31       0.2592
     41  O         23.9970   13.6840   80.5250 O.2    31  GLN31      -0.2718
     42  CB        21.5600   13.7480   79.0360 C.3    31  GLN31       0.0381
     43  CG        20.1780   13.9770   78.4670 C.3    31  GLN31       0.0905
     44  CD        20.2370   14.1500   76.9560 C.2    31  GLN31       0.2608
     45  OE1       21.0930   13.5640   76.2920 O.2    31  GLN31      -0.2717
     46  NE2       19.3630   14.9840   76.4130 N.am   31  GLN31      -0.0878
     47  N         23.0910   11.9390   81.6550 N.am   32  LEU32      -0.1966
     48  CA        24.3560   11.3750   82.1060 C.3    32  LEU32       0.1728
     49  C         25.0280   10.6550   80.9670 C.2    32  LEU32       0.2616
     50  O         24.3770    9.9620   80.2070 O.2    32  LEU32      -0.2715
     51  CB        24.1100   10.3520   83.2120 C.3    32  LEU32       0.0311
     52  CG        23.2690   10.8060   84.3990 C.3    32  LEU32       0.0022
     53  CD1       23.1890    9.7120   85.4530 C.3    32  LEU32       0.0001
     54  CD2       23.8340   12.0720   84.9900 C.3    32  LEU32       0.0001
     55  N         26.3470   10.7640   80.8700 N.am   33  MET33      -0.1963
     56  CA        27.0520   10.1240   79.7650 C.3    33  MET33       0.1736
     57  C         27.7670    8.8990   80.3060 C.2    33  MET33       0.2617
     58  O         28.5220    8.9970   81.2820 O.2    33  MET33      -0.2715
     59  CB        28.0530   11.1110   79.1440 C.3    33  MET33       0.0427
     60  CG        27.4420   12.4330   78.7470 C.3    33  MET33       0.0599
     61  SD        26.2140   12.3020   77.4240 S.3    33  MET33      -0.1393
     62  CE        27.2070   11.7900   76.0370 C.3    33  MET33       0.0692
     63  N         27.5050    7.7370   79.7120 N.am   34  CYS34      -0.1954
     64  CA        28.0750    6.5030   80.2320 C.3    34  CYS34       0.1843
     65  C         29.5750    6.4720   79.9780 C.2    34  CYS34       0.2625
     66  O         30.0360    6.7180   78.8590 O.2    34  CYS34      -0.2714
     67  CB        27.4160    5.2720   79.6250 C.3    34  CYS34       0.0997
     68  SG        28.1280    3.7280   80.2200 S.3    34  CYS34      -0.0797
     69  N         30.3230    6.1850   81.0340 N.am   35  ASP35      -0.1971
     70  CA        31.7670    6.1850   80.9510 C.3    35  ASP35       0.1709
     71  C         32.3260    4.9100   80.3260 C.2    35  ASP35       0.2293
     72  O         33.5470    4.7580   80.2100 O.2    35  ASP35      -0.2864
     73  CB        32.3750    6.4630   82.3300 C.3    35  ASP35       0.1436
     74  CG        32.2940    7.9230   82.6980 C.2    35  ASP35       0.3671
     75  OD1       32.7020    8.7430   81.8590 O.co2  35  ASP35      -0.2456
     76  OD2       31.8100    8.2590   83.8020 O.co2  35  ASP35      -0.2456
     77  N         29.5370    5.6680   76.2440 N.3    38  ASP38      -0.1239
     78  CA        29.3040    7.0750   75.8940 C.3    38  ASP38       0.1674
     79  C         27.9150    7.4020   75.3540 C.2    38  ASP38       0.2266
     80  O         27.7510    8.3790   74.6140 O.2    38  ASP38      -0.2867
     81  CB        30.3600    7.6200   74.9190 C.3    38  ASP38       0.1410
     82  CG        30.6220    9.1110   75.1270 C.2    38  ASP38       0.3668
     83  OD1       30.3660    9.6070   76.2530 O.co2  38  ASP38      -0.2456
     84  OD2       31.0800    9.7920   74.1800 O.co2  38  ASP38      -0.2456
     85  N         23.9840    8.6540   76.1430 N.3    40  ALA40      -0.1245
     86  CA        23.3490    9.6160   77.0550 C.3    40  ALA40       0.1562
     87  C         22.0740    9.0270   77.6390 C.2    40  ALA40       0.2260
     88  O         21.3490    8.3030   76.9480 O.2    40  ALA40      -0.2867
     89  CB        23.0330   10.9130   76.3200 C.3    40  ALA40       0.0290
     90  N         21.7850   14.5060   89.4610 N.3    53  VAL53      -0.1231
     91  CA        23.0000   13.9730   88.8490 C.3    53  VAL53       0.1678
     92  C         23.9590   13.4680   89.9250 C.2    53  VAL53       0.2434
     93  O         24.2320   14.1880   90.8740 O.2    53  VAL53      -0.2733
     94  CB        23.6940   15.0610   88.0030 C.3    53  VAL53       0.0265
     95  CG1       25.0280   14.5720   87.4830 C.3    53  VAL53       0.0020
     96  CG2       22.7810   15.5080   86.8500 C.3    53  VAL53       0.0020
     97  N         24.4540   12.2240   89.7950 N.am   54  PRO54      -0.2718
     98  CA        25.3830   11.6610   90.7870 C.3    54  PRO54       0.1535
     99  C         26.6500   12.5100   90.9410 C.2    54  PRO54       0.2599
    100  O         27.0950   13.0970   89.9650 O.2    54  PRO54      -0.2715
    101  CB        25.7680   10.3140   90.1880 C.3    54  PRO54       0.0310
    102  CG        24.6310    9.9670   89.2620 C.3    54  PRO54       0.0237
    103  CD        24.1250   11.2570   88.7290 C.3    54  PRO54       0.0939
    104  N         27.2180   12.5340   92.1440 N.am   55  SER55      -0.1936
    105  CA        28.4260   13.3060   92.4270 C.3    55  SER55       0.2055
    106  C         29.6960   12.5800   92.0090 C.2    55  SER55       0.2643
    107  O         30.7280   13.2130   91.8230 O.2    55  SER55      -0.2714
    108  CB        28.5270   13.5960   93.9320 C.3    55  SER55       0.2130
    109  OG        27.4890   14.4590   94.3620 O.3    55  SER55      -0.2179
    110  N         29.6450   11.2520   91.9060 N.am   56  GLU56      -0.1963
    111  CA        30.8840   10.5050   91.7080 C.3    56  GLU56       0.1733
    112  C         31.4460   10.7040   90.3150 C.2    56  GLU56       0.2616
    113  O         30.7060   10.9910   89.3680 O.2    56  GLU56      -0.2715
    114  CB        30.7430    9.0130   92.0450 C.3    56  GLU56       0.0429
    115  CG        29.3410    8.4620   91.9570 C.3    56  GLU56       0.1163
    116  CD        28.5050    8.7690   93.1900 C.2    56  GLU56       0.3649
    117  OE1       29.0440    8.7870   94.3190 O.co2  56  GLU56      -0.2457
    118  OE2       27.2920    8.9860   93.0250 O.co2  56  GLU56      -0.2457
    119  N         32.7610   10.5390   90.2080 N.am   57  ASP57      -0.1957
    120  CA        33.5010   10.8200   88.9840 C.3    57  ASP57       0.1840
    121  C         32.8890   10.1310   87.7930 C.2    57  ASP57       0.2622
    122  O         32.6010   10.7660   86.7620 O.2    57  ASP57      -0.2715
    123  CB        34.9340   10.3120   89.1160 C.3    57  ASP57       0.1450
    124  CG        35.7810   11.2020   89.9660 C.2    57  ASP57       0.3671
    125  OD1       35.5310   12.4200   89.9420 O.co2  57  ASP57      -0.2456
    126  OD2       36.6960   10.6870   90.6460 O.co2  57  ASP57      -0.2456
    127  N         32.7310    8.8170   87.9220 N.am   58  GLU58      -0.1963
    128  CA        32.2850    8.0050   86.7990 C.3    58  GLU58       0.1733
    129  C         30.8960    7.4550   87.0140 C.2    58  GLU58       0.2616
    130  O         30.4480    7.2360   88.1400 O.2    58  GLU58      -0.2715
    131  CB        33.2150    6.8270   86.5660 C.3    58  GLU58       0.0429
    132  CG        34.6660    7.1780   86.4570 C.3    58  GLU58       0.1163
    133  CD        35.4560    6.4180   87.4840 C.2    58  GLU58       0.3649
    134  OE1       36.1170    7.0790   88.3040 O.co2  58  GLU58      -0.2457
    135  OE2       35.3780    5.1650   87.4970 O.co2  58  GLU58      -0.2457
    136  N         30.2250    7.2190   85.9040 N.am   59  TRP59      -0.1974
    137  CA        28.8880    6.6780   85.9450 C.3    59  TRP59       0.1640
    138  C         28.7600    5.6760   84.8170 C.2    59  TRP59       0.2290
    139  O         29.2350    5.9110   83.7070 O.2    59  TRP59      -0.2864
    140  CB        27.8590    7.7980   85.8110 C.3    59  TRP59       0.0576
    141  CG        26.4900    7.2670   85.7750 C.ar   59  TRP59       0.0006
    142  CD1       25.7180    6.9150   86.8440 C.ar   59  TRP59       0.0946
    143  CD2       25.7260    6.9900   84.6090 C.ar   59  TRP59       0.0152
    144  NE1       24.5060    6.4280   86.4090 N.ar   59  TRP59      -0.2442
    145  CE2       24.4840    6.4750   85.0360 C.ar   59  TRP59       0.0810
    146  CE3       25.9720    7.1220   83.2400 C.ar   59  TRP59       0.0012
    147  CZ2       23.4950    6.0980   84.1450 C.ar   59  TRP59       0.0191
    148  CZ3       24.9870    6.7660   82.3610 C.ar   59  TRP59       0.0001
    149  CH2       23.7660    6.2410   82.8110 C.ar   59  TRP59       0.0015
@<TRIPOS>BOND
     1    22    20    1
     2    20    21    1
     3    20    19    2
     4     6     5    1
     5    19    18    1
     6     5     2    1
     7     1     2    1
     8    18    17    1
     9     2     3    1
    10     3     4    2
    11     3     7   am
    12    17    16    1
    13     7     8    1
    14    11     8    1
    15    16    13    1
    16     8     9    1
    17    12    13    1
    18    13    14    1
    19     9    10    2
    20    84    82   ar
    21    14    15    2
    22    80    79    2
    23    81    82    1
    24    81    78    1
    25    82    83   ar
    26    79    78    1
    27    78    77    1
    28    62    61    1
    29    85    86    1
    30    45    44    2
    31    89    86    1
    32    46    44   am
    33    88    87    2
    34    44    43    1
    35    86    87    1
    36    28    27    1
    37    28    29    1
    38    27    24    1
    39    61    60    1
    40    29    23    1
    41    24    23    1
    42    24    25    1
    43    43    42    1
    44    60    59    1
    45    66    65    2
    46    42    39    1
    47    59    56    1
    48    67    68    1
    49    67    64    1
    50    25    26    2
    51    25    30   am
    52    63    64    1
    53    63    57   am
    54    56    57    1
    55    56    55    1
    56    65    64    1
    57    65    69   am
    58    50    49    2
    59    72    71    2
    60    57    58    2
    61    71    70    1
    62    41    40    2
    63    39    40    1
    64    39    38    1
    65    30    31    1
    66    55    49   am
    67    40    47   am
    68    70    69    1
    69    70    73    1
    70    49    48    1
    71    36    35   ar
    72    47    48    1
    73    75    74   ar
    74    31    34    1
    75    31    32    1
    76    48    51    1
    77    73    74    1
    78    35    34    1
    79    35    37   ar
    80   148   149   ar
    81   148   146   ar
    82    74    76   ar
    83   149   147   ar
    84    32    33    2
    85    51    52    1
    86   146   143   ar
    87   139   138    2
    88   147   145   ar
    89    52    54    1
    90    52    53    1
    91   143   145   ar
    92   143   141   ar
    93   138   137    1
    94   145   144   ar
    95   141   140    1
    96   141   142   ar
    97   140   137    1
    98   136   137    1
    99   136   129   am
   100   144   142   ar
   101   132   131    1
   102   132   133    1
   103   131   128    1
   104   122   121    2
   105   128   129    1
   106   128   127    1
   107    96    94    1
   108   129   130    2
   109    95    94    1
   110   133   135   ar
   111   133   134   ar
   112   121   127   am
   113   121   120    1
   114    94    91    1
   115   103   102    1
   116   103    97    1
   117    91    90    1
   118    91    92    1
   119   120   123    1
   120   120   119    1
   121   123   124    1
   122   102   101    1
   123   113   112    2
   124    97    92   am
   125    97    98    1
   126    92    93    2
   127   125   124   ar
   128   100    99    2
   129   124   126   ar
   130   101    98    1
   131   119   112   am
   132   112   111    1
   133    98    99    1
   134    99   104   am
   135   111   110    1
   136   111   114    1
   137   107   106    2
   138   110   106   am
   139   115   114    1
   140   115   116    1
   141   106   105    1
   142   104   105    1
   143   105   108    1
   144   118   116   ar
   145   116   117   ar
   146   108   109    1
