@<TRIPOS>MOLECULE
tmp/3sowA00.pdb
 124 121 0 0 0
SMALL
GASTEIGER

@<TRIPOS>ATOM
      1  N         -9.9990   20.5120   22.9460 N.3    17  CYS17      -0.1235
      2  CA       -11.2610   19.8730   22.5950 C.3    17  CYS17       0.1677
      3  C        -12.0390   20.6100   21.4760 C.2    17  CYS17       0.2270
      4  O        -13.0460   20.1170   20.9820 O.2    17  CYS17      -0.2867
      5  CB       -12.1320   19.6760   23.8490 C.3    17  CYS17       0.0956
      6  SG       -12.8660   21.1810   24.5340 S.3    17  CYS17      -0.0801
      7  N        -18.7290   22.7120   13.7280 N.3    28  PRO28      -0.2102
      8  CA       -18.0970   21.3920   13.8430 C.3    28  PRO28       0.1504
      9  C        -18.1890   20.5940   12.5230 C.2    28  PRO28       0.2575
     10  O        -17.3930   19.6820   12.2870 O.2    28  PRO28      -0.2718
     11  CB       -18.8970   20.7140   14.9680 C.3    28  PRO28       0.0282
     12  CG       -20.2060   21.4450   14.9990 C.3    28  PRO28       0.0208
     13  CD       -19.8660   22.8680   14.6520 C.3    28  PRO28       0.0893
     14  N        -19.1460   20.9490   11.6700 N.am   29  ASP29      -0.1974
     15  CA       -19.2610   20.3410   10.3350 C.3    29  ASP29       0.1708
     16  C        -18.1010   20.7470    9.4070 C.2    29  ASP29       0.2293
     17  O        -17.8990   20.1570    8.3440 O.2    29  ASP29      -0.2864
     18  CB       -20.6180   20.6890    9.6980 C.3    29  ASP29       0.1436
     19  CG       -20.9030   22.1920    9.6840 C.2    29  ASP29       0.3671
     20  OD1      -20.6850   22.8690   10.7170 O.co2  29  ASP29      -0.2456
     21  OD2      -21.3610   22.7000    8.6330 O.co2  29  ASP29      -0.2456
     22  N        -14.9640   21.2730   10.9190 N.3    31  GLN31      -0.1231
     23  CA       -13.7680   20.9290   11.6800 C.3    31  GLN31       0.1698
     24  C        -13.2620   19.5530   11.2590 C.2    31  GLN31       0.2592
     25  O        -13.9420   18.5500   11.4650 O.2    31  GLN31      -0.2718
     26  CB       -14.0670   20.9270   13.1870 C.3    31  GLN31       0.0381
     27  CG       -14.4400   22.2860   13.7630 C.3    31  GLN31       0.0905
     28  CD       -14.7340   22.2150   15.2550 C.2    31  GLN31       0.2608
     29  OE1      -14.1170   21.4390   15.9690 O.2    31  GLN31      -0.2717
     30  NE2      -15.6850   23.0200   15.7250 N.am   31  GLN31      -0.0878
     31  N        -12.0720   19.5050   10.6660 N.am   32  LEU32      -0.1966
     32  CA       -11.4880   18.2390   10.2270 C.3    32  LEU32       0.1728
     33  C        -10.7750   17.5710   11.3940 C.2    32  LEU32       0.2616
     34  O        -10.0200   18.2260   12.1160 O.2    32  LEU32      -0.2715
     35  CB       -10.4830   18.4580    9.0800 C.3    32  LEU32       0.0311
     36  CG       -10.9710   19.1680    7.8110 C.3    32  LEU32       0.0022
     37  CD1       -9.8790   19.1590    6.7330 C.3    32  LEU32       0.0001
     38  CD2      -12.2330   18.5180    7.2920 C.3    32  LEU32       0.0001
     39  N        -10.9970   16.2720   11.5550 N.am   33  MET33      -0.1963
     40  CA       -10.3500   15.4880   12.6040 C.3    33  MET33       0.1736
     41  C         -9.1260   14.7940   12.0320 C.2    33  MET33       0.2617
     42  O         -9.2500   14.0300   11.0820 O.2    33  MET33      -0.2715
     43  CB       -11.3190   14.4300   13.1360 C.3    33  MET33       0.0427
     44  CG       -12.6330   14.9950   13.6170 C.3    33  MET33       0.0599
     45  SD       -12.3560   16.0330   15.0610 S.3    33  MET33      -0.1393
     46  CE       -11.5700   14.8490   16.1520 C.3    33  MET33       0.0692
     47  N         -7.9460   15.0560   12.5930 N.am   34  CYS34      -0.1954
     48  CA        -6.7380   14.4470   12.0640 C.3    34  CYS34       0.1843
     49  C         -6.7580   12.9400   12.2820 C.2    34  CYS34       0.2625
     50  O         -7.0660   12.4630   13.3710 O.2    34  CYS34      -0.2714
     51  CB        -5.4880   15.0400   12.6950 C.3    34  CYS34       0.0997
     52  SG        -3.9410   14.2780   12.1220 S.3    34  CYS34      -0.0797
     53  N         -6.4260   12.1900   11.2410 N.am   35  ASP35      -0.1971
     54  CA        -6.4250   10.7400   11.3510 C.3    35  ASP35       0.1709
     55  C         -5.2230   10.1640   12.1120 C.2    35  ASP35       0.2293
     56  O         -5.1730    8.9610   12.3710 O.2    35  ASP35      -0.2864
     57  CB        -6.6110   10.0890    9.9770 C.3    35  ASP35       0.1436
     58  CG        -8.0420   10.1670    9.5040 C.2    35  ASP35       0.3671
     59  OD1       -8.9340    9.7850   10.2870 O.co2  35  ASP35      -0.2456
     60  OD2       -8.2900   10.6320    8.3720 O.co2  35  ASP35      -0.2456
     61  N         -5.8070   13.0280   16.0080 N.3    38  ASP38      -0.1239
     62  CA        -7.2180   13.2060   16.3810 C.3    38  ASP38       0.1674
     63  C         -7.6140   14.5880   16.9110 C.2    38  ASP38       0.2266
     64  O         -8.6520   14.7210   17.5560 O.2    38  ASP38      -0.2867
     65  CB        -7.6730   12.1440   17.3940 C.3    38  ASP38       0.1410
     66  CG        -9.1770   11.8970   17.3330 C.2    38  ASP38       0.3668
     67  OD1       -9.7240   11.8300   16.2030 O.co2  38  ASP38      -0.2456
     68  OD2       -9.8210   11.7770   18.3990 O.co2  38  ASP38      -0.2456
     69  N         -8.9300   18.5310   16.2160 N.3    40  ALA40      -0.1245
     70  CA        -9.8380   19.1580   15.2500 C.3    40  ALA40       0.1562
     71  C         -9.2290   20.4350   14.6720 C.2    40  ALA40       0.2260
     72  O         -8.5110   21.1570   15.3850 O.2    40  ALA40      -0.2867
     73  CB       -11.1800   19.4810   15.9000 C.3    40  ALA40       0.0290
     74  N        -14.6960   20.8880    2.7550 N.3    53  VAL53      -0.1231
     75  CA       -14.1620   19.6770    3.3550 C.3    53  VAL53       0.1678
     76  C        -13.6870   18.7060    2.2780 C.2    53  VAL53       0.2434
     77  O        -14.4140   18.4530    1.3230 O.2    53  VAL53      -0.2733
     78  CB       -15.2320   18.9970    4.1990 C.3    53  VAL53       0.0265
     79  CG1      -14.6980   17.6900    4.7600 C.3    53  VAL53       0.0020
     80  CG2      -15.6880   19.9480    5.3090 C.3    53  VAL53       0.0020
     81  N        -12.4670   18.1580    2.4290 N.am   54  PRO54      -0.2718
     82  CA       -11.9210   17.2340    1.4240 C.3    54  PRO54       0.1535
     83  C        -12.6870   15.9100    1.3540 C.2    54  PRO54       0.2599
     84  O        -13.0850   15.3690    2.3870 O.2    54  PRO54      -0.2715
     85  CB       -10.4920   16.9660    1.9220 C.3    54  PRO54       0.0310
     86  CG       -10.2260   17.9910    2.9830 C.3    54  PRO54       0.0237
     87  CD       -11.5400   18.3620    3.5570 C.3    54  PRO54       0.0939
     88  N        -12.8620   15.3850    0.1450 N.am   55  SER55      -0.1936
     89  CA       -13.5890   14.1330   -0.0520 C.3    55  SER55       0.2055
     90  C        -12.7350   12.9060    0.2720 C.2    55  SER55       0.2643
     91  O        -13.2590   11.8200    0.5030 O.2    55  SER55      -0.2714
     92  CB       -14.1210   14.0390   -1.4840 C.3    55  SER55       0.2130
     93  OG       -15.0980   13.0110   -1.5820 O.3    55  SER55      -0.2179
     94  N        -11.4210   13.0850    0.2960 N.am   56  GLU56      -0.1963
     95  CA       -10.5020   11.9840    0.5760 C.3    56  GLU56       0.1733
     96  C        -10.7990   11.2550    1.8990 C.2    56  GLU56       0.2616
     97  O        -11.2370   11.8710    2.8790 O.2    56  GLU56      -0.2715
     98  CB        -9.0520   12.4870    0.5430 C.3    56  GLU56       0.0429
     99  CG        -8.9120   14.0240    0.5200 C.3    56  GLU56       0.1163
    100  CD        -8.9320   14.6190   -0.8880 C.2    56  GLU56       0.3649
    101  OE1       -8.0350   14.2670   -1.6930 O.co2  56  GLU56      -0.2457
    102  OE2       -9.8330   15.4470   -1.1880 O.co2  56  GLU56      -0.2457
    103  N        -10.5480    9.9440    1.9190 N.am   57  ASP57      -0.1971
    104  CA       -10.7650    9.1100    3.1020 C.3    57  ASP57       0.1709
    105  C        -10.0390    9.6880    4.3000 C.2    57  ASP57       0.2293
    106  O        -10.6520   10.0860    5.3010 O.2    57  ASP57      -0.2864
    107  CB       -10.1980    7.7010    2.8970 C.3    57  ASP57       0.1436
    108  CG       -10.7340    7.0140    1.6730 C.2    57  ASP57       0.3671
    109  OD1      -11.9670    7.0180    1.4750 O.co2  57  ASP57      -0.2456
    110  OD2       -9.9170    6.4400    0.9180 O.co2  57  ASP57      -0.2456
    111  N         -7.1500   12.2030    6.2530 N.3    59  TRP59      -0.1241
    112  CA        -6.6150   13.5510    6.2410 C.3    59  TRP59       0.1605
    113  C         -5.6830   13.7010    7.4370 C.2    59  TRP59       0.2264
    114  O         -6.0350   13.3030    8.5400 O.2    59  TRP59      -0.2867
    115  CB        -7.7560   14.5750    6.2960 C.3    59  TRP59       0.0550
    116  CG        -7.2680   15.9780    6.3950 C.ar   59  TRP59       0.0003
    117  CD1       -6.9130   16.8050    5.3580 C.ar   59  TRP59       0.0946
    118  CD2       -7.0350   16.7210    7.5970 C.ar   59  TRP59       0.0152
    119  NE1       -6.4950   18.0180    5.8480 N.ar   59  TRP59      -0.2442
    120  CE2       -6.5590   17.9940    7.2170 C.ar   59  TRP59       0.0810
    121  CE3       -7.2040   16.4410    8.9600 C.ar   59  TRP59       0.0012
    122  CZ2       -6.2450   18.9800    8.1450 C.ar   59  TRP59       0.0191
    123  CZ3       -6.8950   17.4180    9.8790 C.ar   59  TRP59       0.0001
    124  CH2       -6.4140   18.6710    9.4700 C.ar   59  TRP59       0.0015
@<TRIPOS>BOND
     1   101   100   ar
     2    93    92    1
     3    92    89    1
     4   102   100   ar
     5   100    99    1
     6    89    88    1
     7    89    90    1
     8    88    83   am
     9    90    94   am
    10    90    91    2
    11    94    95    1
    12    99    98    1
    13    98    95    1
    14    95    96    1
    15   110   108   ar
    16    77    76    2
    17    83    82    1
    18    83    84    2
    19    82    85    1
    20    82    81    1
    21   109   108   ar
    22   108   107    1
    23    96   103   am
    24    96    97    2
    25   103   104    1
    26    85    86    1
    27    76    81   am
    28    76    75    1
    29    81    87    1
    30    74    75    1
    31   107   104    1
    32    86    87    1
    33   104   105    1
    34    75    78    1
    35    78    79    1
    36    78    80    1
    37   105   106    2
    38   117   119   ar
    39   117   116   ar
    40   119   120   ar
    41   112   111    1
    42   112   115    1
    43   112   113    1
    44   115   116    1
    45   116   118   ar
    46    37    36    1
    47   120   118   ar
    48   120   122   ar
    49    38    36    1
    50   113   114    2
    51   118   121   ar
    52    36    35    1
    53   122   124   ar
    54    17    16    2
    55    60    58   ar
    56    21    19   ar
    57   121   123   ar
    58    35    32    1
    59    16    15    1
    60   124   123   ar
    61    58    57    1
    62    58    59   ar
    63    19    18    1
    64    19    20   ar
    65    18    15    1
    66    57    54    1
    67    32    31    1
    68    32    33    1
    69    15    14    1
    70    31    24   am
    71    22    23    1
    72    42    41    2
    73    53    54    1
    74    53    49   am
    75    24    25    2
    76    24    23    1
    77    54    55    1
    78    33    39   am
    79    33    34    2
    80    39    40    1
    81    14     9   am
    82    23    26    1
    83    41    47   am
    84    41    40    1
    85    48    49    1
    86    48    47    1
    87    48    51    1
    88    55    56    2
    89    52    51    1
    90    49    50    2
    91    10     9    2
    92     9     8    1
    93    40    43    1
    94    43    44    1
    95    26    27    1
    96    44    45    1
    97     7     8    1
    98     7    13    1
    99    27    28    1
   100     8    11    1
   101    13    12    1
   102    71    70    1
   103    71    72    2
   104    11    12    1
   105    45    46    1
   106    70    73    1
   107    70    69    1
   108    28    30   am
   109    28    29    2
   110    61    62    1
   111    67    66   ar
   112    62    63    1
   113    62    65    1
   114    63    64    2
   115    66    65    1
   116    66    68   ar
   117     4     3    2
   118     3     2    1
   119     2     1    1
   120     2     5    1
   121     5     6    1
