@<TRIPOS>MOLECULE
tmp/3sp1B00.pdb
 171 169 0 0 0
SMALL
GASTEIGER

@<TRIPOS>ATOM
      1  N        -17.0020   26.0760  -17.0630 N.3    28  CYS28      -0.1221
      2  CA       -16.1460   25.0790  -17.7220 C.3    28  CYS28       0.1808
      3  C        -15.3800   24.2620  -16.6710 C.2    28  CYS28       0.2602
      4  O        -14.9270   24.8070  -15.6520 O.2    28  CYS28      -0.2717
      5  CB       -15.1750   25.7790  -18.6600 C.3    28  CYS28       0.0970
      6  SG       -15.9920   26.7770  -19.9330 S.3    28  CYS28      -0.0800
      7  N        -15.2470   22.9640  -16.8980 N.am   29  GLY29      -0.1943
      8  CA       -14.6490   22.0790  -15.9030 C.3    29  GLY29       0.1998
      9  C        -13.2000   21.7720  -16.2270 C.2    29  GLY29       0.2481
     10  O        -12.6960   22.2050  -17.2430 O.2    29  GLY29      -0.2729
     11  N        -12.5120   21.0320  -15.3570 N.am   30  PRO30      -0.2715
     12  CA       -11.1070   20.7170  -15.6070 C.3    30  PRO30       0.1536
     13  C        -10.8980   19.6760  -16.7130 C.2    30  PRO30       0.2599
     14  O        -11.8380   18.9380  -17.0720 O.2    30  PRO30      -0.2715
     15  CB       -10.6400   20.1430  -14.2680 C.3    30  PRO30       0.0310
     16  CG       -11.8880   19.5490  -13.6710 C.3    30  PRO30       0.0237
     17  CD       -13.0200   20.4240  -14.1150 C.3    30  PRO30       0.0939
     18  N         -9.6800   19.6570  -17.2730 N.am   31  THR31      -0.1951
     19  CA        -9.1960   18.5070  -18.0640 C.3    31  THR31       0.1897
     20  C         -8.8460   17.4340  -17.0520 C.2    31  THR31       0.2313
     21  O         -8.4480   17.7760  -15.9570 O.2    31  THR31      -0.2863
     22  CB        -7.9130   18.8300  -18.8110 C.3    31  THR31       0.1794
     23  OG1       -6.9450   19.2890  -17.8640 O.3    31  THR31      -0.2208
     24  CG2       -8.1520   19.8950  -19.8940 C.3    31  THR31       0.0378
     25  N         -4.1750   22.0390  -10.5960 N.3    37  HIS37      -0.1241
     26  CA        -3.3210   22.8850   -9.8020 C.3    37  HIS37       0.1621
     27  C         -4.1270   24.0160   -9.2330 C.2    37  HIS37       0.2264
     28  O         -5.2890   24.2120   -9.6180 O.2    37  HIS37      -0.2867
     29  CB        -2.1350   23.4190  -10.5970 C.3    37  HIS37       0.0745
     30  CG        -2.5080   24.0440  -11.9030 C.ar   37  HIS37       0.0817
     31  ND1       -3.2850   25.1370  -11.9860 N.ar   37  HIS37      -0.2268
     32  CD2       -2.1600   23.6980  -13.2160 C.ar   37  HIS37       0.1154
     33  CE1       -3.4430   25.4710  -13.2950 C.ar   37  HIS37       0.1986
     34  NE2       -2.7440   24.5910  -14.0400 N.ar   37  HIS37      -0.2212
     35  N         -4.1340   27.0990   -9.4730 N.3    39  GLY39      -0.1210
     36  CA        -4.6450   28.0930  -10.4040 C.3    39  GLY39       0.1956
     37  C         -6.0600   27.7080  -10.7640 C.2    39  GLY39       0.2611
     38  O         -6.9730   28.5200  -10.6710 O.2    39  GLY39      -0.2717
     39  N         -6.2500   26.4470  -11.1410 N.am   40  ASN40      -0.1974
     40  CA        -7.5930   25.9330  -11.4470 C.3    40  ASN40       0.1688
     41  C         -8.5370   26.1030  -10.2820 C.2    40  ASN40       0.2292
     42  O         -9.6500   26.5680  -10.4400 O.2    40  ASN40      -0.2864
     43  CB        -7.5150   24.4650  -11.8400 C.3    40  ASN40       0.1181
     44  CG        -6.6010   24.2340  -13.0240 C.2    40  ASN40       0.2629
     45  OD1       -5.6820   23.3930  -12.9760 O.2    40  ASN40      -0.2716
     46  ND2       -6.8410   24.9700  -14.0950 N.am   40  ASN40      -0.0877
     47  N         -8.3910   28.2180   -7.8770 N.3    42  ARG42      -0.1231
     48  CA        -8.6680   29.6080   -7.6090 C.3    42  ARG42       0.1694
     49  C         -9.9640   29.9300   -8.3200 C.2    42  ARG42       0.2593
     50  O        -10.8900   30.4030   -7.6970 O.2    42  ARG42      -0.2718
     51  CB        -7.5320   30.5100   -8.0710 C.3    42  ARG42       0.0321
     52  CG        -7.5290   31.8780   -7.4030 C.3    42  ARG42       0.0489
     53  CD        -7.8590   33.0320   -8.3320 C.3    42  ARG42       0.2205
     54  NE        -8.0810   34.2570   -7.5660 N.pl3  42  ARG42      -0.0865
     55  CZ        -7.8960   35.4950   -8.0220 C.cat  42  ARG42       0.5346
     56  NH1       -8.1530   36.5310   -7.2300 N.pl3  42  ARG42       0.1354
     57  NH2       -7.4540   35.7160   -9.2540 N.pl3  42  ARG42       0.1354
     58  N        -10.0240   29.6050   -9.6140 N.am   43  THR43      -0.1939
     59  CA       -11.1870   29.7890  -10.4530 C.3    43  THR43       0.2028
     60  C        -12.4300   29.0620   -9.8970 C.2    43  THR43       0.2642
     61  O        -13.5310   29.6260   -9.9190 O.2    43  THR43      -0.2714
     62  CB       -10.8470   29.3540  -11.9090 C.3    43  THR43       0.1808
     63  OG1      -10.0400   30.3520  -12.5130 O.3    43  THR43      -0.2208
     64  CG2      -12.0630   29.1760  -12.7700 C.3    43  THR43       0.0379
     65  N        -12.2810   27.8300   -9.4040 N.am   44  TYR44      -0.1973
     66  CA       -13.4640   27.1300   -8.8770 C.3    44  TYR44       0.1639
     67  C        -13.8710   27.5740   -7.5000 C.2    44  TYR44       0.2290
     68  O        -14.9950   27.2860   -7.0900 O.2    44  TYR44      -0.2864
     69  CB       -13.3700   25.5970   -8.9430 C.3    44  TYR44       0.0560
     70  CG       -13.1140   25.0880  -10.3380 C.ar   44  TYR44      -0.0198
     71  CD1      -14.0590   25.2560  -11.3650 C.ar   44  TYR44      -0.0009
     72  CD2      -11.9120   24.4820  -10.6400 C.ar   44  TYR44      -0.0009
     73  CE1      -13.7970   24.8060  -12.6520 C.ar   44  TYR44       0.0417
     74  CE2      -11.6360   24.0430  -11.9070 C.ar   44  TYR44       0.0417
     75  CZ       -12.5760   24.2020  -12.9130 C.ar   44  TYR44       0.1957
     76  OH       -12.2470   23.7290  -14.1650 O.3    44  TYR44      -0.2866
     77  N        -13.3170   21.0900  -28.0440 N.3   184  TRP184     -0.1241
     78  CA       -13.8020   21.4550  -26.7250 C.3   184  TRP184      0.1605
     79  C        -14.8000   22.5690  -26.7240 C.2   184  TRP184      0.2264
     80  O        -15.6040   22.6730  -25.7950 O.2   184  TRP184     -0.2867
     81  CB       -12.6660   21.6740  -25.7560 C.3   184  TRP184      0.0550
     82  CG       -11.8180   22.8760  -25.9910 C.ar  184  TRP184      0.0003
     83  CD1      -11.1100   23.2150  -27.1430 C.ar  184  TRP184      0.0946
     84  CD2      -11.5020   23.9300  -25.0130 C.ar  184  TRP184      0.0152
     85  NE1      -10.4160   24.3930  -26.9570 N.ar  184  TRP184     -0.2442
     86  CE2      -10.6000   24.8650  -25.6920 C.ar  184  TRP184      0.0810
     87  CE3      -11.8500   24.1660  -23.6920 C.ar  184  TRP184      0.0012
     88  CZ2      -10.0930   25.9950  -25.0580 C.ar  184  TRP184      0.0191
     89  CZ3      -11.3470   25.3110  -23.0670 C.ar  184  TRP184      0.0001
     90  CH2      -10.4800   26.2020  -23.7330 C.ar  184  TRP184      0.0015
     91  N        -15.9420   31.1090  -16.2810 N.3   205  GLY205     -0.1210
     92  CA       -14.6630   30.6730  -16.8400 C.3   205  GLY205      0.1956
     93  C        -13.5370   31.5710  -16.3730 C.2   205  GLY205      0.2612
     94  O        -13.7570   32.4770  -15.5420 O.2   205  GLY205     -0.2717
     95  N        -12.3420   31.3270  -16.9040 N.am  206  GLY206     -0.1956
     96  CA       -11.1570   32.0930  -16.5350 C.3   206  GLY206      0.1869
     97  C        -10.8870   33.0470  -17.6510 C.2   206  GLY206      0.2309
     98  O        -11.2420   32.7590  -18.7950 O.2   206  GLY206     -0.2863
     99  N         -8.7560   33.6850  -19.6640 N.3   208  ASP208     -0.1225
    100  CA        -8.1750   33.0800  -20.8670 C.3   208  ASP208      0.1805
    101  C         -9.2440   32.5350  -21.8250 C.2   208  ASP208      0.2597
    102  O         -9.0280   32.5120  -23.0450 O.2   208  ASP208     -0.2718
    103  CB        -7.1260   32.0020  -20.5160 C.3   208  ASP208      0.1424
    104  CG        -7.6840   30.8970  -19.6280 C.2   208  ASP208      0.3668
    105  OD1       -7.4560   29.7220  -19.9490 O.co2 208  ASP208     -0.2456
    106  OD2       -8.3460   31.1860  -18.6040 O.co2 208  ASP208     -0.2456
    107  N        -10.3950   32.1280  -21.2840 N.am  209  HIS209     -0.1975
    108  CA       -11.5060   31.6840  -22.1280 C.3   209  HIS209      0.1656
    109  C        -12.1500   32.8130  -22.9090 C.2   209  HIS209      0.2291
    110  O        -12.8880   32.5780  -23.8780 O.2   209  HIS209     -0.2864
    111  CB       -12.5620   30.9100  -21.3140 C.3   209  HIS209      0.0771
    112  CG       -12.0650   29.6070  -20.7040 C.ar  209  HIS209      0.0820
    113  ND1      -12.7290   28.9740  -19.7230 N.ar  209  HIS209     -0.2267
    114  CD2      -10.9310   28.8300  -20.9740 C.ar  209  HIS209      0.1154
    115  CE1      -12.0650   27.8530  -19.3810 C.ar  209  HIS209      0.1986
    116  NE2      -10.9640   27.7680  -20.1420 N.ar  209  HIS209     -0.2212
    117  N        -12.9050   34.9480  -13.8930 N.3   236  GLY236     -0.1210
    118  CA       -11.9200   35.2140  -12.8240 C.3   236  GLY236      0.1956
    119  C        -10.5020   35.3950  -13.3380 C.2   236  GLY236      0.2612
    120  O        -10.1130   34.7520  -14.3050 O.2   236  GLY236     -0.2717
    121  N         -9.7290   36.2750  -12.7150 N.am  237  GLU237     -0.1965
    122  CA        -8.3440   36.4960  -13.1220 C.3   237  GLU237      0.1733
    123  C         -7.4130   35.3770  -12.6330 C.2   237  GLU237      0.2616
    124  O         -7.7970   34.5870  -11.7450 O.2   237  GLU237     -0.2715
    125  CB        -7.8430   37.8370  -12.6040 C.3   237  GLU237      0.0429
    126  CG        -8.3630   39.0080  -13.3980 C.3   237  GLU237      0.1163
    127  CD        -7.7320   39.1370  -14.7790 C.2   237  GLU237      0.3649
    128  OE1       -6.7920   38.3690  -15.1050 O.co2 237  GLU237     -0.2457
    129  OE2       -8.1810   40.0330  -15.5400 O.co2 237  GLU237     -0.2457
    130  N         -6.1830   35.3460  -13.1750 N.am  238  PHE238     -0.1960
    131  CA        -5.2390   34.2630  -12.9120 C.3   238  PHE238      0.1771
    132  C         -4.6450   34.3130  -11.5150 C.2   238  PHE238      0.2619
    133  O         -4.5470   35.3860  -10.8730 O.2   238  PHE238     -0.2715
    134  CB        -4.0770   34.2500  -13.9040 C.3   238  PHE238      0.0574
    135  CG        -4.4840   34.1550  -15.3400 C.ar  238  PHE238     -0.0200
    136  CD1       -5.4420   33.2370  -15.7540 C.ar  238  PHE238     -0.0042
    137  CD2       -3.8680   34.9760  -16.2980 C.ar  238  PHE238     -0.0042
    138  CE1       -5.8020   33.1510  -17.0960 C.ar  238  PHE238     -0.0003
    139  CE2       -4.2170   34.9030  -17.6410 C.ar  238  PHE238     -0.0003
    140  CZ        -5.1890   33.9860  -18.0420 C.ar  238  PHE238     -0.0000
    141  N         -4.2370   33.1350  -11.0590 N.am  239  LEU239     -0.1977
    142  CA        -3.3030   33.0240   -9.9930 C.3   239  LEU239      0.1596
    143  C         -1.9220   33.0270  -10.6400 C.2   239  LEU239      0.2287
    144  O         -1.6580   32.2570  -11.5800 O.2   239  LEU239     -0.2864
    145  CB        -3.5650   31.7410   -9.1950 C.3   239  LEU239      0.0297
    146  CG        -2.6300   31.5170   -7.9960 C.3   239  LEU239      0.0022
    147  CD1       -3.3410   30.8810   -6.8190 C.3   239  LEU239      0.0001
    148  CD2       -1.4280   30.6830   -8.4220 C.3   239  LEU239      0.0001
    149  N          1.7100   33.3000  -14.9890 N.3   245  LYS245     -0.1231
    150  CA         0.4870   32.6090  -14.5380 C.3   245  LYS245      0.1693
    151  C          0.6710   31.1000  -14.4120 C.2   245  LYS245      0.2592
    152  O          1.4150   30.4950  -15.1920 O.2   245  LYS245     -0.2718
    153  CB        -0.7060   32.9290  -15.4520 C.3   245  LYS245      0.0285
    154  CG        -0.9480   31.9470  -16.5890 C.3   245  LYS245      0.0035
    155  CD        -2.4320   31.8270  -16.8860 C.3   245  LYS245      0.0206
    156  CE        -2.7800   30.4610  -17.4460 C.3   245  LYS245      0.1093
    157  NZ        -4.2140   30.1900  -17.1710 N.3   245  LYS245     -0.1314
    158  N         -0.0200   30.4920  -13.4490 N.am  246  MET246     -0.1965
    159  CA         0.1450   29.0620  -13.2120 C.3   246  MET246      0.1736
    160  C         -0.3120   28.1610  -14.3690 C.2   246  MET246      0.2617
    161  O         -1.2990   28.4470  -15.0510 O.2   246  MET246     -0.2715
    162  CB        -0.5170   28.6270  -11.9080 C.3   246  MET246      0.0427
    163  CG        -0.3550   27.1340  -11.6820 C.3   246  MET246      0.0599
    164  SD        -0.3200   26.6060   -9.9740 S.3   246  MET246     -0.1393
    165  CE         0.7320   27.8570   -9.2030 C.3   246  MET246      0.0692
    166  N          0.4330   27.0780  -14.5800 N.am  247  SER247     -0.1950
    167  CA         0.0490   26.0310  -15.5280 C.3   247  SER247      0.1924
    168  C          1.0500   24.8730  -15.5380 C.2   247  SER247      0.2314
    169  O          0.7890   23.8250  -16.1290 O.2   247  SER247     -0.2863
    170  CB        -0.1320   26.6040  -16.9420 C.3   247  SER247      0.2116
    171  OG         0.8800   27.5490  -17.2580 O.3   247  SER247     -0.2180
@<TRIPOS>BOND
     1    77    78    1
     2    83    85   ar
     3    83    82   ar
     4    85    86   ar
     5    78    79    1
     6    78    81    1
     7    79    80    2
     8    82    81    1
     9    82    84   ar
    10    86    88   ar
    11    86    84   ar
    12    88    90   ar
    13    84    87   ar
    14   110   109    2
    15    90    89   ar
    16    87    89   ar
    17   102   101    2
    18   109   108    1
    19   108   111    1
    20   108   107    1
    21   101   107   am
    22   101   100    1
    23   111   112    1
    24   114   112   ar
    25   114   116   ar
    26   100   103    1
    27   100    99    1
    28   112   113   ar
    29   103   104    1
    30   116   115   ar
    31   105   104   ar
    32     6     5    1
    33    24    22    1
    34   113   115   ar
    35   104   106   ar
    36    22    19    1
    37    22    23    1
    38    98    97    2
    39     5     2    1
    40    19    18    1
    41    19    20    1
    42   140   139   ar
    43   140   138   ar
    44     2     1    1
    45     2     3    1
    46    97    96    1
    47   139   137   ar
    48   156   157    1
    49   156   155    1
    50    18    13   am
    51   171   170    1
    52    10     9    2
    53   138   136   ar
    54    14    13    2
    55    20    21    2
    56   170   167    1
    57    95    96    1
    58    95    93   am
    59     7     3   am
    60     7     8    1
    61   155   154    1
    62    92    93    1
    63    92    91    1
    64    13    12    1
    65     3     4    2
    66   154   153    1
    67    93    94    2
    68   137   135   ar
    69     9     8    1
    70     9    11   am
    71   169   168    2
    72   136   135   ar
    73    12    11    1
    74    12    15    1
    75   129   127   ar
    76   168   167    1
    77   167   166    1
    78   153   150    1
    79    11    17    1
    80   135   134    1
    81   152   151    2
    82   128   127   ar
    83   161   160    2
    84   149   150    1
    85   127   126    1
    86   166   160   am
    87   150   151    1
    88   151   158   am
    89   160   159    1
    90   120   119    2
    91    15    16    1
    92    76    75    1
    93    17    16    1
    94    46    44   am
    95    34    33   ar
    96    34    32   ar
    97   134   131    1
    98   117   118    1
    99   158   159    1
   100   126   125    1
   101   119   118    1
   102   119   121   am
   103    33    31   ar
   104    32    30   ar
   105   159   162    1
   106   130   131    1
   107   130   123   am
   108   122   121    1
   109   122   123    1
   110   122   125    1
   111    44    45    2
   112    44    43    1
   113    75    73   ar
   114    75    74   ar
   115   131   132    1
   116    64    62    1
   117    73    71   ar
   118   123   124    2
   119    63    62    1
   120    31    30   ar
   121    62    59    1
   122   162   163    1
   123    74    72   ar
   124    30    29    1
   125    43    40    1
   126   163   164    1
   127   144   143    2
   128   132   141   am
   129   132   133    2
   130    40    39    1
   131    40    41    1
   132    71    70   ar
   133    39    37   am
   134   141   142    1
   135    37    38    2
   136    37    36    1
   137    72    70   ar
   138   143   142    1
   139    29    26    1
   140    25    26    1
   141    59    60    1
   142    59    58    1
   143    42    41    2
   144    36    35    1
   145    70    69    1
   146   142   145    1
   147   164   165    1
   148    61    60    2
   149    60    65   am
   150    26    27    1
   151    28    27    2
   152    58    49   am
   153    65    66    1
   154    57    55    1
   155   145   146    1
   156    69    66    1
   157    66    67    1
   158   148   146    1
   159    53    54    1
   160    53    52    1
   161    49    50    2
   162    49    48    1
   163    51    48    1
   164    51    52    1
   165    55    54    2
   166    55    56    1
   167   146   147    1
   168    47    48    1
   169    67    68    2
