@<TRIPOS>MOLECULE
tmp/3sp7A00.pdb
 229 221 0 0 0
SMALL
GASTEIGER

@<TRIPOS>ATOM
      1  N         -9.4780    5.1740   -9.7980 N.3    44  ALA44      -0.1245
      2  CA        -8.1190    4.9340   -9.3360 C.3    44  ALA44       0.1562
      3  C         -7.6860    5.9980   -8.3260 C.2    44  ALA44       0.2260
      4  O         -7.0190    5.6510   -7.3550 O.2    44  ALA44      -0.2867
      5  CB        -7.1370    4.8900  -10.5070 C.3    44  ALA44       0.0290
      6  N         -9.2730    5.1180   -5.0040 N.3    47  GLU47      -0.1231
      7  CA        -8.5880    3.9780   -4.3940 C.3    47  GLU47       0.1699
      8  C         -7.2390    4.3920   -3.8470 C.2    47  GLU47       0.2592
      9  O         -6.8320    3.9250   -2.7780 O.2    47  GLU47      -0.2718
     10  CB        -8.4050    2.8430   -5.4120 C.3    47  GLU47       0.0402
     11  CG        -9.6360    1.9850   -5.6190 C.3    47  GLU47       0.1161
     12  CD        -9.3260    0.6060   -6.1700 C.2    47  GLU47       0.3649
     13  OE1       -9.0440    0.5120   -7.3840 O.co2  47  GLU47      -0.2457
     14  OE2       -9.3500   -0.3780   -5.3960 O.co2  47  GLU47      -0.2457
     15  N         -6.5160    5.2490   -4.5860 N.am   48  PHE48      -0.1976
     16  CA        -5.2050    5.7320   -4.1510 C.3    48  PHE48       0.1639
     17  C         -5.3710    6.4130   -2.7650 C.2    48  PHE48       0.2290
     18  O         -4.5440    6.1850   -1.8570 O.2    48  PHE48      -0.2864
     19  CB        -4.6510    6.7230   -5.2020 C.3    48  PHE48       0.0560
     20  CG        -3.3600    7.3560   -4.7720 C.ar   48  PHE48      -0.0200
     21  CD1       -3.3580    8.5340   -4.0440 C.ar   48  PHE48      -0.0042
     22  CD2       -2.1420    6.7690   -5.0860 C.ar   48  PHE48      -0.0042
     23  CE1       -2.1650    9.1200   -3.6280 C.ar   48  PHE48      -0.0003
     24  CE2       -0.9370    7.3470   -4.6430 C.ar   48  PHE48      -0.0003
     25  CZ        -0.9610    8.5280   -3.9370 C.ar   48  PHE48      -0.0000
     26  N         -5.7070    3.8550    0.0340 N.3    51  ARG51      -0.1231
     27  CA        -4.4930    3.0850    0.3000 C.3    51  ARG51       0.1694
     28  C         -3.3520    3.9200    0.8450 C.2    51  ARG51       0.2592
     29  O         -2.5050    3.3930    1.5900 O.2    51  ARG51      -0.2718
     30  CB        -4.0380    2.3750   -0.9830 C.3    51  ARG51       0.0321
     31  CG        -5.0210    1.3050   -1.4750 C.3    51  ARG51       0.0489
     32  CD        -4.3950    0.4770   -2.5930 C.3    51  ARG51       0.2205
     33  NE        -5.3720   -0.4330   -3.2000 N.pl3  51  ARG51      -0.0865
     34  CZ        -5.4480   -1.7320   -2.9440 C.cat  51  ARG51       0.5346
     35  NH1       -4.5910   -2.3030   -2.1060 N.pl3  51  ARG51       0.1354
     36  NH2       -6.3700   -2.4760   -3.5380 N.pl3  51  ARG51       0.1354
     37  N         -3.2880    5.2070    0.4580 N.am   52  TYR52      -0.1976
     38  CA        -2.1510    6.0610    0.7910 C.3    52  TYR52       0.1639
     39  C         -2.6020    7.3250    1.4810 C.2    52  TYR52       0.2290
     40  O         -1.9380    8.3710    1.3830 O.2    52  TYR52      -0.2864
     41  CB        -1.3740    6.3950   -0.4900 C.3    52  TYR52       0.0560
     42  CG        -0.8300    5.1650   -1.1770 C.ar   52  TYR52      -0.0198
     43  CD1        0.2350    4.4510   -0.6250 C.ar   52  TYR52      -0.0009
     44  CD2       -1.4650    4.6310   -2.2960 C.ar   52  TYR52      -0.0009
     45  CE1        0.7170    3.2920   -1.2260 C.ar   52  TYR52       0.0417
     46  CE2       -0.9960    3.4650   -2.9030 C.ar   52  TYR52       0.0417
     47  CZ         0.0770    2.7840   -2.3460 C.ar   52  TYR52       0.1957
     48  OH         0.5620    1.6200   -2.9310 O.3    52  TYR52      -0.2866
     49  N         -0.5280   10.3260    3.1360 N.3    55  ALA55      -0.1231
     50  CA         0.1570   11.3390    2.3280 C.3    55  ALA55       0.1694
     51  C         -0.6750   12.5980    2.1300 C.2    55  ALA55       0.2592
     52  O         -0.1470   13.6010    1.6700 O.2    55  ALA55      -0.2718
     53  CB         0.5070   10.7460    0.9800 C.3    55  ALA55       0.0304
     54  N         -1.9820   12.5300    2.4270 N.am   56  PHE56      -0.1976
     55  CA        -2.8960   13.6550    2.2460 C.3    56  PHE56       0.1639
     56  C         -2.8480   14.5710    3.4840 C.2    56  PHE56       0.2290
     57  O         -3.7900   14.6200    4.2880 O.2    56  PHE56      -0.2864
     58  CB        -4.3200   13.1460    1.9510 C.3    56  PHE56       0.0560
     59  CG        -4.5160   12.4950    0.5990 C.ar   56  PHE56      -0.0200
     60  CD1       -3.9450   11.2580    0.3070 C.ar   56  PHE56      -0.0042
     61  CD2       -5.2710   13.1190   -0.3850 C.ar   56  PHE56      -0.0042
     62  CE1       -4.1420   10.6480   -0.9330 C.ar   56  PHE56      -0.0003
     63  CE2       -5.4880   12.5090   -1.6120 C.ar   56  PHE56      -0.0003
     64  CZ        -4.9270   11.2730   -1.8860 C.ar   56  PHE56      -0.0000
     65  N         -0.2090   19.8520    2.5060 N.3    59  LEU59      -0.1245
     66  CA         0.7430   19.9580    1.3930 C.3    59  LEU59       0.1561
     67  C          1.1850   21.3770    1.1030 C.2    59  LEU59       0.2260
     68  O          2.3340   21.5840    0.7380 O.2    59  LEU59      -0.2867
     69  CB         0.1510   19.3480    0.1130 C.3    59  LEU59       0.0270
     70  CG        -0.2910   17.8950    0.1990 C.3    59  LEU59       0.0019
     71  CD1       -0.9200   17.4590   -1.1030 C.3    59  LEU59       0.0001
     72  CD2        0.8860   16.9540    0.4980 C.3    59  LEU59       0.0001
     73  N          5.1510   22.2940    1.3270 N.3    63  LEU63      -0.1245
     74  CA         5.8470   22.6450    0.0890 C.3    63  LEU63       0.1561
     75  C          5.9580   24.1500   -0.1170 C.2    63  LEU63       0.2260
     76  O          6.4510   24.5670   -1.1710 O.2    63  LEU63      -0.2867
     77  CB         5.1000   21.9930   -1.0980 C.3    63  LEU63       0.0270
     78  CG         4.9650   20.4790   -1.0150 C.3    63  LEU63       0.0019
     79  CD1        4.0270   19.9800   -2.1090 C.3    63  LEU63       0.0001
     80  CD2        6.3390   19.7750   -1.1480 C.3    63  LEU63       0.0001
     81  N          8.6790   19.1870   -7.3530 N.3    77  VAL77      -0.1231
     82  CA         7.9820   18.1850   -6.5370 C.3    77  VAL77       0.1692
     83  C          7.5250   17.0110   -7.4060 C.2    77  VAL77       0.2591
     84  O          7.6670   15.8510   -7.0190 O.2    77  VAL77      -0.2718
     85  CB         6.7750   18.8040   -5.7790 C.3    77  VAL77       0.0266
     86  CG1        5.9540   17.7160   -5.0620 C.3    77  VAL77       0.0020
     87  CG2        7.2530   19.8570   -4.7820 C.3    77  VAL77       0.0020
     88  N          6.9400   17.3090   -8.5700 N.am   78  VAL78      -0.1980
     89  CA         6.4330   16.2200   -9.3820 C.3    78  VAL78       0.1595
     90  C          7.6060   15.4220   -9.9730 C.2    78  VAL78       0.2287
     91  O          7.4880   14.2010  -10.0930 O.2    78  VAL78      -0.2864
     92  CB         5.4450   16.7640  -10.4300 C.3    78  VAL78       0.0276
     93  CG1        4.9920   15.6770  -11.3700 C.3    78  VAL78       0.0022
     94  CG2        4.2430   17.3690   -9.7230 C.3    78  VAL78       0.0022
     95  N         10.2450   14.7500   -8.3850 N.3    80  GLU80      -0.1231
     96  CA        10.5920   13.8330   -7.2840 C.3    80  GLU80       0.1699
     97  C          9.6540   12.6110   -7.3430 C.2    80  GLU80       0.2592
     98  O         10.1010   11.4740   -7.2030 O.2    80  GLU80      -0.2718
     99  CB        10.4480   14.5960   -5.9480 C.3    80  GLU80       0.0402
    100  CG        10.6790   13.7560   -4.7100 C.3    80  GLU80       0.1161
    101  CD        10.2580   14.4190   -3.4050 C.2    80  GLU80       0.3649
    102  OE1        9.8480   15.6050   -3.4110 O.co2  80  GLU80      -0.2457
    103  OE2       10.2430   13.6990   -2.3840 O.co2  80  GLU80      -0.2457
    104  N          8.3400   12.8500   -7.5290 N.am   81  LEU81      -0.1980
    105  CA         7.3950   11.7410   -7.6150 C.3    81  LEU81       0.1596
    106  C          7.8150   10.7610   -8.7420 C.2    81  LEU81       0.2287
    107  O          7.7360    9.5410   -8.5630 O.2    81  LEU81      -0.2864
    108  CB         5.9860   12.2820   -7.8510 C.3    81  LEU81       0.0297
    109  CG         4.8950   11.2570   -8.2250 C.3    81  LEU81       0.0022
    110  CD1        4.6930   10.2150   -7.1410 C.3    81  LEU81       0.0001
    111  CD2        3.6230   11.9460   -8.4980 C.3    81  LEU81       0.0001
    112  N         10.9670   10.4080   -9.9420 N.3    83  ARG83      -0.1245
    113  CA        12.4370   10.3320   -9.9550 C.3    83  ARG83       0.1563
    114  C         12.9560    8.9920  -10.4790 C.2    83  ARG83       0.2260
    115  O         13.9960    8.9700  -11.1290 O.2    83  ARG83      -0.2867
    116  CB        13.0210   10.6450   -8.5700 C.3    83  ARG83       0.0307
    117  CG        12.6590    9.6600   -7.4610 C.3    83  ARG83       0.0489
    118  CD        12.9170   10.2740   -6.0830 C.3    83  ARG83       0.2205
    119  NE        12.5830    9.3690   -4.9670 N.pl3  83  ARG83      -0.0865
    120  CZ        11.3620    9.1770   -4.4680 C.cat  83  ARG83       0.5346
    121  NH1       11.1810    8.3630   -3.4350 N.pl3  83  ARG83       0.1354
    122  NH2       10.3110    9.7840   -5.0070 N.pl3  83  ARG83       0.1354
    123  N          5.2790    5.1460  -14.3440 N.3    87  ASN87      -0.1225
    124  CA         4.4750    3.9320  -14.4140 C.3    87  ASN87       0.1785
    125  C          3.0170    4.3800  -14.1390 C.2    87  ASN87       0.2597
    126  O          2.7940    5.5440  -13.7420 O.2    87  ASN87      -0.2718
    127  CB         5.0010    2.8010  -13.5220 C.3    87  ASN87       0.1169
    128  CG         4.9700    3.0990  -12.0630 C.2    87  ASN87       0.2627
    129  OD1        4.0200    3.7040  -11.5550 O.2    87  ASN87      -0.2716
    130  ND2        5.9670    2.6000  -11.3420 N.am   87  ASN87      -0.0877
    131  N          2.0410    3.5160  -14.3660 N.am   88  TRP88      -0.1962
    132  CA         0.6560    3.9400  -14.2080 C.3    88  TRP88       0.1771
    133  C          0.3190    4.3800  -12.7770 C.2    88  TRP88       0.2620
    134  O         -0.3790    5.3730  -12.6020 O.2    88  TRP88      -0.2715
    135  CB        -0.3340    2.8620  -14.6660 C.3    88  TRP88       0.0590
    136  CG        -0.3230    2.6290  -16.1480 C.ar   88  TRP88       0.0006
    137  CD1        0.1050    1.4950  -16.7840 C.ar   88  TRP88       0.0946
    138  CD2       -0.6710    3.5600  -17.1820 C.ar   88  TRP88       0.0152
    139  NE1       -0.0100    1.6440  -18.1460 N.ar   88  TRP88      -0.2442
    140  CE2       -0.4950    2.8930  -18.4210 C.ar   88  TRP88       0.0810
    141  CE3       -1.2040    4.8590  -17.1840 C.ar   88  TRP88       0.0012
    142  CZ2       -0.8040    3.4980  -19.6520 C.ar   88  TRP88       0.0191
    143  CZ3       -1.4640    5.4700  -18.4110 C.ar   88  TRP88       0.0001
    144  CH2       -1.2950    4.7780  -19.6180 C.ar   88  TRP88       0.0015
    145  N          0.7800    3.6300  -11.7810 N.am   89  GLY89      -0.1940
    146  CA         0.4880    4.0060  -10.4030 C.3    89  GLY89       0.2014
    147  C          1.0170    5.3760  -10.0330 C.2    89  GLY89       0.2638
    148  O          0.3590    6.1300   -9.2920 O.2    89  GLY89      -0.2714
    149  N          2.2250    5.7060  -10.5540 N.am   90  ARG90      -0.1977
    150  CA         2.8060    7.0220  -10.2680 C.3    90  ARG90       0.1597
    151  C          1.9940    8.1180  -11.0050 C.2    90  ARG90       0.2287
    152  O          1.8370    9.2090  -10.4690 O.2    90  ARG90      -0.2864
    153  CB         4.2970    7.0800  -10.6220 C.3    90  ARG90       0.0334
    154  CG         5.1520    6.2670   -9.6690 C.3    90  ARG90       0.0492
    155  CD         6.5720    6.1460  -10.1790 C.3    90  ARG90       0.2205
    156  NE         7.3440    5.1950   -9.3730 N.pl3  90  ARG90      -0.0865
    157  CZ         8.4920    4.6490   -9.7640 C.cat  90  ARG90       0.5346
    158  NH1        9.0010    4.9380  -10.9530 N.pl3  90  ARG90       0.1354
    159  NH2        9.1280    3.7920   -8.9760 N.pl3  90  ARG90       0.1354
    160  N         -1.3010    7.9550  -11.4650 N.3    92  VAL92      -0.1231
    161  CA        -2.4740    8.1510  -10.6270 C.3    92  VAL92       0.1692
    162  C         -2.0760    8.9880   -9.3920 C.2    92  VAL92       0.2591
    163  O         -2.8500    9.8630   -8.9680 O.2    92  VAL92      -0.2718
    164  CB        -3.0840    6.8000  -10.2280 C.3    92  VAL92       0.0266
    165  CG1       -4.2100    7.0030   -9.2130 C.3    92  VAL92       0.0020
    166  CG2       -3.6220    6.0820  -11.4690 C.3    92  VAL92       0.0020
    167  N         -0.8830    8.7220   -8.8100 N.am   93  ALA93      -0.1980
    168  CA        -0.4030    9.4930   -7.6550 C.3    93  ALA93       0.1597
    169  C         -0.2320   10.9810   -8.0200 C.2    93  ALA93       0.2287
    170  O         -0.5280   11.8530   -7.1930 O.2    93  ALA93      -0.2864
    171  CB         0.9300    8.9320   -7.1820 C.3    93  ALA93       0.0319
    172  N         -3.6680   12.5250   -8.1710 N.3    96  SER96      -0.1202
    173  CA        -4.1400   12.6210   -6.7940 C.3    96  SER96       0.2020
    174  C         -3.4540   13.7670   -6.0360 C.2    96  SER96       0.2618
    175  O         -4.0970   14.4760   -5.2360 O.2    96  SER96      -0.2717
    176  CB        -3.9190   11.3040   -6.0600 C.3    96  SER96       0.2103
    177  OG        -4.7050   10.2750   -6.6720 O.3    96  SER96      -0.2182
    178  N         -2.1410   13.9390   -6.2740 N.am   97  PHE97      -0.1975
    179  CA        -1.3750   15.0290   -5.6470 C.3    97  PHE97       0.1639
    180  C         -1.9770   16.3880   -6.0480 C.2    97  PHE97       0.2290
    181  O         -2.2180   17.2560   -5.1960 O.2    97  PHE97      -0.2864
    182  CB         0.0990   14.9280   -6.1110 C.3    97  PHE97       0.0560
    183  CG         0.9440   16.1140   -5.7130 C.ar   97  PHE97      -0.0200
    184  CD1        1.1650   16.4060   -4.3770 C.ar   97  PHE97      -0.0042
    185  CD2        1.4540   16.9800   -6.6750 C.ar   97  PHE97      -0.0042
    186  CE1        1.9250   17.5060   -4.0010 C.ar   97  PHE97      -0.0003
    187  CE2        2.2200   18.0880   -6.3030 C.ar   97  PHE97      -0.0003
    188  CZ         2.4250   18.3570   -4.9640 C.ar   97  PHE97      -0.0000
    189  N         -5.3150   16.9230   -4.2710 N.3   100  ALA100     -0.1245
    190  CA        -5.1100   17.2440   -2.8700 C.3   100  ALA100      0.1562
    191  C         -4.5540   18.6570   -2.7160 C.2   100  ALA100      0.2260
    192  O         -4.9400   19.3620   -1.7760 O.2   100  ALA100     -0.2867
    193  CB        -4.1800   16.2360   -2.2500 C.3   100  ALA100      0.0290
    194  N         -4.4180    1.7400  -19.8640 N.3   142  PHE142     -0.1241
    195  CA        -4.7070    1.9310  -18.4430 C.3   142  PHE142      0.1605
    196  C         -6.1450    1.5100  -18.0890 C.2   142  PHE142      0.2264
    197  O         -6.3450    0.8150  -17.0810 O.2   142  PHE142     -0.2867
    198  CB        -4.4940    3.3960  -18.0690 C.3   142  PHE142      0.0534
    199  CG        -4.8870    3.6900  -16.6400 C.ar  142  PHE142     -0.0203
    200  CD1       -4.1020    3.2380  -15.5850 C.ar  142  PHE142     -0.0042
    201  CD2       -6.0760    4.3670  -16.3430 C.ar  142  PHE142     -0.0042
    202  CE1       -4.4720    3.4820  -14.2620 C.ar  142  PHE142     -0.0003
    203  CE2       -6.4390    4.6200  -15.0110 C.ar  142  PHE142     -0.0003
    204  CZ        -5.6530    4.1390  -13.9840 C.ar  142  PHE142     -0.0000
    205  N         -6.7240   -1.3710  -15.3030 N.3   146  TYR146     -0.1241
    206  CA        -7.4410   -1.0140  -14.1020 C.3   146  TYR146      0.1605
    207  C         -8.7290   -1.8210  -13.9790 C.2   146  TYR146      0.2264
    208  O         -8.9900   -2.3780  -12.9080 O.2   146  TYR146     -0.2867
    209  CB        -7.7390    0.4930  -14.0750 C.3   146  TYR146      0.0534
    210  CG        -8.3460    0.9230  -12.7560 C.ar  146  TYR146     -0.0201
    211  CD1       -7.5410    1.2020  -11.6540 C.ar  146  TYR146     -0.0009
    212  CD2       -9.7230    0.9880  -12.5930 C.ar  146  TYR146     -0.0009
    213  CE1       -8.1010    1.5070  -10.4100 C.ar  146  TYR146      0.0417
    214  CE2      -10.2890    1.3230  -11.3640 C.ar  146  TYR146      0.0417
    215  CZ        -9.4740    1.5600  -10.2760 C.ar  146  TYR146      0.1957
    216  OH       -10.0540    1.8640   -9.0510 O.3   146  TYR146     -0.2866
    217  N         -8.0730   -5.5780  -13.1490 N.3   149  ASN149     -0.1225
    218  CA        -7.6320   -5.7700  -11.7740 C.3   149  ASN149      0.1785
    219  C         -8.8960   -5.6190  -10.9010 C.2   149  ASN149      0.2597
    220  O         -9.1070   -6.4330  -10.0220 O.2   149  ASN149     -0.2718
    221  CB        -6.5000   -4.7590  -11.4100 C.3   149  ASN149      0.1169
    222  CG        -5.5180   -5.1880  -10.3150 C.2   149  ASN149      0.2627
    223  OD1       -5.2250   -6.3750  -10.1230 O.2   149  ASN149     -0.2716
    224  ND2       -4.9290   -4.2150   -9.6100 N.am  149  ASN149     -0.0877
    225  N         -9.8160   -4.6920  -11.2870 N.am  150  ALA150     -0.1979
    226  CA       -11.0940   -4.4470  -10.5960 C.3   150  ALA150      0.1597
    227  C        -12.0560   -5.6190  -10.7710 C.2   150  ALA150      0.2287
    228  O        -12.6560   -6.0720   -9.8000 O.2   150  ALA150     -0.2864
    229  CB       -11.7390   -3.1690  -11.1170 C.3   150  ALA150      0.0319
@<TRIPOS>BOND
     1   194   195    1
     2   142   144   ar
     3   142   140   ar
     4   144   143   ar
     5   195   196    1
     6   195   198    1
     7   140   139   ar
     8   140   138   ar
     9   143   141   ar
    10   139   137   ar
    11   196   197    2
    12   198   199    1
    13   141   138   ar
    14   138   136   ar
    15   137   136   ar
    16   199   201   ar
    17   199   200   ar
    18   201   203   ar
    19   136   135    1
    20   200   202   ar
    21   205   206    1
    22   203   204   ar
    23   135   132    1
    24   124   123    1
    25   124   125    1
    26   124   127    1
    27   131   132    1
    28   131   125   am
    29   202   204   ar
    30   132   133    1
    31   125   126    2
    32   206   209    1
    33   206   207    1
    34   209   210    1
    35   207   208    2
    36   127   128    1
    37   217   218    1
    38   133   134    2
    39   133   145   am
    40   210   212   ar
    41   210   211   ar
    42   212   214   ar
    43   128   129    2
    44   128   130   am
    45   145   146    1
    46   218   221    1
    47   218   219    1
    48   211   213   ar
    49   166   164    1
    50   160   161    1
    51   221   222    1
    52    93    92    1
    53   214   215   ar
    54   225   219   am
    55   225   226    1
    56   115   114    2
    57   229   226    1
    58   151   152    2
    59   151   150    1
    60   158   157    1
    61   219   220    2
    62   227   226    1
    63   227   228    2
    64   161   164    1
    65   161   162    1
    66   153   150    1
    67   153   154    1
    68   149   150    1
    69   149   147   am
    70     5     2    1
    71   114   113    1
    72    92    94    1
    73    92    89    1
    74   213   215   ar
    75   146   147    1
    76   222   223    2
    77   222   224   am
    78   215   216    1
    79   164   165    1
    80   155   154    1
    81   155   156    1
    82    91    90    2
    83   147   148    2
    84    90    89    1
    85   113   112    1
    86   113   116    1
    87     1     2    1
    88   157   156    2
    89   157   159    1
    90   162   163    2
    91   162   167   am
    92    89    88    1
    93     2     3    1
    94   167   168    1
    95   106   107    2
    96   106   105    1
    97   116   117    1
    98    88    83   am
    99   111   109    1
   100    95    96    1
   101     3     4    2
   102   109   108    1
   103   109   110    1
   104   172   173    1
   105   169   168    1
   106   169   170    2
   107   108   105    1
   108   168   171    1
   109   105   104    1
   110   104    97   am
   111   117   118    1
   112    83    84    2
   113    83    82    1
   114    13    12   ar
   115    81    82    1
   116    97    96    1
   117    97    98    2
   118    96    99    1
   119   173   176    1
   120   173   174    1
   121   185   187   ar
   122   185   183   ar
   123   177   176    1
   124    82    85    1
   125   187   188   ar
   126   178   174   am
   127   178   179    1
   128    12    11    1
   129    12    14   ar
   130   182   183    1
   131   182   179    1
   132   118   119    1
   133   180   179    1
   134   180   181    2
   135   174   175    2
   136    99   100    1
   137    85    86    1
   138    85    87    1
   139   183   184   ar
   140    11    10    1
   141    10     7    1
   142    19    20    1
   143    19    16    1
   144    22    20   ar
   145    22    24   ar
   146   122   120    1
   147     6     7    1
   148   119   120    2
   149   188   186   ar
   150    20    21   ar
   151   100   101    1
   152    24    25   ar
   153    15    16    1
   154    15     8   am
   155   120   121    1
   156     7     8    1
   157   184   186   ar
   158   189   190    1
   159    16    17    1
   160    21    23   ar
   161    25    23   ar
   162     8     9    2
   163    36    34    1
   164   102   101   ar
   165   101   103   ar
   166    33    34    2
   167    33    32    1
   168    34    35    1
   169    48    47    1
   170    46    47   ar
   171    46    44   ar
   172   190   191    1
   173   190   193    1
   174    17    18    2
   175   191   192    2
   176    32    31    1
   177    47    45   ar
   178    44    42   ar
   179    79    78    1
   180    64    63   ar
   181    64    62   ar
   182    63    61   ar
   183    31    30    1
   184    45    43   ar
   185    42    43   ar
   186    42    41    1
   187    76    75    2
   188    80    78    1
   189    71    70    1
   190    77    78    1
   191    77    74    1
   192    30    27    1
   193    62    60   ar
   194    41    38    1
   195    61    59   ar
   196    75    74    1
   197    26    27    1
   198    74    73    1
   199    69    70    1
   200    69    66    1
   201    70    72    1
   202    27    28    1
   203    60    59   ar
   204    37    38    1
   205    37    28   am
   206    59    58    1
   207    68    67    2
   208    38    39    1
   209    28    29    2
   210    53    50    1
   211    67    66    1
   212    40    39    2
   213    66    65    1
   214    52    51    2
   215    58    55    1
   216    51    50    1
   217    51    54   am
   218    55    54    1
   219    55    56    1
   220    50    49    1
   221    56    57    2
