@<TRIPOS>MOLECULE
tmp/3sp8B04.pdb
 100 100 0 0 0
SMALL
GASTEIGER

@<TRIPOS>ATOM
      1  N        -20.1870   64.2190  -29.2160 N.3   127  HIS127     -0.1226
      2  CA       -21.6440   64.2070  -29.3250 C.3   127  HIS127      0.1752
      3  C        -22.2990   64.6000  -28.0060 C.2   127  HIS127      0.2597
      4  O        -21.6290   64.7250  -26.9850 O.2   127  HIS127     -0.2718
      5  CB       -22.1270   62.8150  -29.7360 C.3   127  HIS127      0.0759
      6  CG       -21.8580   61.7620  -28.7050 C.ar  127  HIS127      0.0818
      7  ND1      -22.7330   61.4910  -27.6760 N.ar  127  HIS127     -0.2268
      8  CD2      -20.8040   60.9300  -28.5350 C.ar  127  HIS127      0.1154
      9  CE1      -22.2350   60.5240  -26.9230 C.ar  127  HIS127      0.1986
     10  NE2      -21.0650   60.1690  -27.4200 N.ar  127  HIS127     -0.2212
     11  N        -23.6160   64.7750  -28.0290 N.am  128  SER128     -0.1938
     12  CA       -24.3380   65.1970  -26.8350 C.3   128  SER128      0.2055
     13  C        -25.2930   64.1160  -26.3250 C.2   128  SER128      0.2643
     14  O        -26.2390   64.4150  -25.5960 O.2   128  SER128     -0.2714
     15  CB       -25.1210   66.4800  -27.1220 C.3   128  SER128      0.2130
     16  OG       -26.1950   66.2050  -28.0020 O.3   128  SER128     -0.2179
     17  N        -25.0530   62.8670  -26.7160 N.am  129  PHE129     -0.1973
     18  CA       -25.8930   61.7620  -26.2670 C.3   129  PHE129      0.1639
     19  C        -25.3100   61.1160  -25.0170 C.2   129  PHE129      0.2290
     20  O        -24.9860   59.9320  -25.0090 O.2   129  PHE129     -0.2864
     21  CB       -26.0930   60.7210  -27.3780 C.3   129  PHE129      0.0560
     22  CG       -27.0280   61.1710  -28.4660 C.ar  129  PHE129     -0.0200
     23  CD1      -26.5850   62.0140  -29.4750 C.ar  129  PHE129     -0.0042
     24  CD2      -28.3540   60.7580  -28.4770 C.ar  129  PHE129     -0.0042
     25  CE1      -27.4430   62.4340  -30.4750 C.ar  129  PHE129     -0.0003
     26  CE2      -29.2220   61.1780  -29.4760 C.ar  129  PHE129     -0.0003
     27  CZ       -28.7660   62.0170  -30.4770 C.ar  129  PHE129     -0.0000
     28  N        -36.2480   57.1780  -33.5090 N.3   150  GLU150     -0.1231
     29  CA       -36.2300   57.6550  -34.8880 C.3   150  GLU150      0.1699
     30  C        -36.4050   56.5430  -35.9210 C.2   150  GLU150      0.2592
     31  O        -36.1400   55.3710  -35.6490 O.2   150  GLU150     -0.2718
     32  CB       -34.9370   58.4240  -35.1590 C.3   150  GLU150      0.0402
     33  CG       -34.7290   59.6060  -34.2300 C.3   150  GLU150      0.1161
     34  CD       -33.4050   60.3010  -34.4640 C.2   150  GLU150      0.3649
     35  OE1      -32.4600   60.0580  -33.6830 O.co2 150  GLU150     -0.2457
     36  OE2      -33.3120   61.0920  -35.4270 O.co2 150  GLU150     -0.2457
     37  N        -36.8720   56.9300  -37.1050 N.am  151  GLU151     -0.1979
     38  CA       -36.9460   56.0320  -38.2470 C.3   151  GLU151      0.1602
     39  C        -35.5730   55.4110  -38.4860 C.2   151  GLU151      0.2287
     40  O        -34.5550   56.0980  -38.4160 O.2   151  GLU151     -0.2864
     41  CB       -37.3820   56.8180  -39.4880 C.3   151  GLU151      0.0415
     42  CG       -37.5550   55.9840  -40.7460 C.3   151  GLU151      0.1163
     43  CD       -38.9910   55.5480  -40.9640 C.2   151  GLU151      0.3649
     44  OE1      -39.3880   54.5000  -40.4110 O.co2 151  GLU151     -0.2457
     45  OE2      -39.7230   56.2560  -41.6900 O.co2 151  GLU151     -0.2457
     46  N        -29.0690   52.5940  -33.4700 N.3   155  TRP155     -0.1241
     47  CA       -27.8610   52.9900  -34.1700 C.3   155  TRP155      0.1605
     48  C        -26.7980   53.2340  -33.1200 C.2   155  TRP155      0.2264
     49  O        -27.0490   53.0740  -31.9270 O.2   155  TRP155     -0.2867
     50  CB       -28.1130   54.2820  -34.9550 C.3   155  TRP155      0.0550
     51  CG       -28.6150   55.4080  -34.0820 C.ar  155  TRP155      0.0003
     52  CD1      -29.9040   55.6380  -33.7140 C.ar  155  TRP155      0.0946
     53  CD2      -27.8300   56.4450  -33.4640 C.ar  155  TRP155      0.0152
     54  NE1      -29.9780   56.7510  -32.9090 N.ar  155  TRP155     -0.2442
     55  CE2      -28.7180   57.2650  -32.7390 C.ar  155  TRP155      0.0810
     56  CE3      -26.4670   56.7580  -33.4540 C.ar  155  TRP155      0.0012
     57  CZ2      -28.2910   58.3770  -32.0120 C.ar  155  TRP155      0.0191
     58  CZ3      -26.0420   57.8660  -32.7280 C.ar  155  TRP155      0.0001
     59  CH2      -26.9550   58.6640  -32.0230 C.ar  155  TRP155      0.0015
     60  N        -22.8180   55.7220  -32.6260 N.3   157  PHE157     -0.1241
     61  CA       -21.6180   56.3470  -33.1680 C.3   157  PHE157      0.1605
     62  C        -20.5900   55.2400  -33.3690 C.2   157  PHE157      0.2264
     63  O        -20.5120   54.3260  -32.5560 O.2   157  PHE157     -0.2867
     64  CB       -21.0960   57.4170  -32.2180 C.3   157  PHE157      0.0534
     65  CG       -22.0500   58.5580  -32.0310 C.ar  157  PHE157     -0.0203
     66  CD1      -22.1890   59.5220  -33.0160 C.ar  157  PHE157     -0.0042
     67  CD2      -22.8270   58.6540  -30.8870 C.ar  157  PHE157     -0.0042
     68  CE1      -23.0760   60.5720  -32.8610 C.ar  157  PHE157     -0.0003
     69  CE2      -23.7190   59.7090  -30.7240 C.ar  157  PHE157     -0.0003
     70  CZ       -23.8420   60.6640  -31.7140 C.ar  157  PHE157     -0.0000
     71  N        -19.2870   58.7920  -38.6260 N.3   164  ARG164     -0.1231
     72  CA       -19.7800   59.3280  -37.3660 C.3   164  ARG164      0.1694
     73  C        -20.7710   58.3790  -36.6980 C.2   164  ARG164      0.2592
     74  O        -20.6030   58.0130  -35.5360 O.2   164  ARG164     -0.2718
     75  CB       -20.4060   60.7090  -37.5770 C.3   164  ARG164      0.0321
     76  CG       -20.9090   61.3440  -36.3040 C.3   164  ARG164      0.0489
     77  CD       -21.2480   62.8220  -36.5170 C.3   164  ARG164      0.2205
     78  NE       -21.9280   63.3820  -35.3560 N.pl3 164  ARG164     -0.0865
     79  CZ       -21.3180   63.7980  -34.2510 C.cat 164  ARG164      0.5346
     80  NH1      -20.0000   63.7210  -34.1370 N.pl3 164  ARG164      0.1354
     81  NH2      -22.0330   64.2860  -33.2500 N.pl3 164  ARG164      0.1354
     82  N        -21.7990   57.9790  -37.4370 N.am  165  TYR165     -0.1976
     83  CA       -22.7840   57.0440  -36.9140 C.3   165  TYR165      0.1639
     84  C        -23.3290   56.1630  -38.0270 C.2   165  TYR165      0.2290
     85  O        -23.1750   56.4680  -39.2040 O.2   165  TYR165     -0.2864
     86  CB       -23.9360   57.7930  -36.2450 C.3   165  TYR165      0.0560
     87  CG       -24.7890   58.5780  -37.2230 C.ar  165  TYR165     -0.0198
     88  CD1      -25.8550   57.9780  -37.8830 C.ar  165  TYR165     -0.0009
     89  CD2      -24.5210   59.9140  -37.4920 C.ar  165  TYR165     -0.0009
     90  CE1      -26.6330   58.6890  -38.7860 C.ar  165  TYR165      0.0417
     91  CE2      -25.3000   60.6380  -38.3920 C.ar  165  TYR165      0.0417
     92  CZ       -26.3520   60.0150  -39.0380 C.ar  165  TYR165      0.1957
     93  OH       -27.1300   60.7210  -39.9330 O.3   165  TYR165     -0.2866
     94  N        -26.7380   53.0040  -38.5870 N.3   167  VAL167     -0.1245
     95  CA       -27.7400   52.1400  -37.9930 C.3   167  VAL167      0.1561
     96  C        -27.1340   50.7670  -37.7890 C.2   167  VAL167      0.2260
     97  O        -26.1670   50.3900  -38.4550 O.2   167  VAL167     -0.2867
     98  CB       -28.9990   52.0030  -38.8750 C.3   167  VAL167      0.0252
     99  CG1      -29.7140   53.3420  -38.9920 C.3   167  VAL167      0.0019
    100  CG2      -28.6280   51.4530  -40.2400 C.3   167  VAL167      0.0019
@<TRIPOS>BOND
     1    45    43   ar
     2    43    42    1
     3    43    44   ar
     4    42    41    1
     5   100    98    1
     6    93    92    1
     7    41    38    1
     8    85    84    2
     9    92    90   ar
    10    92    91   ar
    11    99    98    1
    12    98    95    1
    13    90    88   ar
    14    71    72    1
    15    94    95    1
    16    39    40    2
    17    39    38    1
    18    97    96    2
    19    91    89   ar
    20    38    37    1
    21    84    83    1
    22    95    96    1
    23    88    87   ar
    24    75    72    1
    25    75    76    1
    26    89    87   ar
    27    82    83    1
    28    82    73   am
    29    72    73    1
    30    87    86    1
    31    37    30   am
    32    83    86    1
    33    73    74    2
    34    77    76    1
    35    77    78    1
    36    30    31    2
    37    30    29    1
    38    36    34   ar
    39    78    79    2
    40    32    29    1
    41    32    33    1
    42    50    47    1
    43    50    51    1
    44    29    28    1
    45    34    33    1
    46    34    35   ar
    47    79    80    1
    48    79    81    1
    49    47    46    1
    50    47    48    1
    51    51    52   ar
    52    51    53   ar
    53    52    54   ar
    54    53    56   ar
    55    53    55   ar
    56    56    58   ar
    57    62    61    1
    58    62    63    2
    59    61    60    1
    60    61    64    1
    61    48    49    2
    62    66    68   ar
    63    66    65   ar
    64    54    55   ar
    65    68    70   ar
    66    55    57   ar
    67    58    59   ar
    68    64    65    1
    69    65    67   ar
    70    59    57   ar
    71    70    69   ar
    72    67    69   ar
    73    27    25   ar
    74    27    26   ar
    75    25    23   ar
    76     5     2    1
    77     5     6    1
    78    26    24   ar
    79    23    22   ar
    80     2     1    1
    81     2     3    1
    82     6     8   ar
    83     6     7   ar
    84     8    10   ar
    85    24    22   ar
    86    22    21    1
    87    11     3   am
    88    11    12    1
    89     3     4    2
    90    16    15    1
    91     7     9   ar
    92    10     9   ar
    93    21    18    1
    94    15    12    1
    95    12    13    1
    96    17    13   am
    97    17    18    1
    98    13    14    2
    99    18    19    1
   100    19    20    2
