@<TRIPOS>MOLECULE
tmp/3sp8B01.pdb
 87 82 0 0 0
SMALL
GASTEIGER

@<TRIPOS>ATOM
      1  N        -39.2110   37.7160  -18.5790 N.3    10  LYS10      -0.1231
      2  CA       -39.1050   36.2980  -18.9030 C.3    10  LYS10       0.1693
      3  C        -38.7990   35.5150  -17.6360 C.2    10  LYS10       0.2592
      4  O        -37.7840   35.7620  -16.9800 O.2    10  LYS10      -0.2718
      5  CB       -37.9830   36.0620  -19.9040 C.3    10  LYS10       0.0285
      6  CG       -37.6100   34.5850  -20.0750 C.3    10  LYS10       0.0035
      7  CD       -36.3810   34.4280  -20.9590 C.3    10  LYS10       0.0206
      8  CE       -35.8870   32.9860  -20.9960 C.3    10  LYS10       0.1093
      9  NZ       -34.6230   32.8700  -21.7800 N.3    10  LYS10      -0.1314
     10  N        -39.6650   34.5650  -17.3010 N.am   11  LYS11      -0.1966
     11  CA       -39.4930   33.7760  -16.0840 C.3    11  LYS11       0.1728
     12  C        -38.7330   32.4760  -16.3330 C.2    11  LYS11       0.2617
     13  O        -38.9950   31.7680  -17.3000 O.2    11  LYS11      -0.2715
     14  CB       -40.8540   33.4580  -15.4630 C.3    11  LYS11       0.0311
     15  CG       -40.7850   32.5520  -14.2500 C.3    11  LYS11       0.0038
     16  CD       -42.1380   32.4660  -13.5540 C.3    11  LYS11       0.0206
     17  CE       -42.5900   31.0230  -13.3920 C.3    11  LYS11       0.1093
     18  NZ       -43.1450   30.7460  -12.0280 N.3    11  LYS11      -0.1314
     19  N        -37.7850   32.1790  -15.4490 N.am   12  SER12      -0.1936
     20  CA       -37.1200   30.8870  -15.4390 C.3    12  SER12       0.2055
     21  C        -37.4190   30.2590  -14.0860 C.2    12  SER12       0.2642
     22  O        -36.8350   30.6440  -13.0740 O.2    12  SER12      -0.2714
     23  CB       -35.6070   31.0430  -15.6340 C.3    12  SER12       0.2130
     24  OG       -35.2890   31.5820  -16.9080 O.3    12  SER12      -0.2179
     25  N        -38.3490   29.3110  -14.0650 N.am   13  ALA13      -0.1977
     26  CA       -38.7680   28.6890  -12.8110 C.3    13  ALA13       0.1597
     27  C        -37.6360   27.9000  -12.1470 C.2    13  ALA13       0.2287
     28  O        -36.7630   27.3650  -12.8270 O.2    13  ALA13      -0.2864
     29  CB       -39.9700   27.7910  -13.0510 C.3    13  ALA13       0.0319
     30  N        -43.4530   27.4380  -30.1160 N.3   187  ARG187     -0.1245
     31  CA       -42.9480   27.7090  -28.7740 C.3   187  ARG187      0.1563
     32  C        -42.0230   28.9230  -28.7840 C.2   187  ARG187      0.2260
     33  O        -41.1300   29.0430  -27.9430 O.2   187  ARG187     -0.2867
     34  CB       -42.2210   26.4820  -28.2150 C.3   187  ARG187      0.0307
     35  CG       -43.1290   25.2660  -28.0150 C.3   187  ARG187      0.0489
     36  CD       -44.2020   25.5480  -26.9740 C.3   187  ARG187      0.2205
     37  NE       -45.0420   24.3800  -26.6990 N.pl3 187  ARG187     -0.0865
     38  CZ       -46.0950   24.0230  -27.4280 C.cat 187  ARG187      0.5346
     39  NH1      -46.4500   24.7390  -28.4880 N.pl3 187  ARG187      0.1354
     40  NH2      -46.7990   22.9500  -27.0950 N.pl3 187  ARG187      0.1354
     41  N        -41.1650   33.2760  -29.1450 N.3   189  LEU189     -0.1245
     42  CA       -41.2430   34.3630  -28.1730 C.3   189  LEU189      0.1561
     43  C        -42.1420   35.5380  -28.5860 C.2   189  LEU189      0.2260
     44  O        -42.0920   36.5970  -27.9650 O.2   189  LEU189     -0.2867
     45  CB       -39.8330   34.8690  -27.8510 C.3   189  LEU189      0.0270
     46  CG       -38.8530   33.7900  -27.3800 C.3   189  LEU189      0.0019
     47  CD1      -37.4610   34.3840  -27.1840 C.3   189  LEU189      0.0001
     48  CD2      -39.3530   33.1360  -26.0960 C.3   189  LEU189      0.0001
     49  N        -45.7020   29.6420  -21.1760 N.3   223  ASP223     -0.1225
     50  CA       -44.6410   30.3720  -20.5040 C.3   223  ASP223      0.1805
     51  C        -44.8160   31.8680  -20.7170 C.2   223  ASP223      0.2597
     52  O        -45.2050   32.3000  -21.8050 O.2   223  ASP223     -0.2718
     53  CB       -43.2980   29.9210  -21.0620 C.3   223  ASP223      0.1424
     54  CG       -43.0200   28.4630  -20.7660 C.2   223  ASP223      0.3668
     55  OD1      -42.6410   28.1750  -19.6150 O.co2 223  ASP223     -0.2456
     56  OD2      -43.1930   27.6180  -21.6740 O.co2 223  ASP223     -0.2456
     57  N        -44.5340   32.6490  -19.6770 N.am  224  ASP224     -0.1974
     58  CA       -44.6440   34.1090  -19.7510 C.3   224  ASP224      0.1709
     59  C        -45.9460   34.5080  -20.4430 C.2   224  ASP224      0.2293
     60  O        -47.0050   34.0120  -20.0710 O.2   224  ASP224     -0.2864
     61  CB       -43.4120   34.6970  -20.4470 C.3   224  ASP224      0.1436
     62  CG       -42.1150   34.3210  -19.7300 C.2   224  ASP224      0.3671
     63  OD1      -42.1090   34.3480  -18.4820 O.co2 224  ASP224     -0.2456
     64  OD2      -41.1180   33.9850  -20.4070 O.co2 224  ASP224     -0.2456
     65  N        -46.3590   34.4470  -24.0430 N.3   226  TYR226     -0.1241
     66  CA       -46.1320   34.1340  -25.4480 C.3   226  TYR226      0.1605
     67  C        -47.3890   33.6150  -26.1360 C.2   226  TYR226      0.2264
     68  O        -48.1500   32.8390  -25.5560 O.2   226  TYR226     -0.2867
     69  CB       -44.9910   33.1210  -25.5820 C.3   226  TYR226      0.0534
     70  CG       -43.7440   33.5940  -24.8800 C.ar  226  TYR226     -0.0201
     71  CD1      -43.2490   34.8770  -25.0960 C.ar  226  TYR226     -0.0009
     72  CD2      -43.0900   32.7810  -23.9650 C.ar  226  TYR226     -0.0009
     73  CE1      -42.1110   35.3300  -24.4290 C.ar  226  TYR226      0.0417
     74  CE2      -41.9590   33.2190  -23.3020 C.ar  226  TYR226      0.0417
     75  CZ       -41.4700   34.4880  -23.5350 C.ar  226  TYR226      0.1957
     76  OH       -40.3440   34.9040  -22.8550 O.3   226  TYR226     -0.2866
     77  N        -49.7370   31.3880  -28.0830 N.3   228  ARG228     -0.1245
     78  CA       -49.7870   29.9400  -28.2250 C.3   228  ARG228      0.1563
     79  C        -51.0890   29.5050  -28.8880 C.2   228  ARG228      0.2260
     80  O        -52.0610   30.2570  -28.9250 O.2   228  ARG228     -0.2867
     81  CB       -49.6440   29.2710  -26.8560 C.3   228  ARG228      0.0307
     82  CG       -48.2920   29.5040  -26.1870 C.3   228  ARG228      0.0489
     83  CD       -47.1920   28.7000  -26.8720 C.3   228  ARG228      0.2205
     84  NE       -45.8830   28.9160  -26.2570 N.pl3 228  ARG228     -0.0865
     85  CZ       -44.9540   29.7440  -26.7310 C.cat 228  ARG228      0.5346
     86  NH1      -45.1780   30.4500  -27.8340 N.pl3 228  ARG228      0.1354
     87  NH2      -43.7940   29.8640  -26.1000 N.pl3 228  ARG228      0.1354
@<TRIPOS>BOND
     1    30    31    1
     2    41    42    1
     3    80    79    2
     4    79    78    1
     5    32    31    1
     6    32    33    2
     7    31    34    1
     8    43    42    1
     9    43    44    2
    10    39    38    1
    11    78    77    1
    12    78    81    1
    13    34    35    1
    14    42    45    1
    15    35    36    1
    16    45    46    1
    17    86    85    1
    18    38    40    1
    19    38    37    2
    20    46    47    1
    21    46    48    1
    22    36    37    1
    23    83    84    1
    24    83    82    1
    25    81    82    1
    26    85    84    2
    27    85    87    1
    28    67    68    2
    29    67    66    1
    30    69    66    1
    31    69    70    1
    32    66    65    1
    33    71    70   ar
    34    71    73   ar
    35    70    72   ar
    36    73    75   ar
    37    72    74   ar
    38    75    74   ar
    39    75    76    1
    40    52    51    2
    41     9     8    1
    42    56    54   ar
    43    49    50    1
    44    53    54    1
    45    53    50    1
    46     8     7    1
    47     7     6    1
    48    54    55   ar
    49    51    50    1
    50    51    57   am
    51    61    58    1
    52    61    62    1
    53    59    60    2
    54    59    58    1
    55    64    62   ar
    56     6     5    1
    57     5     2    1
    58    58    57    1
    59    62    63   ar
    60     2     1    1
    61     2     3    1
    62     3    10   am
    63     3     4    2
    64    10    11    1
    65    13    12    2
    66    24    23    1
    67    12    11    1
    68    12    19   am
    69    11    14    1
    70    23    20    1
    71    14    15    1
    72    19    20    1
    73    20    21    1
    74    15    16    1
    75    21    25   am
    76    21    22    2
    77    25    26    1
    78    16    17    1
    79    17    18    1
    80    29    26    1
    81    28    27    2
    82    26    27    1
