@<TRIPOS>MOLECULE
tmp/3sp9A00.pdb
 252 240 0 0 0
SMALL
GASTEIGER

@<TRIPOS>ATOM
      1  N         38.9410   -4.5880    3.8380 N.3    41  ILE41      -0.1245
      2  CA        38.5960   -4.2900    2.4600 C.3    41  ILE41       0.1561
      3  C         38.7950   -2.8030    2.2210 C.2    41  ILE41       0.2260
      4  O         38.1170   -1.9730    2.8390 O.2    41  ILE41      -0.2867
      5  CB        37.1500   -4.6830    2.1470 C.3    41  ILE41       0.0252
      6  CG1       36.9640   -6.1760    2.4160 C.3    41  ILE41       0.0019
      7  CG2       36.8240   -4.3500    0.6990 C.3    41  ILE41       0.0019
      8  CD1       35.6320   -6.5370    3.0240 C.3    41  ILE41       0.0001
      9  N         38.8820   -6.6270   -1.7830 N.3    47  LEU47      -0.1245
     10  CA        37.4610   -6.9910   -1.8900 C.3    47  LEU47       0.1561
     11  C         37.3170   -8.3740   -2.5170 C.2    47  LEU47       0.2260
     12  O         36.5300   -9.2090   -2.0610 O.2    47  LEU47      -0.2867
     13  CB        36.6970   -5.9590   -2.7210 C.3    47  LEU47       0.0270
     14  CG        35.2390   -6.2950   -3.0320 C.3    47  LEU47       0.0019
     15  CD1       34.4140   -6.5060   -1.7670 C.3    47  LEU47       0.0001
     16  CD2       34.6280   -5.1970   -3.8890 C.3    47  LEU47       0.0001
     17  N         33.8830  -13.5160    3.1050 N.3    56  TRP56      -0.1241
     18  CA        32.8190  -14.3440    2.5590 C.3    56  TRP56       0.1605
     19  C         33.4850  -15.5770    1.9540 C.2    56  TRP56       0.2264
     20  O         34.4720  -15.4600    1.2190 O.2    56  TRP56      -0.2867
     21  CB        32.0100  -13.5630    1.5160 C.3    56  TRP56       0.0550
     22  CG        31.2890  -12.3780    2.1180 C.ar   56  TRP56       0.0003
     23  CD1       30.1350  -12.4090    2.8510 C.ar   56  TRP56       0.0946
     24  CD2       31.6850  -11.0010    2.0570 C.ar   56  TRP56       0.0152
     25  NE1       29.7860  -11.1370    3.2430 N.ar   56  TRP56      -0.2442
     26  CE2       30.7230  -10.2510    2.7660 C.ar   56  TRP56       0.0810
     27  CE3       32.7570  -10.3230    1.4690 C.ar   56  TRP56       0.0012
     28  CZ2       30.7930   -8.8740    2.9040 C.ar   56  TRP56       0.0191
     29  CZ3       32.8300   -8.9510    1.6100 C.ar   56  TRP56       0.0001
     30  CH2       31.8520   -8.2400    2.3240 C.ar   56  TRP56       0.0015
     31  N         30.0790   -3.1740   -4.9540 N.3    73  VAL73      -0.1231
     32  CA        30.0070   -2.8210   -3.5340 C.3    73  VAL73       0.1692
     33  C         28.5780   -2.4870   -3.1350 C.2    73  VAL73       0.2592
     34  O         28.1060   -2.8910   -2.0700 O.2    73  VAL73      -0.2718
     35  CB        30.9370   -1.6400   -3.1910 C.3    73  VAL73       0.0266
     36  CG1       30.5990   -1.0640   -1.8250 C.3    73  VAL73       0.0020
     37  CG2       32.4030   -2.0760   -3.2510 C.3    73  VAL73       0.0020
     38  N         27.8770   -1.7690   -4.0070 N.am   74  PHE74      -0.1976
     39  CA        26.4840   -1.4350   -3.7530 C.3    74  PHE74       0.1639
     40  C         25.6550   -2.7080   -3.5910 C.2    74  PHE74       0.2290
     41  O         24.7600   -2.7600   -2.7580 O.2    74  PHE74      -0.2864
     42  CB        25.9180   -0.5300   -4.8500 C.3    74  PHE74       0.0560
     43  CG        24.6170    0.1400   -4.4710 C.ar   74  PHE74      -0.0200
     44  CD1       24.5630    1.0170   -3.3920 C.ar   74  PHE74      -0.0042
     45  CD2       23.4590   -0.0990   -5.1900 C.ar   74  PHE74      -0.0042
     46  CE1       23.3800    1.6310   -3.0240 C.ar   74  PHE74      -0.0003
     47  CE2       22.2650    0.5160   -4.8290 C.ar   74  PHE74      -0.0003
     48  CZ        22.2280    1.3800   -3.7380 C.ar   74  PHE74      -0.0000
     49  N         26.7690   -5.4640   -2.2960 N.3    76  ARG76      -0.1231
     50  CA        27.1230   -5.8500   -0.9170 C.3    76  ARG76       0.1694
     51  C         26.3270   -5.0190    0.0750 C.2    76  ARG76       0.2592
     52  O         25.8770   -5.5320    1.0940 O.2    76  ARG76      -0.2718
     53  CB        28.6210   -5.6450   -0.6150 C.3    76  ARG76       0.0321
     54  CG        29.5670   -6.3700   -1.5580 C.3    76  ARG76       0.0489
     55  CD        30.1380   -7.6300   -0.9030 C.3    76  ARG76       0.2205
     56  NE        29.0890   -8.4180   -0.2650 N.pl3  76  ARG76      -0.0865
     57  CZ        28.9060   -9.7220   -0.4520 C.cat  76  ARG76       0.5346
     58  NH1       29.7140  -10.4020   -1.2620 N.pl3  76  ARG76       0.1354
     59  NH2       27.9090  -10.3430    0.1790 N.pl3  76  ARG76       0.1354
     60  N         26.1760   -3.7250   -0.2140 N.am   77  CYS77      -0.1956
     61  CA        25.4300   -2.8570    0.6860 C.3    77  CYS77       0.1843
     62  C         23.9950   -3.3360    0.7890 C.2    77  CYS77       0.2625
     63  O         23.4450   -3.4410    1.8840 O.2    77  CYS77      -0.2714
     64  CB        25.4670   -1.3970    0.2320 C.3    77  CYS77       0.0997
     65  SG        27.0790   -0.6430    0.3640 S.3    77  CYS77      -0.0797
     66  N         23.3940   -3.6350   -0.3510 N.am   78  GLN78      -0.1977
     67  CA        22.0210   -4.1280   -0.3600 C.3    78  GLN78       0.1601
     68  C         21.8840   -5.4380    0.4030 C.2    78  GLN78       0.2287
     69  O         20.8750   -5.6580    1.0780 O.2    78  GLN78      -0.2864
     70  CB        21.5120   -4.3310   -1.7810 C.3    78  GLN78       0.0394
     71  CG        21.4250   -3.0680   -2.6390 C.3    78  GLN78       0.0908
     72  CD        20.6990   -3.3540   -3.9520 C.2    78  GLN78       0.2608
     73  OE1       19.5470   -3.7670   -3.9440 O.2    78  GLN78      -0.2717
     74  NE2       21.3800   -3.1590   -5.0750 N.am   78  GLN78      -0.0878
     75  N         23.6550   -6.5720    3.0260 N.3    80  THR80      -0.1203
     76  CA        23.6400   -6.2460    4.4520 C.3    80  THR80       0.1994
     77  C         22.2710   -5.7250    4.9030 C.2    80  THR80       0.2618
     78  O         21.7010   -6.2130    5.8820 O.2    80  THR80      -0.2717
     79  CB        24.7230   -5.1890    4.7850 C.3    80  THR80       0.1784
     80  OG1       25.9690   -5.5990    4.2240 O.3    80  THR80      -0.2211
     81  CG2       24.8900   -5.0220    6.2720 C.3    80  THR80       0.0376
     82  N         21.7570   -4.7240    4.1870 N.am   81  THR81      -0.1952
     83  CA        20.4670   -4.1010    4.5000 C.3    81  THR81       0.1897
     84  C         19.3310   -5.1220    4.5500 C.2    81  THR81       0.2313
     85  O         18.5950   -5.1970    5.5300 O.2    81  THR81      -0.2863
     86  CB        20.1340   -2.9880    3.4880 C.3    81  THR81       0.1794
     87  OG1       21.0170   -1.8820    3.7020 O.3    81  THR81      -0.2208
     88  CG2       18.6830   -2.5170    3.6240 C.3    81  THR81       0.0378
     89  N         19.6030   -7.1430    7.7140 N.3    84  THR84      -0.1218
     90  CA        19.0990   -6.3950    8.8520 C.3    84  THR84       0.1862
     91  C         17.5880   -6.2060    8.7940 C.2    84  THR84       0.2287
     92  O         16.9230   -6.2230    9.8390 O.2    84  THR84      -0.2866
     93  CB        19.7760   -5.0360    8.9840 C.3    84  THR84       0.1770
     94  OG1       21.1880   -5.1960    8.8320 O.3    84  THR84      -0.2211
     95  CG2       19.4900   -4.4550   10.3550 C.3    84  THR84       0.0375
     96  N         14.5890    1.1050    7.6410 N.3   115  HIS115     -0.1241
     97  CA        15.7030    2.0020    7.3340 C.3   115  HIS115      0.1621
     98  C         16.0780    2.9840    8.4580 C.2   115  HIS115      0.2264
     99  O         17.2490    3.2440    8.6960 O.2   115  HIS115     -0.2867
    100  CB        15.4680    2.7440    6.0280 C.3   115  HIS115      0.0745
    101  CG        15.8420    1.9540    4.8130 C.ar  115  HIS115      0.0817
    102  ND1       14.9070    1.4560    3.9310 N.ar  115  HIS115     -0.2268
    103  CD2       17.0480    1.5740    4.3310 C.ar  115  HIS115      0.1154
    104  CE1       15.5220    0.8070    2.9580 C.ar  115  HIS115      0.1986
    105  NE2       16.8210    0.8660    3.1770 N.ar  115  HIS115     -0.2212
    106  N         17.8760    0.6510   10.9250 N.3   118  ILE118     -0.1231
    107  CA        19.1430    0.2320   10.3440 C.3   118  ILE118      0.1692
    108  C         20.1630    1.3560   10.4430 C.2   118  ILE118      0.2592
    109  O         21.3260    1.1210   10.7730 O.2   118  ILE118     -0.2718
    110  CB        18.9840   -0.2130    8.8830 C.3   118  ILE118      0.0266
    111  CG1       18.2940   -1.5900    8.8350 C.3   118  ILE118      0.0019
    112  CG2       20.3370   -0.2520    8.2200 C.3   118  ILE118      0.0020
    113  CD1       17.6610   -1.9590    7.4670 C.3   118  ILE118      0.0001
    114  N         19.7160    2.5830   10.1940 N.am  119  PHE119     -0.1976
    115  CA        20.6160    3.7290   10.2450 C.3   119  PHE119      0.1639
    116  C         21.0310    4.0500   11.6720 C.2   119  PHE119      0.2290
    117  O         22.1670    4.4610   11.9050 O.2   119  PHE119     -0.2864
    118  CB        20.0070    4.9440    9.5450 C.3   119  PHE119      0.0560
    119  CG        19.7780    4.7360    8.0590 C.ar  119  PHE119     -0.0200
    120  CD1       20.3620    3.6640    7.3910 C.ar  119  PHE119     -0.0042
    121  CD2       18.9890    5.6170    7.3330 C.ar  119  PHE119     -0.0042
    122  CE1       20.1590    3.4770    6.0200 C.ar  119  PHE119     -0.0003
    123  CE2       18.7770    5.4310    5.9730 C.ar  119  PHE119     -0.0003
    124  CZ        19.3640    4.3630    5.3200 C.ar  119  PHE119     -0.0000
    125  N         23.5600    1.3280   12.6580 N.3   122  LEU122     -0.1245
    126  CA        24.7760    1.3610   11.8830 C.3   122  LEU122      0.1561
    127  C         25.9350    1.8650   12.7190 C.2   122  LEU122      0.2260
    128  O         27.0470    1.3710   12.6110 O.2   122  LEU122     -0.2867
    129  CB        24.6130    2.2310   10.6430 C.3   122  LEU122      0.0270
    130  CG        25.8710    2.2720    9.7790 C.3   122  LEU122      0.0019
    131  CD1       26.3160    0.8700    9.3370 C.3   122  LEU122      0.0001
    132  CD2       25.6250    3.1770    8.5820 C.3   122  LEU122      0.0001
    133  N         28.5490   -0.7100   14.4770 N.3   125  ILE125     -0.1245
    134  CA        29.6300   -1.4510   13.8540 C.3   125  ILE125      0.1561
    135  C         30.5910   -0.5190   13.0970 C.2   125  ILE125      0.2260
    136  O         31.3360   -0.9490   12.2110 O.2   125  ILE125     -0.2867
    137  CB        29.0680   -2.5180   12.8960 C.3   125  ILE125      0.0252
    138  CG1       28.2530   -1.8590   11.7810 C.3   125  ILE125      0.0019
    139  CG2       28.2200   -3.5250   13.6570 C.3   125  ILE125      0.0019
    140  CD1       27.8460   -2.8100   10.6790 C.3   125  ILE125      0.0001
    141  N         33.8890    0.3820    8.7900 N.3   131  LEU131     -0.1231
    142  CA        32.8380   -0.4050    9.4140 C.3   131  LEU131      0.1693
    143  C         33.0570   -1.9050    9.2750 C.2   131  LEU131      0.2592
    144  O         33.6720   -2.3640    8.3120 O.2   131  LEU131     -0.2718
    145  CB        31.4630   -0.0050    8.8700 C.3   131  LEU131      0.0284
    146  CG        31.1640   -0.1180    7.3780 C.3   131  LEU131      0.0019
    147  CD1       30.8600   -1.5650    6.9840 C.3   131  LEU131      0.0001
    148  CD2       29.9790    0.7590    7.0310 C.3   131  LEU131      0.0001
    149  N         32.5530   -2.6520   10.2560 N.am  132  LEU132     -0.1966
    150  CA        32.6680   -4.1020   10.2760 C.3   132  LEU132      0.1728
    151  C         31.6820   -4.7290    9.3100 C.2   132  LEU132      0.2616
    152  O         30.5720   -4.2390    9.1470 O.2   132  LEU132     -0.2715
    153  CB        32.3930   -4.6420   11.6830 C.3   132  LEU132      0.0311
    154  CG        33.3820   -4.2440   12.7850 C.3   132  LEU132      0.0022
    155  CD1       32.8760   -4.6470   14.1450 C.3   132  LEU132      0.0001
    156  CD2       34.7580   -4.8500   12.5180 C.3   132  LEU132      0.0001
    157  N         32.0770   -5.8310    8.6870 N.am  133  VAL133     -0.1977
    158  CA        31.1470   -6.6080    7.8690 C.3   133  VAL133      0.1596
    159  C         31.2360   -8.0880    8.2120 C.2   133  VAL133      0.2287
    160  O         32.2460   -8.5470    8.7350 O.2   133  VAL133     -0.2864
    161  CB        31.4270   -6.4290    6.3650 C.3   133  VAL133      0.0276
    162  CG1       31.2020   -4.9770    5.9590 C.3   133  VAL133      0.0022
    163  CG2       32.8490   -6.8780    6.0390 C.3   133  VAL133      0.0022
    164  N         35.6370   -2.7340    6.2870 N.3   140  VAL140     -0.1245
    165  CA        35.6750   -1.9250    5.0700 C.3   140  VAL140      0.1561
    166  C         36.0060   -0.4860    5.4360 C.2   140  VAL140      0.2260
    167  O         35.4030    0.0550    6.3570 O.2   140  VAL140     -0.2867
    168  CB        34.3040   -1.8880    4.4010 C.3   140  VAL140      0.0252
    169  CG1       34.4100   -1.2470    3.0310 C.3   140  VAL140      0.0019
    170  CG2       33.7160   -3.2900    4.3210 C.3   140  VAL140      0.0019
    171  N         37.6340    3.7820    1.1090 N.3   144  PHE144     -0.1227
    172  CA        37.2510    2.9450   -0.0040 C.3   144  PHE144      0.1736
    173  C         35.8340    3.3190   -0.4170 C.2   144  PHE144      0.2595
    174  O         35.5650    3.5640   -1.5860 O.2   144  PHE144     -0.2718
    175  CB        37.3400    1.4580    0.3630 C.3   144  PHE144      0.0547
    176  CG        36.8730    0.5300   -0.7390 C.ar  144  PHE144     -0.0202
    177  CD1       37.4060    0.6290   -2.0160 C.ar  144  PHE144     -0.0042
    178  CD2       35.9070   -0.4360   -0.4980 C.ar  144  PHE144     -0.0042
    179  CE1       36.9870   -0.2160   -3.0350 C.ar  144  PHE144     -0.0003
    180  CE2       35.4820   -1.2950   -1.5130 C.ar  144  PHE144     -0.0003
    181  CZ        36.0260   -1.1850   -2.7830 C.ar  144  PHE144     -0.0000
    182  N         34.9340    3.3870    0.5560 N.am  145  LEU145     -0.1980
    183  CA        33.5530    3.7470    0.2620 C.3   145  LEU145      0.1596
    184  C         33.4210    5.1570   -0.3520 C.2   145  LEU145      0.2287
    185  O         32.6120    5.3690   -1.2450 O.2   145  LEU145     -0.2864
    186  CB        32.6690    3.5740    1.4980 C.3   145  LEU145      0.0297
    187  CG        32.6600    2.1500    2.0750 C.3   145  LEU145      0.0022
    188  CD1       31.8780    2.0720    3.3810 C.3   145  LEU145      0.0001
    189  CD2       32.1040    1.1680    1.0670 C.3   145  LEU145      0.0001
    190  N         25.3660    8.1430   -1.7180 N.3   155  ILE155     -0.1231
    191  CA        24.2780    7.4710   -1.0350 C.3   155  ILE155      0.1692
    192  C         24.7760    6.9940    0.3270 C.2   155  ILE155      0.2591
    193  O         24.0230    6.9360    1.2990 O.2   155  ILE155     -0.2718
    194  CB        23.7570    6.3110   -1.8830 C.3   155  ILE155      0.0266
    195  CG1       23.1140    6.8690   -3.1680 C.3   155  ILE155      0.0019
    196  CG2       22.7920    5.4620   -1.0890 C.3   155  ILE155      0.0020
    197  CD1       22.7470    5.8450   -4.1990 C.3   155  ILE155      0.0001
    198  N         26.0650    6.6800    0.3990 N.am  156  ILE156     -0.1980
    199  CA        26.6060    6.0390    1.5850 C.3   156  ILE156      0.1595
    200  C         27.0360    7.0280    2.6430 C.2   156  ILE156      0.2287
    201  O         26.7750    6.8270    3.8280 O.2   156  ILE156     -0.2864
    202  CB        27.8060    5.1330    1.2470 C.3   156  ILE156      0.0276
    203  CG1       27.3180    3.8370    0.5920 C.3   156  ILE156      0.0022
    204  CG2       28.5950    4.8670    2.4890 C.3   156  ILE156      0.0022
    205  CD1       28.4310    2.8770    0.2140 C.3   156  ILE156      0.0001
    206  N         24.7870    8.4600    5.7470 N.3   159  LYS159     -0.1245
    207  CA        24.5460    7.4490    6.7670 C.3   159  LYS159      0.1561
    208  C         25.7960    7.2870    7.6010 C.2   159  LYS159      0.2260
    209  O         25.7290    7.2210    8.8350 O.2   159  LYS159     -0.2867
    210  CB        24.1550    6.0970    6.1570 C.3   159  LYS159      0.0271
    211  CG        22.7880    6.0690    5.4790 C.3   159  LYS159      0.0035
    212  CD        22.8100    6.7810    4.1320 C.3   159  LYS159      0.0206
    213  CE        21.4830    6.5920    3.4110 C.3   159  LYS159      0.1093
    214  NZ        21.3310    7.3420    2.1270 N.3   159  LYS159     -0.1314
    215  N         17.0510    9.2200    1.4220 N.3   241  HIS241     -0.1241
    216  CA        17.3830    7.9010    0.8650 C.3   241  HIS241      0.1621
    217  C         16.3640    7.4530   -0.1880 C.2   241  HIS241      0.2264
    218  O         16.7250    6.8690   -1.2130 O.2   241  HIS241     -0.2867
    219  CB        17.4670    6.8650    1.9860 C.3   241  HIS241      0.0745
    220  CG        17.9360    5.5150    1.5440 C.ar  241  HIS241      0.0817
    221  ND1       19.2320    5.2750    1.1360 N.ar  241  HIS241     -0.2268
    222  CD2       17.2960    4.3230    1.4960 C.ar  241  HIS241      0.1154
    223  CE1       19.3620    3.9990    0.8270 C.ar  241  HIS241      0.1986
    224  NE2       18.2050    3.3970    1.0440 N.ar  241  HIS241     -0.2212
    225  N         17.2470    6.4140   -3.9540 N.3   245  MET245     -0.1245
    226  CA        16.9520    5.0920   -4.5100 C.3   245  MET245      0.1570
    227  C         16.0320    5.2030   -5.7350 C.2   245  MET245      0.2261
    228  O         16.1220    4.4050   -6.6710 O.2   245  MET245     -0.2867
    229  CB        16.3490    4.1680   -3.4570 C.3   245  MET245      0.0387
    230  CG        17.3510    3.6950   -2.3950 C.3   245  MET245      0.0595
    231  SD        18.9190    3.0540   -3.0870 S.3   245  MET245     -0.1393
    232  CE        19.9720    4.4320   -2.7230 C.3   245  MET245      0.0692
    233  N         14.0660   -4.9100   -1.1630 N.3   261  LEU261     -0.1245
    234  CA        14.2730   -3.4680   -1.1090 C.3   261  LEU261      0.1561
    235  C         13.3310   -2.7520   -2.0890 C.2   261  LEU261      0.2260
    236  O         12.7420   -1.7390   -1.7360 O.2   261  LEU261     -0.2867
    237  CB        15.7440   -3.1000   -1.3190 C.3   261  LEU261      0.0270
    238  CG        16.7140   -3.7350   -0.3150 C.3   261  LEU261      0.0019
    239  CD1       18.1240   -3.2250   -0.4810 C.3   261  LEU261      0.0001
    240  CD2       16.2860   -3.4960    1.1130 C.3   261  LEU261      0.0001
    241  N         10.8550    0.3970   -1.3450 N.3   265  TYR265     -0.1241
    242  CA        10.9220    1.7130   -1.9790 C.3   265  TYR265      0.1605
    243  C          9.6390    2.0400   -2.7340 C.2   265  TYR265      0.2264
    244  O          9.4110    3.2000   -3.1090 O.2   265  TYR265     -0.2867
    245  CB        12.0890    1.8280   -2.9710 C.3   265  TYR265      0.0534
    246  CG        13.4550    1.3990   -2.4770 C.ar  265  TYR265     -0.0201
    247  CD1       13.9040    1.7030   -1.1840 C.ar  265  TYR265     -0.0009
    248  CD2       14.3150    0.7090   -3.3250 C.ar  265  TYR265     -0.0009
    249  CE1       15.1860    1.3010   -0.7520 C.ar  265  TYR265      0.0417
    250  CE2       15.5700    0.3200   -2.9190 C.ar  265  TYR265      0.0417
    251  CZ        16.0030    0.6140   -1.6380 C.ar  265  TYR265      0.1957
    252  OH        17.2580    0.1950   -1.2820 O.3   265  TYR265     -0.2866
@<TRIPOS>BOND
     1   228   227    2
     2   227   226    1
     3    45    47   ar
     4    45    43   ar
     5    74    72   am
     6    31    32    1
     7    42    43    1
     8    42    39    1
     9    47    48   ar
    10   226   225    1
    11   226   229    1
    12    43    44   ar
    13   197   195    1
    14    38    39    1
    15    38    33   am
    16    72    73    2
    17    72    71    1
    18    16    14    1
    19    39    40    1
    20    48    46   ar
    21    40    41    2
    22    32    35    1
    23    32    33    1
    24   229   230    1
    25    44    46   ar
    26   248   250   ar
    27   248   246   ar
    28    37    35    1
    29    35    36    1
    30   195   194    1
    31    33    34    2
    32   244   243    2
    33   231   232    1
    34   231   230    1
    35   179   181   ar
    36   179   177   ar
    37    14    13    1
    38    14    15    1
    39   245   246    1
    40   245   242    1
    41   250   251   ar
    42   181   180   ar
    43   243   242    1
    44    13    10    1
    45    71    70    1
    46    11    12    2
    47    11    10    1
    48   246   247   ar
    49    49    50    1
    50   235   236    2
    51   235   234    1
    52   177   176   ar
    53   242   241    1
    54    10     9    1
    55   194   196    1
    56   194   191    1
    57    70    67    1
    58   190   191    1
    59   251   252    1
    60   251   249   ar
    61   174   173    2
    62    54    55    1
    63    54    53    1
    64   180   178   ar
    65   237   234    1
    66   237   238    1
    67    58    57    1
    68   185   184    2
    69   218   217    2
    70   247   249   ar
    71   233   234    1
    72   191   192    1
    73    50    53    1
    74    50    51    1
    75    55    56    1
    76   176   178   ar
    77   176   175    1
    78   239   238    1
    79    57    56    2
    80    57    59    1
    81   173   172    1
    82   173   182   am
    83    67    66    1
    84    67    68    1
    85   184   183    1
    86    66    62   am
    87   238   240    1
    88    60    51   am
    89    60    61    1
    90   217   216    1
    91   172   175    1
    92   172   171    1
    93    51    52    2
    94   205   203    1
    95    64    65    1
    96    64    61    1
    97   183   182    1
    98   183   186    1
    99   192   198   am
   100   192   193    2
   101   198   199    1
   102    68    69    2
   103   203   202    1
   104    61    62    1
   105     7     5    1
   106    62    63    2
   107   223   224   ar
   108   223   221   ar
   109   216   215    1
   110   216   219    1
   111   224   222   ar
   112   189   187    1
   113   221   220   ar
   114    20    19    2
   115   202   199    1
   116   202   204    1
   117    27    29   ar
   118    27    24   ar
   119   222   220   ar
   120   186   187    1
   121    21    22    1
   122    21    18    1
   123   220   219    1
   124   199   200    1
   125    29    30   ar
   126    19    18    1
   127    24    22   ar
   128    24    26   ar
   129   187   188    1
   130    22    23   ar
   131   214   213    1
   132     5     6    1
   133     5     2    1
   134     3     2    1
   135     3     4    2
   136    30    28   ar
   137     6     8    1
   138     2     1    1
   139    18    17    1
   140   200   201    2
   141    26    28   ar
   142    26    25   ar
   143    23    25   ar
   144   104   105   ar
   145   104   102   ar
   146    75    76    1
   147   169   168    1
   148   105   103   ar
   149   213   212    1
   150    86    88    1
   151    86    87    1
   152    86    83    1
   153   102   101   ar
   154   212   211    1
   155    82    83    1
   156    82    77   am
   157    80    79    1
   158   170   168    1
   159   103   101   ar
   160   168   165    1
   161    76    79    1
   162    76    77    1
   163    83    84    1
   164    84    85    2
   165    79    81    1
   166   101   100    1
   167    77    78    2
   168   165   166    1
   169   165   164    1
   170   124   123   ar
   171   124   122   ar
   172   166   167    2
   173   211   210    1
   174   206   207    1
   175   162   161    1
   176   123   121   ar
   177   122   120   ar
   178   100    97    1
   179   163   161    1
   180   210   207    1
   181   161   158    1
   182   207   208    1
   183   147   146    1
   184   148   146    1
   185   121   119   ar
   186    97    96    1
   187    97    98    1
   188   146   145    1
   189   120   119   ar
   190   113   111    1
   191   208   209    2
   192    89    90    1
   193   158   159    1
   194   158   157    1
   195   119   118    1
   196   159   160    2
   197   112   110    1
   198   144   143    2
   199    98    99    2
   200   132   130    1
   201   157   151   am
   202   141   142    1
   203    91    90    1
   204    91    92    2
   205    94    93    1
   206   111   110    1
   207    90    93    1
   208   145   142    1
   209   110   107    1
   210    93    95    1
   211   152   151    2
   212   143   142    1
   213   143   149   am
   214   151   150    1
   215   131   130    1
   216   118   115    1
   217   130   129    1
   218   114   115    1
   219   114   108   am
   220   115   116    1
   221   149   150    1
   222   150   153    1
   223   107   108    1
   224   107   106    1
   225   108   109    2
   226   129   126    1
   227   140   138    1
   228   116   117    2
   229   153   154    1
   230   138   137    1
   231   126   125    1
   232   126   127    1
   233   136   135    2
   234   156   154    1
   235   128   127    2
   236   154   155    1
   237   137   139    1
   238   137   134    1
   239   135   134    1
   240   134   133    1
