@<TRIPOS>MOLECULE
tmp/3spaA00.pdb
 100 96 0 0 0
SMALL
GASTEIGER

@<TRIPOS>ATOM
      1  N        -36.2160   24.2200  -13.7130 N.3    60  PHE60      -0.1227
      2  CA       -37.1370   25.3460  -13.8700 C.3    60  PHE60       0.1736
      3  C        -38.0880   25.6030  -12.7060 C.2    60  PHE60       0.2595
      4  O        -38.0920   26.7160  -12.1750 O.2    60  PHE60      -0.2718
      5  CB       -37.8650   25.3010  -15.2250 C.3    60  PHE60       0.0547
      6  CG       -38.4680   26.6220  -15.6390 C.ar   60  PHE60      -0.0202
      7  CD1      -37.6760   27.7600  -15.7600 C.ar   60  PHE60      -0.0042
      8  CD2      -39.8240   26.7310  -15.9070 C.ar   60  PHE60      -0.0042
      9  CE1      -38.2370   28.9860  -16.1230 C.ar   60  PHE60      -0.0003
     10  CE2      -40.3830   27.9560  -16.2850 C.ar   60  PHE60      -0.0003
     11  CZ       -39.5840   29.0740  -16.3960 C.ar   60  PHE60      -0.0000
     12  N        -38.8640   24.5760  -12.3000 N.am   61  LYS61      -0.1980
     13  CA       -39.8240   24.6170  -11.1930 C.3    61  LYS61       0.1596
     14  C        -39.1920   25.0800   -9.8740 C.2    61  LYS61       0.2287
     15  O        -39.7870   25.8990   -9.1710 O.2    61  LYS61      -0.2864
     16  CB       -40.5220   23.2540  -11.0270 C.3    61  LYS61       0.0298
     17  CG       -41.6080   23.0120  -12.0720 C.3    61  LYS61       0.0038
     18  CD       -42.3060   21.6700  -11.8940 C.3    61  LYS61       0.0206
     19  CE       -43.6590   21.6200  -12.5780 C.3    61  LYS61       0.1093
     20  NZ       -43.5570   21.6110  -14.0650 N.3    61  LYS61      -0.1314
     21  N        -38.3610   28.8130  -10.4130 N.3    64  VAL64      -0.1231
     22  CA       -39.6380   29.5340  -10.3960 C.3    64  VAL64       0.1692
     23  C        -40.1220   29.7040   -8.9440 C.2    64  VAL64       0.2592
     24  O        -40.6080   30.7770   -8.5940 O.2    64  VAL64      -0.2718
     25  CB       -40.6760   28.8510  -11.3300 C.3    64  VAL64       0.0266
     26  CG1      -42.1070   29.2890  -11.0310 C.3    64  VAL64       0.0020
     27  CG2      -40.3390   29.1120  -12.7920 C.3    64  VAL64       0.0020
     28  N        -39.9240   28.6690   -8.0950 N.am   65  TYR65      -0.1976
     29  CA       -40.2560   28.6990   -6.6660 C.3    65  TYR65       0.1639
     30  C        -39.4420   29.7870   -5.9640 C.2    65  TYR65       0.2290
     31  O        -39.9640   30.4630   -5.0790 O.2    65  TYR65      -0.2864
     32  CB       -39.9660   27.3380   -6.0150 C.3    65  TYR65       0.0560
     33  CG       -40.3840   27.2380   -4.5610 C.ar   65  TYR65      -0.0198
     34  CD1      -41.6650   26.8190   -4.2110 C.ar   65  TYR65      -0.0009
     35  CD2      -39.4800   27.5100   -3.5320 C.ar   65  TYR65      -0.0009
     36  CE1      -42.0530   26.7160   -2.8770 C.ar   65  TYR65       0.0417
     37  CE2      -39.8560   27.4050   -2.1940 C.ar   65  TYR65       0.0417
     38  CZ       -41.1450   27.0070   -1.8720 C.ar   65  TYR65       0.1957
     39  OH       -41.5320   26.8950   -0.5600 O.3    65  TYR65      -0.2866
     40  N        -38.3060   32.5040   -7.4680 N.3    67  LEU67      -0.1231
     41  CA       -38.8170   33.7850   -7.9710 C.3    67  LEU67       0.1693
     42  C        -39.9920   34.2260   -7.1160 C.2    67  LEU67       0.2592
     43  O        -40.0200   35.3720   -6.6620 O.2    67  LEU67      -0.2718
     44  CB       -39.2450   33.7080   -9.4470 C.3    67  LEU67       0.0284
     45  CG       -38.1540   33.8370  -10.5140 C.3    67  LEU67       0.0019
     46  CD1      -38.7340   33.5770  -11.8940 C.3    67  LEU67       0.0001
     47  CD2      -37.5030   35.2180  -10.4990 C.3    67  LEU67       0.0001
     48  N        -40.9340   33.2950   -6.8560 N.am   68  PHE68      -0.1976
     49  CA       -42.0970   33.5330   -6.0110 C.3    68  PHE68       0.1639
     50  C        -41.6830   33.8170   -4.5730 C.2    68  PHE68       0.2290
     51  O        -42.3210   34.6300   -3.9090 O.2    68  PHE68      -0.2864
     52  CB       -43.0950   32.3800   -6.1100 C.3    68  PHE68       0.0560
     53  CG       -43.9460   32.4510   -7.3590 C.ar   68  PHE68      -0.0200
     54  CD1      -45.1870   33.0720   -7.3380 C.ar   68  PHE68      -0.0042
     55  CD2      -43.4990   31.9130   -8.5600 C.ar   68  PHE68      -0.0042
     56  CE1      -45.9800   33.1290   -8.4940 C.ar   68  PHE68      -0.0003
     57  CE2      -44.2800   31.9860   -9.7170 C.ar   68  PHE68      -0.0003
     58  CZ       -45.5200   32.5850   -9.6760 C.ar   68  PHE68      -0.0000
     59  N        -40.6160   37.6350   -4.3960 N.3    71  LYS71      -0.1245
     60  CA       -41.8030   38.4800   -4.3050 C.3    71  LYS71       0.1561
     61  C        -42.3660   38.5060   -2.8760 C.2    71  LYS71       0.2260
     62  O        -42.5790   39.5900   -2.3310 O.2    71  LYS71      -0.2867
     63  CB       -42.8890   37.9790   -5.2750 C.3    71  LYS71       0.0271
     64  CG       -42.6240   38.2700   -6.7510 C.3    71  LYS71       0.0035
     65  CD       -43.7550   37.7410   -7.6480 C.3    71  LYS71       0.0206
     66  CE       -44.9880   38.6200   -7.6720 C.3    71  LYS71       0.1093
     67  NZ       -46.1240   37.9630   -8.3710 N.3    71  LYS71      -0.1314
     68  N        -42.9980   31.5980  -24.3780 N.3    98  THR98      -0.1218
     69  CA       -42.5970   31.5610  -22.9650 C.3    98  THR98       0.1862
     70  C        -41.3800   32.4540  -22.6770 C.2    98  THR98       0.2287
     71  O        -41.3490   33.1240  -21.6390 O.2    98  THR98      -0.2866
     72  CB       -42.3960   30.1170  -22.4790 C.3    98  THR98       0.1770
     73  OG1      -41.4430   29.4620  -23.3180 O.3    98  THR98      -0.2211
     74  CG2      -43.7040   29.3220  -22.4280 C.3    98  THR98       0.0375
     75  N        -42.4470   36.2840  -23.1300 N.3   101  ARG101     -0.1231
     76  CA       -43.2270   36.7440  -21.9730 C.3   101  ARG101      0.1694
     77  C        -42.3110   37.1850  -20.8320 C.2   101  ARG101      0.2592
     78  O        -42.5960   38.1860  -20.1710 O.2   101  ARG101     -0.2718
     79  CB       -44.2190   35.6670  -21.4930 C.3   101  ARG101      0.0321
     80  CG       -45.4580   35.5030  -22.3770 C.3   101  ARG101      0.0489
     81  CD       -46.5280   36.5500  -22.1280 C.3   101  ARG101      0.2205
     82  NE       -47.6700   36.3620  -23.0240 N.pl3 101  ARG101     -0.0865
     83  CZ       -48.6950   37.2030  -23.1290 C.cat 101  ARG101      0.5346
     84  NH1      -48.7330   38.3090  -22.3940 N.pl3 101  ARG101      0.1354
     85  NH2      -49.6860   36.9480  -23.9720 N.pl3 101  ARG101      0.1354
     86  N        -41.1970   36.4530  -20.6260 N.am  102  CYS102     -0.1970
     87  CA       -40.1850   36.7770  -19.6220 C.3   102  CYS102      0.1712
     88  C        -39.4400   38.0390  -20.0700 C.2   102  CYS102      0.2296
     89  O        -39.1380   38.9000  -19.2410 O.2   102  CYS102     -0.2864
     90  CB       -39.2310   35.6030  -19.4170 C.3   102  CYS102      0.0983
     91  SG       -38.2710   35.6810  -17.8810 S.3   102  CYS102     -0.0798
     92  N        -41.6610   41.1740  -19.5130 N.3   105  GLN105     -0.1245
     93  CA       -41.6410   41.5060  -18.0820 C.3   105  GLN105      0.1566
     94  C        -40.3630   42.2990  -17.7310 C.2   105  GLN105      0.2260
     95  O        -40.3960   43.1810  -16.8650 O.2   105  GLN105     -0.2867
     96  CB       -41.7260   40.2030  -17.2580 C.3   105  GLN105      0.0367
     97  CG       -41.8130   40.3700  -15.7390 C.3   105  GLN105      0.0905
     98  CD       -43.2030   40.6640  -15.2440 C.2   105  GLN105      0.2608
     99  OE1      -44.0820   39.7980  -15.2320 O.2   105  GLN105     -0.2717
    100  NE2      -43.4130   41.8800  -14.7680 N.am  105  GLN105     -0.0878
@<TRIPOS>BOND
     1    68    69    1
     2    85    83    1
     3    73    72    1
     4    75    76    1
     5    83    82    2
     6    83    84    1
     7    82    81    1
     8    69    70    1
     9    69    72    1
    10    70    71    2
    11    72    74    1
    12    80    81    1
    13    80    79    1
    14    76    79    1
    15    76    77    1
    16    77    86   am
    17    77    78    2
    18    86    87    1
    19    88    87    1
    20    88    89    2
    21    87    90    1
    22    92    93    1
    23    90    91    1
    24    93    94    1
    25    93    96    1
    26    94    95    2
    27    96    97    1
    28    11    10   ar
    29    11     9   ar
    30    10     8   ar
    31     9     7   ar
    32     8     6   ar
    33     7     6   ar
    34    97    98    1
    35     6     5    1
    36    98    99    2
    37    98   100   am
    38     5     2    1
    39    20    19    1
    40     2     1    1
    41     2     3    1
    42    27    25    1
    43     3    12   am
    44     3     4    2
    45    19    18    1
    46    12    13    1
    47    17    18    1
    48    17    16    1
    49    46    45    1
    50    25    26    1
    51    25    22    1
    52    13    16    1
    53    13    14    1
    54    45    47    1
    55    45    44    1
    56    21    22    1
    57    22    23    1
    58    14    15    2
    59    57    58   ar
    60    57    55   ar
    61    58    56   ar
    62    44    41    1
    63    23    24    2
    64    23    28   am
    65    55    53   ar
    66    56    54   ar
    67    67    66    1
    68    28    29    1
    69    41    40    1
    70    41    42    1
    71    66    65    1
    72    65    64    1
    73    53    54   ar
    74    53    52    1
    75    42    48   am
    76    42    43    2
    77    48    49    1
    78    64    63    1
    79    29    32    1
    80    29    30    1
    81    52    49    1
    82    32    33    1
    83    49    50    1
    84    30    31    2
    85    63    60    1
    86    50    51    2
    87    33    34   ar
    88    33    35   ar
    89    59    60    1
    90    60    61    1
    91    34    36   ar
    92    35    37   ar
    93    36    38   ar
    94    61    62    2
    95    37    38   ar
    96    38    39    1
