@<TRIPOS>MOLECULE
tmp/3spfA00.pdb
 107 101 0 0 0
SMALL
GASTEIGER

@<TRIPOS>ATOM
      1  N         31.4970   22.9300  -20.7920 N.3    42  PHE42      -0.1241
      2  CA        31.0610   21.5930  -21.1600 C.3    42  PHE42       0.1605
      3  C         29.5940   21.3770  -20.7730 C.2    42  PHE42       0.2264
      4  O         28.7930   20.8830  -21.5790 O.2    42  PHE42      -0.2867
      5  CB        31.9580   20.5660  -20.4680 C.3    42  PHE42       0.0534
      6  CG        31.6030   19.1570  -20.8310 C.ar   42  PHE42      -0.0203
      7  CD1       30.6730   18.4390  -20.0760 C.ar   42  PHE42      -0.0042
      8  CD2       32.2130   18.5260  -21.9090 C.ar   42  PHE42      -0.0042
      9  CE1       30.3460   17.1290  -20.4120 C.ar   42  PHE42      -0.0003
     10  CE2       31.8850   17.2090  -22.2370 C.ar   42  PHE42      -0.0003
     11  CZ        30.9400   16.5320  -21.4980 C.ar   42  PHE42      -0.0000
     12  N         26.5330   20.6510  -23.3250 N.3    46  TYR46      -0.1241
     13  CA        25.9010   19.3300  -23.2500 C.3    46  TYR46       0.1605
     14  C         24.8380   19.2010  -22.1450 C.2    46  TYR46       0.2264
     15  O         24.5730   18.0830  -21.6890 O.2    46  TYR46      -0.2867
     16  CB        26.9940   18.2580  -23.0630 C.3    46  TYR46       0.0534
     17  CG        28.0050   18.2370  -24.1920 C.ar   46  TYR46      -0.0201
     18  CD1       27.6370   17.8440  -25.4780 C.ar   46  TYR46      -0.0009
     19  CD2       29.3100   18.6730  -23.9930 C.ar   46  TYR46      -0.0009
     20  CE1       28.5590   17.8400  -26.5260 C.ar   46  TYR46       0.0417
     21  CE2       30.2470   18.6560  -25.0290 C.ar   46  TYR46       0.0417
     22  CZ        29.8600   18.2590  -26.2980 C.ar   46  TYR46       0.1957
     23  OH        30.7870   18.2420  -27.3150 O.3    46  TYR46      -0.2866
     24  N         22.4980   16.1720  -22.3070 N.3    49  ALA49      -0.1231
     25  CA        23.1200   14.9150  -21.9030 C.3    49  ALA49       0.1694
     26  C         23.1700   14.7690  -20.3720 C.2    49  ALA49       0.2592
     27  O         23.1200   13.6410  -19.8790 O.2    49  ALA49      -0.2718
     28  CB        24.5120   14.8250  -22.4820 C.3    49  ALA49       0.0304
     29  N         23.2640   15.8960  -19.6250 N.am   50  PHE50      -0.1976
     30  CA        23.2490   15.8570  -18.1500 C.3    50  PHE50       0.1639
     31  C         21.8590   15.4610  -17.6730 C.2    50  PHE50       0.2290
     32  O         21.7280   14.6790  -16.7280 O.2    50  PHE50      -0.2864
     33  CB        23.6210   17.2220  -17.5530 C.3    50  PHE50       0.0560
     34  CG        25.0960   17.5190  -17.4900 C.ar   50  PHE50      -0.0200
     35  CD1       25.8310   17.7310  -18.6540 C.ar   50  PHE50      -0.0042
     36  CD2       25.7420   17.6530  -16.2660 C.ar   50  PHE50      -0.0042
     37  CE1       27.1900   18.0280  -18.5960 C.ar   50  PHE50      -0.0003
     38  CE2       27.1090   17.9520  -16.2110 C.ar   50  PHE50      -0.0003
     39  CZ        27.8170   18.1490  -17.3730 C.ar   50  PHE50      -0.0000
     40  N         21.4540   11.8500  -18.2220 N.3    53  LEU53      -0.1245
     41  CA        22.2240   11.1460  -17.1930 C.3    53  LEU53       0.1561
     42  C         21.4690   11.1100  -15.8530 C.2    53  LEU53       0.2260
     43  O         21.3320   10.0350  -15.2650 O.2    53  LEU53      -0.2867
     44  CB        23.6000   11.8050  -17.0040 C.3    53  LEU53       0.0270
     45  CG        24.5020   11.1490  -15.9410 C.3    53  LEU53       0.0019
     46  CD1       25.0620    9.8150  -16.4290 C.3    53  LEU53       0.0001
     47  CD2       25.6130   12.0890  -15.5230 C.3    53  LEU53       0.0001
     48  N         30.4420    4.3690  -17.3750 N.3    71  VAL71      -0.1245
     49  CA        30.5060    5.6210  -18.1130 C.3    71  VAL71       0.1561
     50  C         31.9640    5.9970  -18.4040 C.2    71  VAL71       0.2260
     51  O         32.2940    6.3240  -19.5500 O.2    71  VAL71      -0.2867
     52  CB        29.7450    6.7400  -17.3670 C.3    71  VAL71       0.0252
     53  CG1       30.0030    8.1090  -18.0000 C.3    71  VAL71       0.0019
     54  CG2       28.2380    6.4280  -17.3020 C.3    71  VAL71       0.0019
     55  N         33.4590    3.8690  -21.1420 N.3    74  GLU74      -0.1231
     56  CA        32.8950    4.2560  -22.4330 C.3    74  GLU74       0.1699
     57  C         33.5120    5.5780  -22.9070 C.2    74  GLU74       0.2592
     58  O         33.8600    5.7120  -24.0810 O.2    74  GLU74      -0.2718
     59  CB        31.3610    4.3760  -22.3440 C.3    74  GLU74       0.0402
     60  CG        30.6730    4.6560  -23.6760 C.3    74  GLU74       0.1161
     61  CD        30.7350    3.5580  -24.7250 C.2    74  GLU74       0.3649
     62  OE1       30.8320    2.3670  -24.3490 O.co2  74  GLU74      -0.2457
     63  OE2       30.6570    3.8920  -25.9290 O.co2  74  GLU74      -0.2457
     64  N         33.7000    6.5180  -21.9850 N.am   75  LEU75      -0.1980
     65  CA        34.2470    7.8280  -22.3330 C.3    75  LEU75       0.1596
     66  C         35.6480    7.7250  -22.9360 C.2    75  LEU75       0.2287
     67  O         35.9570    8.4300  -23.9040 O.2    75  LEU75      -0.2864
     68  CB        34.2740    8.6920  -21.0600 C.3    75  LEU75       0.0297
     69  CG        34.8240   10.0870  -21.1660 C.3    75  LEU75       0.0022
     70  CD1       34.0770   10.9070  -22.2300 C.3    75  LEU75       0.0001
     71  CD2       34.7290   10.7730  -19.8220 C.3    75  LEU75       0.0001
     72  N         39.2420   17.0310  -24.2290 N.3    83  GLY83      -0.1210
     73  CA        37.7850   17.1040  -24.1480 C.3    83  GLY83       0.1956
     74  C         37.1880   15.9780  -23.3200 C.2    83  GLY83       0.2611
     75  O         36.2810   16.2040  -22.5130 O.2    83  GLY83      -0.2717
     76  N         37.7240   14.7510  -23.4720 N.am   84  ARG84      -0.1979
     77  CA        37.2270   13.6060  -22.6940 C.3    84  ARG84       0.1597
     78  C         37.6210   13.7380  -21.2060 C.2    84  ARG84       0.2287
     79  O         36.8590   13.3230  -20.3190 O.2    84  ARG84      -0.2864
     80  CB        37.7220   12.2900  -23.2910 C.3    84  ARG84       0.0334
     81  CG        37.0520   11.9900  -24.6310 C.3    84  ARG84       0.0492
     82  CD        37.8730   11.0060  -25.4330 C.3    84  ARG84       0.2205
     83  NE        37.3330   10.8460  -26.7810 N.pl3  84  ARG84      -0.0865
     84  CZ        38.0070   10.3440  -27.8140 C.cat  84  ARG84       0.5346
     85  NH1       39.2680    9.9530  -27.6680 N.pl3  84  ARG84       0.1354
     86  NH2       37.4250   10.2280  -28.9990 N.pl3  84  ARG84       0.1354
     87  N         35.0900   15.9860  -19.8260 N.3    87  ALA87      -0.1245
     88  CA        33.8470   15.2130  -19.6550 C.3    87  ALA87       0.1562
     89  C         33.9170   14.3460  -18.3930 C.2    87  ALA87       0.2260
     90  O         32.9230   14.1980  -17.6910 O.2    87  ALA87      -0.2867
     91  CB        33.6100   14.3220  -20.8700 C.3    87  ALA87       0.0290
     92  N         31.3850   14.6200  -15.4270 N.3    91  PHE91      -0.1241
     93  CA        30.5760   13.4660  -15.0540 C.3    91  PHE91       0.1605
     94  C         30.6550   13.2300  -13.5470 C.2    91  PHE91       0.2264
     95  O         29.6150   13.0380  -12.9020 O.2    91  PHE91      -0.2867
     96  CB        31.0350   12.2370  -15.8440 C.3    91  PHE91       0.0534
     97  CG        30.4100   10.9650  -15.3330 C.ar   91  PHE91      -0.0203
     98  CD1       29.0360   10.7880  -15.3650 C.ar   91  PHE91      -0.0042
     99  CD2       31.2040    9.9370  -14.8410 C.ar   91  PHE91      -0.0042
    100  CE1       28.4530    9.6040  -14.9000 C.ar   91  PHE91      -0.0003
    101  CE2       30.6210    8.7550  -14.3590 C.ar   91  PHE91      -0.0003
    102  CZ        29.2540    8.5920  -14.4010 C.ar   91  PHE91      -0.0000
    103  N         28.5890   15.7990  -11.7900 N.3    94  ALA94      -0.1245
    104  CA        27.1580   15.4960  -11.9260 C.3    94  ALA94       0.1562
    105  C         26.7270   14.3540  -10.9930 C.2    94  ALA94       0.2260
    106  O         25.6430   14.4100  -10.4030 O.2    94  ALA94      -0.2867
    107  CB        26.8450   15.1300  -13.3690 C.3    94  ALA94       0.0290
@<TRIPOS>BOND
     1    86    84    1
     2    84    85    1
     3    84    83    2
     4    23    22    1
     5    83    82    1
     6    20    22   ar
     7    20    18   ar
     8    22    21   ar
     9    63    61   ar
    10    18    17   ar
    11    82    81    1
    12    21    19   ar
    13    61    62   ar
    14    61    60    1
    15    81    80    1
    16    72    73    1
    17    17    19   ar
    18    17    16    1
    19    73    74    1
    20    58    57    2
    21    67    66    2
    22    60    59    1
    23    76    74   am
    24    76    77    1
    25    12    13    1
    26    74    75    2
    27    80    77    1
    28    13    16    1
    29    13    14    1
    30    66    65    1
    31    57    56    1
    32    57    64   am
    33    77    78    1
    34    28    25    1
    35    56    59    1
    36    56    55    1
    37    65    64    1
    38    65    68    1
    39    24    25    1
    40    10     8   ar
    41    10    11   ar
    42    70    69    1
    43    14    15    2
    44     8     6   ar
    45    25    26    1
    46     4     3    2
    47    11     9   ar
    48    78    79    2
    49    69    68    1
    50    69    71    1
    51     2     1    1
    52     2     3    1
    53     2     5    1
    54    91    88    1
    55     6     5    1
    56     6     7   ar
    57     9     7   ar
    58    26    27    2
    59    26    29   am
    60    87    88    1
    61    88    89    1
    62    29    30    1
    63    51    50    2
    64    35    37   ar
    65    35    34   ar
    66    37    39   ar
    67    50    49    1
    68    89    90    2
    69    40    41    1
    70    30    31    1
    71    30    33    1
    72    49    48    1
    73    49    52    1
    74    53    52    1
    75    31    32    2
    76    33    34    1
    77    34    36   ar
    78    39    38   ar
    79    52    54    1
    80    41    44    1
    81    41    42    1
    82    44    45    1
    83    46    45    1
    84    36    38   ar
    85    45    47    1
    86    42    43    2
    87    96    97    1
    88    96    93    1
    89    92    93    1
    90    98    97   ar
    91    98   100   ar
    92    97    99   ar
    93    93    94    1
    94   100   102   ar
    95    99   101   ar
    96   102   101   ar
    97    94    95    2
    98   107   104    1
    99   104   103    1
   100   104   105    1
   101   105   106    2
