@<TRIPOS>MOLECULE
tmp/3spgA00.pdb
 96 93 0 0 0
SMALL
GASTEIGER

@<TRIPOS>ATOM
      1  N        -41.2730  -24.8690    6.3250 N.3    36  ASP36      -0.1225
      2  CA       -40.5580  -23.8680    5.5320 C.3    36  ASP36       0.1805
      3  C        -39.8640  -22.7630    6.3460 C.2    36  ASP36       0.2598
      4  O        -38.8040  -22.2670    5.9460 O.2    36  ASP36      -0.2718
      5  CB       -41.4620  -23.2680    4.4520 C.3    36  ASP36       0.1424
      6  CG       -41.6290  -24.1890    3.2490 C.2    36  ASP36       0.3668
      7  OD1      -40.8490  -25.1610    3.1240 O.co2  36  ASP36      -0.2456
      8  OD2      -42.5340  -23.9310    2.4220 O.co2  36  ASP36      -0.2456
      9  N        -40.4550  -22.3780    7.4770 N.am   37  ILE37      -0.1966
     10  CA       -39.8710  -21.3350    8.3170 C.3    37  ILE37       0.1727
     11  C        -38.5570  -21.8170    8.9300 C.2    37  ILE37       0.2616
     12  O        -38.2730  -23.0140    8.9380 O.2    37  ILE37      -0.2715
     13  CB       -40.8260  -20.8350    9.4410 C.3    37  ILE37       0.0290
     14  CG1      -41.0720  -21.9170   10.4820 C.3    37  ILE37       0.0022
     15  CG2      -42.1420  -20.3560    8.8790 C.3    37  ILE37       0.0023
     16  CD1      -42.0710  -21.4950   11.5430 C.3    37  ILE37       0.0001
     17  N        -37.7450  -20.8730    9.4010 N.am   38  ARG38      -0.1963
     18  CA       -36.4490  -21.1750   10.0020 C.3    38  ARG38       0.1729
     19  C        -36.5760  -22.0440   11.2450 C.2    38  ARG38       0.2616
     20  O        -37.5900  -22.0040   11.9410 O.2    38  ARG38      -0.2715
     21  CB       -35.7280  -19.8830   10.3770 C.3    38  ARG38       0.0348
     22  CG       -35.4850  -18.9540    9.2210 C.3    38  ARG38       0.0492
     23  CD       -34.8770  -17.6430    9.6830 C.3    38  ARG38       0.2205
     24  NE       -33.5140  -17.7960   10.1790 N.pl3  38  ARG38      -0.0865
     25  CZ       -32.7600  -16.7840   10.6020 C.cat  38  ARG38       0.5346
     26  NH1      -33.2420  -15.5440   10.5850 N.pl3  38  ARG38       0.1354
     27  NH2      -31.5270  -17.0080   11.0420 N.pl3  38  ARG38       0.1354
     28  N        -35.5340  -22.8230   11.5220 N.am   39  TRP39      -0.1960
     29  CA       -35.4940  -23.6870   12.6960 C.3    39  TRP39       0.1771
     30  C        -35.8990  -22.9610   13.9790 C.2    39  TRP39       0.2619
     31  O        -36.6810  -23.4830   14.7680 O.2    39  TRP39      -0.2715
     32  CB       -34.0910  -24.2690   12.8800 C.3    39  TRP39       0.0590
     33  CG       -33.8080  -25.5040   12.0790 C.ar   39  TRP39       0.0006
     34  CD1      -32.9350  -25.6200   11.0390 C.ar   39  TRP39       0.0946
     35  CD2      -34.3830  -26.8050   12.2640 C.ar   39  TRP39       0.0152
     36  NE1      -32.9330  -26.9080   10.5570 N.ar   39  TRP39      -0.2442
     37  CE2      -33.8150  -27.6570   11.2920 C.ar   39  TRP39       0.0810
     38  CE3      -35.3240  -27.3310   13.1550 C.ar   39  TRP39       0.0012
     39  CZ2      -34.1580  -29.0050   11.1820 C.ar   39  TRP39       0.0191
     40  CZ3      -35.6640  -28.6660   13.0470 C.ar   39  TRP39       0.0001
     41  CH2      -35.0830  -29.4910   12.0630 C.ar   39  TRP39       0.0015
     42  N        -35.3700  -21.7580   14.1870 N.am   40  ARG40      -0.1977
     43  CA       -35.6250  -21.0250   15.4270 C.3    40  ARG40       0.1597
     44  C        -37.0920  -20.6370   15.6050 C.2    40  ARG40       0.2287
     45  O        -37.5780  -20.5400   16.7290 O.2    40  ARG40      -0.2864
     46  CB       -34.7400  -19.7820   15.5250 C.3    40  ARG40       0.0334
     47  CG       -35.1730  -18.6420   14.6230 C.3    40  ARG40       0.0492
     48  CD       -34.1590  -17.5170   14.6550 C.3    40  ARG40       0.2205
     49  NE       -32.8050  -18.0230   14.4420 N.pl3  40  ARG40      -0.0865
     50  CZ       -31.6960  -17.3070   14.6130 C.cat  40  ARG40       0.5346
     51  NH1      -30.5090  -17.8640   14.3940 N.pl3  40  ARG40       0.1354
     52  NH2      -31.7730  -16.0400   15.0060 N.pl3  40  ARG40       0.1354
     53  N        -39.1240  -24.0760   16.3070 N.3    43  LEU43      -0.1245
     54  CA       -38.9220  -24.5450   17.6720 C.3    43  LEU43       0.1561
     55  C        -39.6200  -23.6230   18.6610 C.2    43  LEU43       0.2260
     56  O        -40.3190  -24.0780   19.5630 O.2    43  LEU43      -0.2867
     57  CB       -37.4310  -24.6790   17.9880 C.3    43  LEU43       0.0270
     58  CG       -36.6840  -25.6920   17.1050 C.3    43  LEU43       0.0019
     59  CD1      -35.1840  -25.6620   17.3500 C.3    43  LEU43       0.0001
     60  CD2      -37.2230  -27.0970   17.2940 C.3    43  LEU43       0.0001
     61  N        -38.3830  -31.5380    8.6730 N.3   143  LYS143     -0.1245
     62  CA       -37.4780  -30.4310    8.3900 C.3   143  LYS143      0.1561
     63  C        -36.0120  -30.8630    8.3640 C.2   143  LYS143      0.2260
     64  O        -35.1850  -30.2790    7.6610 O.2   143  LYS143     -0.2867
     65  CB       -37.6820  -29.2990    9.3880 C.3   143  LYS143      0.0271
     66  CG       -36.8940  -28.0380    9.0530 C.3   143  LYS143      0.0035
     67  CD       -37.4330  -26.8190    9.7750 C.3   143  LYS143      0.0206
     68  CE       -36.6420  -25.5730    9.4210 C.3   143  LYS143      0.1093
     69  NZ       -36.7550  -25.1920    7.9830 N.3   143  LYS143     -0.1314
     70  N        -33.2560  -30.5780   -0.2190 N.3   148  LYS148     -0.1231
     71  CA       -32.6630  -29.4820   -0.9730 C.3   148  LYS148      0.1693
     72  C        -31.2640  -29.1800   -0.4590 C.2   148  LYS148      0.2591
     73  O        -30.4240  -28.6630   -1.2000 O.2   148  LYS148     -0.2718
     74  CB       -33.5290  -28.2310   -0.9070 C.3   148  LYS148      0.0285
     75  CG       -33.6340  -27.6460    0.4680 C.3   148  LYS148      0.0035
     76  CD       -34.3480  -26.3160    0.4270 C.3   148  LYS148      0.0206
     77  CE       -34.5680  -25.8090    1.8430 C.3   148  LYS148      0.1093
     78  NZ       -35.2700  -24.4990    1.8480 N.3   148  LYS148     -0.1314
     79  N        -31.0060  -29.5090    0.8050 N.am  149  LYS149     -0.1980
     80  CA       -29.6640  -29.3300    1.3410 C.3   149  LYS149      0.1596
     81  C        -28.6280  -30.1390    0.5470 C.2   149  LYS149      0.2287
     82  O        -27.4920  -29.6970    0.3760 O.2   149  LYS149     -0.2864
     83  CB       -29.6260  -29.6800    2.8150 C.3   149  LYS149      0.0298
     84  CG       -30.6070  -28.8770    3.6480 C.3   149  LYS149      0.0038
     85  CD       -30.2100  -27.4100    3.7730 C.3   149  LYS149      0.0206
     86  CE       -31.1410  -26.6880    4.7510 C.3   149  LYS149      0.1093
     87  NZ       -30.7230  -25.2900    5.0670 N.3   149  LYS149     -0.1314
     88  N        -26.1830  -28.8090   -2.0830 N.3   152  GLN152     -0.1245
     89  CA       -24.9390  -28.1060   -1.7840 C.3   152  GLN152      0.1566
     90  C        -23.7220  -29.0170   -1.8400 C.2   152  GLN152      0.2260
     91  O        -22.5860  -28.5570   -1.7700 O.2   152  GLN152     -0.2867
     92  CB       -25.0130  -27.4040   -0.4310 C.3   152  GLN152      0.0367
     93  CG       -25.9310  -26.1990   -0.4230 C.3   152  GLN152      0.0905
     94  CD       -25.5220  -25.1800    0.6180 C.2   152  GLN152      0.2608
     95  OE1      -24.3800  -24.7020    0.6200 O.2   152  GLN152     -0.2717
     96  NE2      -26.4450  -24.8500    1.5250 N.am  152  GLN152     -0.0878
@<TRIPOS>BOND
     1    88    89    1
     2    90    89    1
     3    90    91    2
     4    89    92    1
     5    73    72    2
     6    71    74    1
     7    71    72    1
     8    71    70    1
     9    74    75    1
    10    72    79   am
    11    92    93    1
    12    93    94    1
    13    82    81    2
    14    76    75    1
    15    76    77    1
    16    81    80    1
    17    94    95    2
    18    94    96   am
    19    79    80    1
    20    80    83    1
    21    77    78    1
    22     8     6   ar
    23    83    84    1
    24     7     6   ar
    25     6     5    1
    26    84    85    1
    27    85    86    1
    28     5     2    1
    29    86    87    1
    30     2     1    1
    31     2     3    1
    32     4     3    2
    33     3     9   am
    34     9    10    1
    35    64    63    2
    36    69    68    1
    37    10    11    1
    38    10    13    1
    39    63    62    1
    40    62    61    1
    41    62    65    1
    42    15    13    1
    43    11    12    2
    44    11    17   am
    45    66    65    1
    46    66    67    1
    47    22    23    1
    48    22    21    1
    49    17    18    1
    50    68    67    1
    51    13    14    1
    52    23    24    1
    53    18    21    1
    54    18    19    1
    55    24    25    2
    56    14    16    1
    57    36    34   ar
    58    36    37   ar
    59    26    25    1
    60    25    27    1
    61    34    33   ar
    62    39    37   ar
    63    39    41   ar
    64    19    28   am
    65    19    20    2
    66    37    35   ar
    67    28    29    1
    68    41    40   ar
    69    33    35   ar
    70    33    32    1
    71    35    38   ar
    72    29    32    1
    73    29    30    1
    74    40    38   ar
    75    30    42   am
    76    30    31    2
    77    42    43    1
    78    51    50    1
    79    49    50    2
    80    49    48    1
    81    50    52    1
    82    47    48    1
    83    47    46    1
    84    43    46    1
    85    43    44    1
    86    44    45    2
    87    53    54    1
    88    58    60    1
    89    58    59    1
    90    58    57    1
    91    54    57    1
    92    54    55    1
    93    55    56    2
