@<TRIPOS>MOLECULE
tmp/3splC00.pdb
 166 163 0 0 0
SMALL
GASTEIGER

@<TRIPOS>ATOM
      1  N         60.4480   70.8660  -51.6480 N.3     5  ASN5       -0.1225
      2  CA        60.9140   71.8150  -50.6390 C.3     5  ASN5        0.1785
      3  C         62.3030   72.4150  -50.8710 C.2     5  ASN5        0.2597
      4  O         62.6070   73.4790  -50.3380 O.2     5  ASN5       -0.2718
      5  CB        60.8610   71.1830  -49.2490 C.3     5  ASN5        0.1169
      6  CG        59.4830   71.2600  -48.6220 C.2     5  ASN5        0.2627
      7  OD1       58.5430   71.7980  -49.2090 O.2     5  ASN5       -0.2716
      8  ND2       59.3610   70.7250  -47.4170 N.am    5  ASN5       -0.0877
      9  N         63.1500   71.7370  -51.6440 N.am    6  LEU6       -0.1980
     10  CA        64.5140   72.2300  -51.8620 C.3     6  LEU6        0.1596
     11  C         64.6120   73.1790  -53.0540 C.2     6  LEU6        0.2287
     12  O         65.6610   73.7890  -53.2960 O.2     6  LEU6       -0.2864
     13  CB        65.4940   71.0700  -52.0600 C.3     6  LEU6        0.0297
     14  CG        65.6460   70.0130  -50.9690 C.3     6  LEU6        0.0022
     15  CD1       66.7920   69.0710  -51.3430 C.3     6  LEU6        0.0001
     16  CD2       65.8950   70.6610  -49.6160 C.3     6  LEU6        0.0001
     17  N         65.9880   76.8920  -52.9270 N.3     9  TYR9       -0.1241
     18  CA        67.4210   77.1780  -52.8340 C.3     9  TYR9        0.1605
     19  C         68.0730   77.3830  -54.1930 C.2     9  TYR9        0.2264
     20  O         69.0060   78.1740  -54.3260 O.2     9  TYR9       -0.2867
     21  CB        68.1530   76.0840  -52.0550 C.3     9  TYR9        0.0534
     22  CG        67.6280   75.9070  -50.6550 C.ar    9  TYR9       -0.0201
     23  CD1       67.5970   76.9720  -49.7630 C.ar    9  TYR9       -0.0009
     24  CD2       67.1530   74.6750  -50.2240 C.ar    9  TYR9       -0.0009
     25  CE1       67.1050   76.8130  -48.4750 C.ar    9  TYR9        0.0417
     26  CE2       66.6640   74.5070  -48.9450 C.ar    9  TYR9        0.0417
     27  CZ        66.6440   75.5740  -48.0740 C.ar    9  TYR9        0.1957
     28  OH        66.1570   75.3890  -46.8020 O.3     9  TYR9       -0.2866
     29  N         74.0270   74.3580  -49.8480 N.3    29  VAL29      -0.1231
     30  CA        73.1520   74.7750  -48.7590 C.3    29  VAL29       0.1692
     31  C         73.2810   73.8420  -47.5580 C.2    29  VAL29       0.2592
     32  O         73.4810   72.6320  -47.7120 O.2    29  VAL29      -0.2718
     33  CB        71.6720   74.8560  -49.2240 C.3    29  VAL29       0.0266
     34  CG1       71.1770   73.4970  -49.6800 C.3    29  VAL29       0.0020
     35  CG2       70.7680   75.4100  -48.1180 C.3    29  VAL29       0.0020
     36  N         73.1860   74.4050  -46.3580 N.am   30  ARG30      -0.1966
     37  CA        73.1710   73.5830  -45.1510 C.3    30  ARG30       0.1729
     38  C         71.9090   72.7260  -45.1070 C.2    30  ARG30       0.2616
     39  O         70.8090   73.1990  -45.4050 O.2    30  ARG30      -0.2715
     40  CB        73.2480   74.4460  -43.8880 C.3    30  ARG30       0.0348
     41  CG        74.5450   75.2250  -43.7420 C.3    30  ARG30       0.0492
     42  CD        74.7490   75.7040  -42.3070 C.3    30  ARG30       0.2205
     43  NE        76.0090   76.4280  -42.1840 N.pl3  30  ARG30      -0.0865
     44  CZ        76.1200   77.7510  -42.2380 C.cat  30  ARG30       0.5346
     45  NH1       75.0380   78.5060  -42.3960 N.pl3  30  ARG30       0.1354
     46  NH2       77.3130   78.3210  -42.1280 N.pl3  30  ARG30       0.1354
     47  N         72.0630   71.4600  -44.7400 N.am   31  ASP31      -0.1957
     48  CA        70.8990   70.6060  -44.5850 C.3    31  ASP31       0.1840
     49  C         70.1410   71.0590  -43.3350 C.2    31  ASP31       0.2622
     50  O         70.7340   71.2280  -42.2710 O.2    31  ASP31      -0.2715
     51  CB        71.3110   69.1380  -44.4880 C.3    31  ASP31       0.1450
     52  CG        70.1360   68.1980  -44.6640 C.2    31  ASP31       0.3671
     53  OD1       69.2060   68.2490  -43.8310 O.co2  31  ASP31      -0.2456
     54  OD2       70.1450   67.4030  -45.6280 O.co2  31  ASP31      -0.2456
     55  N         68.8370   71.2690  -43.4790 N.am   32  MET32      -0.1963
     56  CA        68.0090   71.7970  -42.3930 C.3    32  MET32       0.1736
     57  C         67.8420   70.7930  -41.2510 C.2    32  MET32       0.2616
     58  O         67.5080   71.1650  -40.1260 O.2    32  MET32      -0.2715
     59  CB        66.6400   72.2190  -42.9410 C.3    32  MET32       0.0427
     60  CG        65.6710   72.7620  -41.9030 C.3    32  MET32       0.0599
     61  SD        64.1700   73.4240  -42.6630 S.3    32  MET32      -0.1393
     62  CE        63.1320   73.6330  -41.2180 C.3    32  MET32       0.0692
     63  N         68.0700   69.5170  -41.5470 N.am   33  PHE33      -0.1974
     64  CA        67.9650   68.4710  -40.5350 C.3    33  PHE33       0.1639
     65  C         69.2050   67.5850  -40.5940 C.2    33  PHE33       0.2290
     66  O         69.1230   66.4220  -40.9680 O.2    33  PHE33      -0.2864
     67  CB        66.6840   67.6540  -40.7430 C.3    33  PHE33       0.0560
     68  CG        65.4280   68.4930  -40.7880 C.ar   33  PHE33      -0.0200
     69  CD1       64.7820   68.8660  -39.6170 C.ar   33  PHE33      -0.0042
     70  CD2       64.8990   68.9140  -42.0000 C.ar   33  PHE33      -0.0042
     71  CE1       63.6330   69.6430  -39.6540 C.ar   33  PHE33      -0.0003
     72  CE2       63.7460   69.6950  -42.0440 C.ar   33  PHE33      -0.0003
     73  CZ        63.1140   70.0560  -40.8700 C.ar   33  PHE33      -0.0000
     74  N         72.1850   65.1150  -40.5080 N.3    35  LYS35      -0.1245
     75  CA        72.2720   63.7600  -39.9800 C.3    35  LYS35       0.1561
     76  C         73.6820   63.4410  -39.4850 C.2    35  LYS35       0.2260
     77  O         73.9580   62.3320  -39.0260 O.2    35  LYS35      -0.2867
     78  CB        71.8050   62.7470  -41.0290 C.3    35  LYS35       0.0271
     79  CG        70.4030   63.0340  -41.5490 C.3    35  LYS35       0.0035
     80  CD        69.4060   63.1970  -40.4040 C.3    35  LYS35       0.0206
     81  CE        67.9630   63.1180  -40.8990 C.3    35  LYS35       0.1093
     82  NZ        67.5830   64.2510  -41.7930 N.3    35  LYS35      -0.1314
     83  N         76.5540   68.7040  -42.3970 N.3    39  HIS39      -0.1241
     84  CA        75.7260   68.0930  -43.4300 C.3    39  HIS39       0.1621
     85  C         75.2740   69.1810  -44.3950 C.2    39  HIS39       0.2264
     86  O         74.4740   70.0550  -44.0360 O.2    39  HIS39      -0.2867
     87  CB        74.5090   67.3980  -42.7980 C.3    39  HIS39       0.0745
     88  CG        73.7300   66.5470  -43.7530 C.ar   39  HIS39       0.0817
     89  ND1       72.7000   65.7180  -43.3470 N.ar   39  HIS39      -0.2268
     90  CD2       73.8290   66.3810  -45.0940 C.ar   39  HIS39       0.1154
     91  CE1       72.2020   65.0900  -44.3930 C.ar   39  HIS39       0.1986
     92  NE2       72.8700   65.4730  -45.4690 N.ar   39  HIS39      -0.2212
     93  N         74.2020   70.2230  -48.6860 N.3    41  LEU41      -0.1245
     94  CA        73.6590   69.7330  -49.9470 C.3    41  LEU41       0.1561
     95  C         74.1870   70.5700  -51.1070 C.2    41  LEU41       0.2260
     96  O         74.0840   71.7920  -51.0860 O.2    41  LEU41      -0.2867
     97  CB        72.1280   69.7930  -49.9300 C.3    41  LEU41       0.0270
     98  CG        71.4320   69.1510  -48.7230 C.3    41  LEU41       0.0019
     99  CD1       69.9220   69.4180  -48.7510 C.3    41  LEU41       0.0001
    100  CD2       71.7230   67.6450  -48.6600 C.3    41  LEU41       0.0001
    101  N         71.5690   59.8110  -52.2870 N.3   106  HIS106     -0.1241
    102  CA        70.6640   58.7470  -51.8760 C.3   106  HIS106      0.1621
    103  C         70.1520   58.0440  -53.1280 C.2   106  HIS106      0.2264
    104  O         69.8390   58.6950  -54.1200 O.2   106  HIS106     -0.2867
    105  CB        69.4830   59.3050  -51.0860 C.3   106  HIS106      0.0745
    106  CG        69.7240   59.3740  -49.6150 C.ar  106  HIS106      0.0817
    107  ND1       68.9300   60.1140  -48.7630 N.ar  106  HIS106     -0.2268
    108  CD2       70.6710   58.8000  -48.8360 C.ar  106  HIS106      0.1154
    109  CE1       69.3720   59.9860  -47.5290 C.ar  106  HIS106      0.1986
    110  NE2       70.4320   59.1950  -47.5440 N.ar  106  HIS106     -0.2212
    111  N         67.4000   56.5080  -53.3860 N.3   108  GLY108     -0.1210
    112  CA        65.9760   56.7770  -53.4720 C.3   108  GLY108      0.1940
    113  C         65.5000   58.0540  -52.8090 C.2   108  GLY108      0.2454
    114  O         64.7810   58.0060  -51.8110 O.2   108  GLY108     -0.2732
    115  N         65.9660   59.2100  -53.3200 N.am  109  PRO109     -0.2717
    116  CA        65.7240   60.4930  -52.6530 C.3   109  PRO109      0.1536
    117  C         64.2590   60.7710  -52.3560 C.2   109  PRO109      0.2599
    118  O         63.3940   60.2930  -53.0860 O.2   109  PRO109     -0.2715
    119  CB        66.2340   61.5180  -53.6780 C.3   109  PRO109      0.0310
    120  CG        66.8400   60.7230  -54.7970 C.3   109  PRO109      0.0237
    121  CD        66.1870   59.3840  -54.7700 C.3   109  PRO109      0.0939
    122  N         63.9870   61.5320  -51.3010 N.am  110  SER110     -0.1936
    123  CA        62.6290   61.9810  -51.0170 C.3   110  SER110      0.2055
    124  C         62.3590   63.3240  -51.6870 C.2   110  SER110      0.2642
    125  O         61.2750   63.5540  -52.2220 O.2   110  SER110     -0.2714
    126  CB        62.4060   62.0890  -49.5110 C.3   110  SER110      0.2130
    127  OG        62.5510   60.8230  -48.8960 O.3   110  SER110     -0.2179
    128  N         63.3510   64.2070  -51.6640 N.am  111  MET111     -0.1976
    129  CA        63.2260   65.5090  -52.3180 C.3   111  MET111      0.1605
    130  C         63.5120   65.3970  -53.8160 C.2   111  MET111      0.2287
    131  O         64.4570   64.7280  -54.2200 O.2   111  MET111     -0.2864
    132  CB        64.1720   66.5170  -51.6700 C.3   111  MET111      0.0413
    133  CG        63.9230   66.6990  -50.1900 C.3   111  MET111      0.0598
    134  SD        62.3190   67.4660  -49.9000 S.3   111  MET111     -0.1393
    135  CE        62.1620   67.2530  -48.1280 C.3   111  MET111      0.0692
    136  N         70.2820   66.6500  -55.2840 N.3   115  HIS115     -0.1241
    137  CA        71.1220   67.2040  -54.2290 C.3   115  HIS115      0.1621
    138  C         72.1660   66.1850  -53.7990 C.2   115  HIS115      0.2264
    139  O         71.8430   65.0590  -53.4070 O.2   115  HIS115     -0.2867
    140  CB        70.2670   67.6150  -53.0280 C.3   115  HIS115      0.0745
    141  CG        69.3060   66.5560  -52.5910 C.ar  115  HIS115      0.0817
    142  ND1       68.1630   66.2520  -53.3000 N.ar  115  HIS115     -0.2268
    143  CD2       69.3200   65.7200  -51.5260 C.ar  115  HIS115      0.1154
    144  CE1       67.5140   65.2770  -52.6900 C.ar  115  HIS115      0.1986
    145  NE2       68.1940   64.9360  -51.6100 N.ar  115  HIS115     -0.2212
    146  N         74.8050   64.9830  -51.1720 N.3   117  HIS117     -0.1241
    147  CA        75.1440   65.0640  -49.7690 C.3   117  HIS117      0.1621
    148  C         76.6430   65.2150  -49.5260 C.2   117  HIS117      0.2264
    149  O         77.3970   64.4580  -50.0480 O.2   117  HIS117     -0.2867
    150  CB        74.6540   63.8490  -49.0230 C.3   117  HIS117      0.0745
    151  CG        73.1800   63.6860  -49.0310 C.ar  117  HIS117      0.0817
    152  ND1       72.3670   64.2420  -48.0890 N.ar  117  HIS117     -0.2268
    153  CD2       72.3770   63.0150  -49.8650 C.ar  117  HIS117      0.1154
    154  CE1       71.1280   63.9160  -48.3370 C.ar  117  HIS117      0.1986
    155  NE2       71.1040   63.1790  -49.4150 N.ar  117  HIS117     -0.2212
    156  N         72.4860   56.4310  -44.9220 N.3   137  PHE137     -0.1241
    157  CA        73.7880   57.0740  -45.1430 C.3   137  PHE137      0.1605
    158  C         74.9830   56.1440  -44.9650 C.2   137  PHE137      0.2264
    159  O         76.1200   56.5390  -45.2250 O.2   137  PHE137     -0.2867
    160  CB        73.9580   58.3160  -44.2460 C.3   137  PHE137      0.0534
    161  CG        73.0860   59.4720  -44.6520 C.ar  137  PHE137     -0.0203
    162  CD1       73.4300   60.2690  -45.7380 C.ar  137  PHE137     -0.0042
    163  CD2       71.9130   59.7500  -43.9690 C.ar  137  PHE137     -0.0042
    164  CE1       72.6170   61.3320  -46.1320 C.ar  137  PHE137     -0.0003
    165  CE2       71.0900   60.8110  -44.3560 C.ar  137  PHE137     -0.0003
    166  CZ        71.4420   61.5980  -45.4420 C.ar  137  PHE137     -0.0000
@<TRIPOS>BOND
     1   136   137    1
     2   120   121    1
     3   120   119    1
     4   121   115    1
     5    20    19    2
     6   137   138    1
     7   137   140    1
     8   131   130    2
     9    19    18    1
    10   104   103    2
    11   130   129    1
    12   138   139    2
    13   119   116    1
    14   112   111    1
    15   112   113    1
    16   115   113   am
    17   115   116    1
    18   142   144   ar
    19   142   141   ar
    20    12    11    2
    21   103   102    1
    22   118   117    2
    23    11    10    1
    24   140   141    1
    25    17    18    1
    26    18    21    1
    27   113   114    2
    28   144   145   ar
    29   116   117    1
    30   141   143   ar
    31   117   122   am
    32   129   132    1
    33   129   128    1
    34   101   102    1
    35   125   124    2
    36    13    10    1
    37    13    14    1
    38    21    22    1
    39   102   105    1
    40    10     9    1
    41   124   128   am
    42   124   123    1
    43   132   133    1
    44     1     2    1
    45     9     3   am
    46   145   143   ar
    47    15    14    1
    48   122   123    1
    49   146   147    1
    50    95    96    2
    51    95    94    1
    52   105   106    1
    53   123   126    1
    54    14    16    1
    55     3     2    1
    56     3     4    2
    57    22    24   ar
    58    22    23   ar
    59     2     5    1
    60    24    26   ar
    61   133   134    1
    62   149   148    2
    63    94    97    1
    64    94    93    1
    65    97    98    1
    66   134   135    1
    67   153   155   ar
    68   153   151   ar
    69    29    30    1
    70   147   148    1
    71   147   150    1
    72    23    25   ar
    73    34    33    1
    74   106   108   ar
    75   106   107   ar
    76   126   127    1
    77   155   154   ar
    78     5     6    1
    79    33    30    1
    80    33    35    1
    81     7     6    2
    82   151   150    1
    83   151   152   ar
    84    26    27   ar
    85   108   110   ar
    86   107   109   ar
    87    30    31    1
    88    99    98    1
    89    98   100    1
    90     6     8   am
    91    25    27   ar
    92   154   152   ar
    93    27    28    1
    94    32    31    2
    95    31    36   am
    96   110   109   ar
    97    36    37    1
    98   164   162   ar
    99   164   166   ar
   100   162   161   ar
   101    54    52   ar
   102    92    90   ar
   103    92    91   ar
   104   166   165   ar
   105    39    38    2
   106   159   158    2
   107    37    38    1
   108    37    40    1
   109   157   158    1
   110   157   156    1
   111   157   160    1
   112    38    47   am
   113    90    88   ar
   114    47    48    1
   115    52    51    1
   116    52    53   ar
   117   161   160    1
   118   161   163   ar
   119    48    51    1
   120    48    49    1
   121    85    86    2
   122    85    84    1
   123    91    89   ar
   124   165   163   ar
   125    40    41    1
   126    88    89   ar
   127    88    87    1
   128    41    42    1
   129    55    49   am
   130    55    56    1
   131    84    87    1
   132    84    83    1
   133    49    50    2
   134    59    56    1
   135    59    60    1
   136    61    60    1
   137    61    62    1
   138    45    44    1
   139    56    57    1
   140    42    43    1
   141    44    43    2
   142    44    46    1
   143    72    70   ar
   144    72    73   ar
   145    70    68   ar
   146    82    81    1
   147    79    78    1
   148    79    80    1
   149    63    57   am
   150    63    64    1
   151    57    58    2
   152    78    75    1
   153    66    65    2
   154    81    80    1
   155    73    71   ar
   156    68    67    1
   157    68    69   ar
   158    67    64    1
   159    65    64    1
   160    74    75    1
   161    75    76    1
   162    71    69   ar
   163    76    77    2
