@<TRIPOS>MOLECULE
tmp/3sptA00.pdb
 120 116 0 0 0
SMALL
GASTEIGER

@<TRIPOS>ATOM
      1  N          9.1400   -7.1980   67.6830 N.3   368  PRO368     -0.2102
      2  CA         8.1400   -7.7240   66.8430 C.3   368  PRO368      0.1504
      3  C          6.8080   -6.9620   66.7120 C.2   368  PRO368      0.2575
      4  O          6.1440   -7.1050   65.6700 O.2   368  PRO368     -0.2718
      5  CB         7.9420   -9.1840   67.3710 C.3   368  PRO368      0.0282
      6  CG         8.2730   -9.0650   68.8190 C.3   368  PRO368      0.0208
      7  CD         9.3840   -8.0120   68.8800 C.3   368  PRO368      0.0893
      8  N          6.3750   -6.1870   67.6860 N.am  369  HIS369     -0.1976
      9  CA         5.0030   -5.6560   67.5450 C.3   369  HIS369      0.1656
     10  C          4.7410   -4.2970   68.1420 C.2   369  HIS369      0.2291
     11  O          4.9200   -4.1200   69.3420 O.2   369  HIS369     -0.2864
     12  CB         3.9800   -6.5720   68.2620 C.3   369  HIS369      0.0771
     13  CG         4.1630   -8.0590   68.0230 C.ar  369  HIS369      0.0820
     14  ND1        3.7470   -8.6880   66.8620 N.ar  369  HIS369     -0.2267
     15  CD2        4.6800   -9.0350   68.8150 C.ar  369  HIS369      0.1154
     16  CE1        4.0040   -9.9840   66.9500 C.ar  369  HIS369      0.1986
     17  NE2        4.5580  -10.2200   68.1310 N.ar  369  HIS369     -0.2212
     18  N         14.9990   -9.2210   73.2190 N.3   383  ASN383     -0.1240
     19  CA        13.6470   -9.2380   72.6900 C.3   383  ASN383      0.1653
     20  C         12.8430   -8.1500   73.3610 C.2   383  ASN383      0.2266
     21  O         12.8640   -8.0350   74.6010 O.2   383  ASN383     -0.2867
     22  CB        13.0470  -10.5850   72.9530 C.3   383  ASN383      0.1155
     23  CG        11.7200  -10.7590   72.2530 C.2   383  ASN383      0.2627
     24  OD1       11.6910  -11.2660   71.0980 O.2   383  ASN383     -0.2716
     25  ND2       10.5960  -10.3080   72.9060 N.am  383  ASN383     -0.0877
     26  N          9.3030   -6.6170   74.1960 N.3   385  GLY385     -0.1210
     27  CA         7.9530   -7.1430   74.0240 C.3   385  GLY385      0.1956
     28  C          6.9810   -6.1650   73.3330 C.2   385  GLY385      0.2611
     29  O          7.2260   -4.9700   73.2920 O.2   385  GLY385     -0.2717
     30  N          5.8380   -6.7010   72.9150 N.am  386  ALA386     -0.1979
     31  CA         4.8110   -6.0280   72.1890 C.3   386  ALA386      0.1597
     32  C          4.3410   -4.7940   72.8890 C.2   386  ALA386      0.2287
     33  O          4.2570   -4.6800   74.1090 O.2   386  ALA386     -0.2864
     34  CB         3.6140   -6.9710   71.9700 C.3   386  ALA386      0.0319
     35  N         15.0900   -9.6710   77.9620 N.3   408  ARG408     -0.1231
     36  CA        13.6810   -9.8770   77.5360 C.3   408  ARG408      0.1694
     37  C         12.7310   -8.8980   78.1510 C.2   408  ARG408      0.2593
     38  O         12.4000   -8.9890   79.3360 O.2   408  ARG408     -0.2718
     39  CB        13.2050  -11.2600   77.8740 C.3   408  ARG408      0.0321
     40  CG        14.1610  -12.2590   77.3740 C.3   408  ARG408      0.0489
     41  CD        13.3930  -13.3540   76.7050 C.3   408  ARG408      0.2205
     42  NE        14.3600  -13.8220   75.7760 N.pl3 408  ARG408     -0.0865
     43  CZ        14.1580  -13.9820   74.5040 C.cat 408  ARG408      0.5346
     44  NH1       12.9080  -13.8480   74.0060 N.pl3 408  ARG408      0.1354
     45  NH2       15.2100  -14.3650   73.7940 N.pl3 408  ARG408      0.1354
     46  N         12.3240   -7.8960   77.3980 N.am  409  THR409     -0.1939
     47  CA        11.5070   -6.9160   78.1180 C.3   409  THR409      0.2028
     48  C         10.0370   -7.2740   77.9570 C.2   409  THR409      0.2643
     49  O          9.5920   -7.6330   76.8740 O.2   409  THR409     -0.2714
     50  CB        11.8020   -5.4680   77.6770 C.3   409  THR409      0.1808
     51  OG1       11.4080   -5.3180   76.3300 O.3   409  THR409     -0.2208
     52  CG2       13.2570   -5.1450   77.8070 C.3   409  THR409      0.0379
     53  N          9.2670   -7.1810   79.0100 N.am  410  GLY410     -0.1939
     54  CA         7.8770   -7.6280   78.8940 C.3   410  GLY410      0.2014
     55  C          6.9980   -6.7170   78.0290 C.2   410  GLY410      0.2639
     56  O          7.3240   -5.5650   77.8080 O.2   410  GLY410     -0.2714
     57  N          5.8780   -7.2370   77.5590 N.am  411  SER411     -0.1949
     58  CA         4.9270   -6.4200   76.8120 C.3   411  SER411      0.1924
     59  C          4.5750   -5.1410   77.5700 C.2   411  SER411      0.2314
     60  O          4.5450   -5.1340   78.7980 O.2   411  SER411     -0.2863
     61  CB         3.5950   -7.1650   76.5560 C.3   411  SER411      0.2116
     62  OG         3.8120   -8.2920   75.7230 O.3   411  SER411     -0.2180
     63  N         15.0390   -8.8730   82.6560 N.3   426  TYR426     -0.1241
     64  CA        13.6480   -8.9630   82.1550 C.3   426  TYR426      0.1605
     65  C         12.9040   -7.7770   82.7490 C.2   426  TYR426      0.2264
     66  O         13.2400   -7.2730   83.8570 O.2   426  TYR426     -0.2867
     67  CB        12.9280  -10.1730   82.7490 C.3   426  TYR426      0.0534
     68  CG        13.0790  -11.4890   82.0390 C.ar  426  TYR426     -0.0201
     69  CD1       11.9440  -12.2830   81.7870 C.ar  426  TYR426     -0.0009
     70  CD2       14.3360  -11.9590   81.6310 C.ar  426  TYR426     -0.0009
     71  CE1       12.0570  -13.4850   81.1740 C.ar  426  TYR426      0.0417
     72  CE2       14.4500  -13.1750   80.9820 C.ar  426  TYR426      0.0417
     73  CZ        13.3070  -13.9380   80.7760 C.ar  426  TYR426      0.1957
     74  OH        13.4220  -15.1420   80.1630 O.3   426  TYR426     -0.2866
     75  N          8.7160   -7.2270   83.5780 N.3   428  GLY428     -0.1210
     76  CA         7.3910   -7.7830   83.5370 C.3   428  GLY428      0.1956
     77  C          6.4770   -7.0530   82.5920 C.2   428  GLY428      0.2611
     78  O          6.7120   -5.9080   82.2680 O.2   428  GLY428     -0.2717
     79  N          5.4250   -7.7190   82.1140 N.am  429  ALA429     -0.1979
     80  CA         4.4120   -7.0110   81.3140 C.3   429  ALA429      0.1597
     81  C          3.8700   -5.8170   82.0920 C.2   429  ALA429      0.2287
     82  O          3.6000   -5.9070   83.3090 O.2   429  ALA429     -0.2864
     83  CB         3.2320   -7.9430   80.9480 C.3   429  ALA429      0.0319
     84  N         14.7270   -8.7820   87.4880 N.3   442  LEU442     -0.1245
     85  CA        13.3820   -8.5690   86.9300 C.3   442  LEU442      0.1561
     86  C         12.8110   -7.2100   87.3920 C.2   442  LEU442      0.2260
     87  O         12.6710   -6.9480   88.6230 O.2   442  LEU442     -0.2867
     88  CB        12.4170   -9.6950   87.2970 C.3   442  LEU442      0.0270
     89  CG        10.9220   -9.3890   87.0030 C.3   442  LEU442      0.0019
     90  CD1       10.6190   -9.3870   85.4970 C.3   442  LEU442      0.0001
     91  CD2       10.0040  -10.4070   87.7020 C.3   442  LEU442      0.0001
     92  N          9.5760   -4.8260   87.6920 N.3   444  VAL444     -0.1231
     93  CA         8.0950   -4.7570   87.5510 C.3   444  VAL444      0.1692
     94  C          7.5650   -3.4970   88.1900 C.2   444  VAL444      0.2593
     95  O          8.2730   -2.9020   89.0250 O.2   444  VAL444     -0.2718
     96  CB         7.3320   -5.9340   88.2630 C.3   444  VAL444      0.0266
     97  CG1        7.6300   -7.2460   87.6180 C.3   444  VAL444      0.0020
     98  CG2        7.6510   -5.9960   89.7740 C.3   444  VAL444      0.0020
     99  N          6.3270   -3.0940   87.8510 N.am  445  SER445     -0.1938
    100  CA         5.6500   -2.0170   88.5720 C.3   445  SER445      0.2055
    101  C          4.1340   -2.1380   88.7160 C.2   445  SER445      0.2643
    102  O          3.5760   -1.5700   89.6510 O.2   445  SER445     -0.2714
    103  CB         6.0190   -0.6470   87.9790 C.3   445  SER445      0.2130
    104  OG         5.6720   -0.6060   86.6270 O.3   445  SER445     -0.2179
    105  N          3.4590   -2.8650   87.8390 N.am  446  ALA446     -0.1963
    106  CA         2.0090   -3.0160   87.9260 C.3   446  ALA446      0.1728
    107  C          1.6010   -3.5340   89.2770 C.2   446  ALA446      0.2617
    108  O          2.2870   -4.4030   89.8380 O.2   446  ALA446     -0.2715
    109  CB         1.5400   -3.9970   86.8590 C.3   446  ALA446      0.0334
    110  N          0.4740   -3.0710   89.8070 N.am  447  GLY447     -0.1941
    111  CA        -0.0090   -3.6070   91.0820 C.3   447  GLY447      0.1998
    112  C         -0.5870   -5.0380   90.9210 C.2   447  GLY447      0.2480
    113  O         -0.6920   -5.5730   89.7860 O.2   447  GLY447     -0.2729
    114  N         -0.9600   -5.6700   92.0450 N.am  448  PRO448     -0.2726
    115  CA        -1.5060   -7.0400   91.9790 C.3   448  PRO448      0.1402
    116  C         -2.8530   -7.0680   91.2440 C.2   448  PRO448      0.2269
    117  O         -3.6400   -6.1290   91.3780 O.2   448  PRO448     -0.2865
    118  CB        -1.6750   -7.4490   93.4620 C.3   448  PRO448      0.0296
    119  CG        -1.7520   -6.1020   94.2390 C.3   448  PRO448      0.0237
    120  CD        -0.9230   -5.1150   93.4220 C.3   448  PRO448      0.0939
@<TRIPOS>BOND
     1     4     3    2
     2     3     2    1
     3     3     8   am
     4     2     5    1
     5     2     1    1
     6    14    16   ar
     7    14    13   ar
     8    16    17   ar
     9     5     6    1
    10     9     8    1
    11     9    10    1
    12     9    12    1
    13     1     7    1
    14    13    12    1
    15    13    15   ar
    16    17    15   ar
    17    10    11    2
    18     6     7    1
    19    24    23    2
    20    34    31    1
    21    31    32    1
    22    31    30    1
    23    23    25   am
    24    23    22    1
    25    19    22    1
    26    19    18    1
    27    19    20    1
    28    32    33    2
    29    30    28   am
    30    29    28    2
    31    28    27    1
    32    20    21    2
    33    45    43    1
    34    44    43    1
    35    27    26    1
    36    43    42    2
    37    62    61    1
    38    42    41    1
    39    51    50    1
    40    61    58    1
    41    41    40    1
    42    58    57    1
    43    58    59    1
    44    49    48    2
    45    40    39    1
    46    46    47    1
    47    46    37   am
    48    36    39    1
    49    36    35    1
    50    36    37    1
    51    57    55   am
    52    59    60    2
    53    50    52    1
    54    50    47    1
    55    56    55    2
    56    48    47    1
    57    48    53   am
    58    55    54    1
    59    37    38    2
    60    54    53    1
    61    74    73    1
    62    73    72   ar
    63    73    71   ar
    64    83    80    1
    65    72    70   ar
    66    71    69   ar
    67    80    81    1
    68    80    79    1
    69    70    68   ar
    70    69    68   ar
    71    68    67    1
    72    81    82    2
    73    79    77   am
    74    64    63    1
    75    64    65    1
    76    64    67    1
    77    78    77    2
    78    77    76    1
    79    65    66    2
    80    76    75    1
    81    90    89    1
    82   104   103    1
    83   109   106    1
    84    85    88    1
    85    85    86    1
    86    85    84    1
    87    89    88    1
    88    89    91    1
    89    86    87    2
    90    93    92    1
    91    93    94    1
    92    93    96    1
    93    97    96    1
    94   105   106    1
    95   105   101   am
    96    99    94   am
    97    99   100    1
    98   106   107    1
    99   103   100    1
   100    94    95    2
   101    96    98    1
   102   100   101    1
   103   101   102    2
   104   107   110   am
   105   107   108    2
   106   113   112    2
   107   110   111    1
   108   112   111    1
   109   112   114   am
   110   116   117    2
   111   116   115    1
   112   115   114    1
   113   115   118    1
   114   114   120    1
   115   120   119    1
   116   118   119    1
