@<TRIPOS>MOLECULE
tmp/3spwB00.pdb
 186 180 0 0 0
SMALL
GASTEIGER

@<TRIPOS>ATOM
      1  N         68.7890    5.5660   12.8040 N.3     5  LEU5       -0.1231
      2  CA        68.4410    4.4310   11.9530 C.3     5  LEU5        0.1693
      3  C         67.7930    4.8470   10.6330 C.2     5  LEU5        0.2593
      4  O         67.7150    4.0520    9.6960 O.2     5  LEU5       -0.2718
      5  CB        67.5270    3.4600   12.7060 C.3     5  LEU5        0.0284
      6  CG        68.1710    2.6580   13.8360 C.3     5  LEU5        0.0019
      7  CD1       67.0930    1.8740   14.5470 C.3     5  LEU5        0.0001
      8  CD2       69.2210    1.7050   13.3260 C.3     5  LEU5        0.0001
      9  N         67.3290    6.0900   10.5620 N.am    6  SER6       -0.1938
     10  CA        66.7020    6.6000    9.3470 C.3     6  SER6        0.2055
     11  C         67.7190    6.7680    8.2200 C.2     6  SER6        0.2644
     12  O         67.3500    6.9240    7.0560 O.2     6  SER6       -0.2714
     13  CB        65.9950    7.9290    9.6220 C.3     6  SER6        0.2130
     14  OG        66.9100    8.9100   10.0760 O.3     6  SER6       -0.2179
     15  N         68.9990    6.7350    8.5740 N.am    7  SER7       -0.1935
     16  CA        70.0700    6.8780    7.5940 C.3     7  SER7        0.2055
     17  C         70.2980    5.5760    6.8320 C.2     7  SER7        0.2643
     18  O         70.8530    5.5780    5.7330 O.2     7  SER7       -0.2714
     19  CB        71.3660    7.3190    8.2780 C.3     7  SER7        0.2130
     20  OG        71.1910    8.5500    8.9590 O.3     7  SER7       -0.2179
     21  N         69.8650    4.4660    7.4210 N.am    8  LEU8       -0.1963
     22  CA        70.0540    3.1510    6.8170 C.3     8  LEU8        0.1728
     23  C         68.9050    2.7760    5.8880 C.2     8  LEU8        0.2617
     24  O         68.0010    3.5760    5.6430 O.2     8  LEU8       -0.2715
     25  CB        70.2210    2.0790    7.8970 C.3     8  LEU8        0.0311
     26  CG        71.5890    1.9710    8.5780 C.3     8  LEU8        0.0022
     27  CD1       72.0000    3.2920    9.2130 C.3     8  LEU8        0.0001
     28  CD2       71.5800    0.8560    9.6120 C.3     8  LEU8        0.0001
     29  N         68.9500    1.5520    5.3740 N.am    9  SER9       -0.1936
     30  CA        67.9250    1.0610    4.4630 C.3     9  SER9        0.2055
     31  C         67.3390   -0.2510    4.9690 C.2     9  SER9        0.2642
     32  O         68.0710   -1.1540    5.3750 O.2     9  SER9       -0.2714
     33  CB        68.5040    0.8710    3.0600 C.3     9  SER9        0.2130
     34  OG        69.0890    2.0710    2.5840 O.3     9  SER9       -0.2179
     35  N         66.0140   -0.3510    4.9440 N.am   10  ALA10      -0.1977
     36  CA        65.3310   -1.5520    5.4070 C.3    10  ALA10       0.1597
     37  C         65.1620   -2.5600    4.2760 C.2    10  ALA10       0.2287
     38  O         64.8930   -2.1820    3.1360 O.2    10  ALA10      -0.2864
     39  CB        63.9800   -1.1940    6.0080 C.3    10  ALA10       0.0319
     40  N         58.7960   -4.7060    4.6740 N.3    15  LEU15      -0.1245
     41  CA        58.4150   -3.3800    4.2070 C.3    15  LEU15       0.1561
     42  C         56.9680   -3.3460    3.7210 C.2    15  LEU15       0.2260
     43  O         56.5090   -4.2580    3.0320 O.2    15  LEU15      -0.2867
     44  CB        59.3710   -2.9150    3.1050 C.3    15  LEU15       0.0270
     45  CG        59.1440   -1.5260    2.5070 C.3    15  LEU15       0.0019
     46  CD1       60.4710   -0.8140    2.2860 C.3    15  LEU15       0.0001
     47  CD2       58.3530   -1.6240    1.2100 C.3    15  LEU15       0.0001
     48  N         57.0890   -2.5140    8.1410 N.3    82  LYS82      -0.1231
     49  CA        57.3740   -1.0950    8.3490 C.3    82  LYS82       0.1678
     50  C         56.9170   -0.2350    7.1760 C.2    82  LYS82       0.2434
     51  O         57.1660   -0.5740    6.0200 O.2    82  LYS82      -0.2733
     52  CB        58.8690   -0.8750    8.6000 C.3    82  LYS82       0.0284
     53  CG        59.4150   -1.7470    9.6990 C.3    82  LYS82       0.0035
     54  CD        59.1300   -1.1720   11.0500 C.3    82  LYS82       0.0206
     55  CE        59.7420   -1.9590   12.2000 C.3    82  LYS82       0.1093
     56  NZ        59.3550   -3.3630   12.2590 N.3    82  LYS82      -0.1314
     57  N         56.2420    0.8850    7.4760 N.am   83  PRO83      -0.2718
     58  CA        55.7670    1.8340    6.4620 C.3    83  PRO83       0.1535
     59  C         56.9240    2.4540    5.6840 C.2    83  PRO83       0.2598
     60  O         58.0640    2.4270    6.1470 O.2    83  PRO83      -0.2715
     61  CB        55.0590    2.9090    7.2940 C.3    83  PRO83       0.0310
     62  CG        54.6980    2.2270    8.5720 C.3    83  PRO83       0.0237
     63  CD        55.8200    1.2720    8.8320 C.3    83  PRO83       0.0939
     64  N         56.6240    3.0060    4.5130 N.am   84  LEU84      -0.1964
     65  CA        57.6370    3.6310    3.6730 C.3    84  LEU84       0.1728
     66  C         58.0640    4.9850    4.2280 C.2    84  LEU84       0.2616
     67  O         57.2240    5.8080    4.5910 O.2    84  LEU84      -0.2715
     68  CB        57.1070    3.8060    2.2480 C.3    84  LEU84       0.0311
     69  CG        56.8520    2.5320    1.4400 C.3    84  LEU84       0.0022
     70  CD1       56.0010    2.8310    0.2140 C.3    84  LEU84       0.0001
     71  CD2       58.1670    1.8830    1.0430 C.3    84  LEU84       0.0001
     72  N         59.3720    5.2100    4.2950 N.am   85  ASN85      -0.1972
     73  CA        59.8990    6.5090    4.6900 C.3    85  ASN85       0.1688
     74  C         59.6350    7.5310    3.5910 C.2    85  ASN85       0.2292
     75  O         60.2350    7.4630    2.5180 O.2    85  ASN85      -0.2864
     76  CB        61.3970    6.4180    4.9780 C.3    85  ASN85       0.1181
     77  CG        61.9580    7.7000    5.5620 C.2    85  ASN85       0.2629
     78  OD1       61.3270    8.7560    5.4960 O.2    85  ASN85      -0.2716
     79  ND2       63.1530    7.6160    6.1350 N.am   85  ASN85      -0.0877
     80  N         59.3800   10.6450    1.0420 N.3    87  PHE87      -0.1241
     81  CA        60.3620   11.5370    0.4380 C.3    87  PHE87       0.1605
     82  C         59.9720   12.9910    0.6790 C.2    87  PHE87       0.2264
     83  O         58.7990   13.3000    0.8880 O.2    87  PHE87      -0.2867
     84  CB        60.4940   11.2640   -1.0630 C.3    87  PHE87       0.0534
     85  CG        59.2100   11.4300   -1.8300 C.ar   87  PHE87      -0.0203
     86  CD1       58.3790   10.3460   -2.0590 C.ar   87  PHE87      -0.0042
     87  CD2       58.8380   12.6690   -2.3260 C.ar   87  PHE87      -0.0042
     88  CE1       57.2000   10.4940   -2.7660 C.ar   87  PHE87      -0.0003
     89  CE2       57.6600   12.8230   -3.0340 C.ar   87  PHE87      -0.0003
     90  CZ        56.8400   11.7340   -3.2530 C.ar   87  PHE87      -0.0000
     91  N         63.2010   15.4300    5.2600 N.3   116  HIS116     -0.1226
     92  CA        63.6900   14.0760    5.0270 C.3   116  HIS116      0.1752
     93  C         64.9060   13.7880    5.9010 C.2   116  HIS116      0.2596
     94  O         65.1300   12.6520    6.3210 O.2   116  HIS116     -0.2718
     95  CB        64.0420   13.8820    3.5530 C.3   116  HIS116      0.0759
     96  CG        64.4250   12.4790    3.2040 C.ar  116  HIS116      0.0818
     97  ND1       63.5220   11.4370    3.2180 N.ar  116  HIS116     -0.2268
     98  CD2       65.6120   11.9430    2.8350 C.ar  116  HIS116      0.1154
     99  CE1       64.1370   10.3210    2.8710 C.ar  116  HIS116      0.1986
    100  NE2       65.4060   10.6000    2.6330 N.ar  116  HIS116     -0.2212
    101  N         65.6880   14.8290    6.1660 N.am  117  HIS117     -0.1975
    102  CA        66.8450   14.7270    7.0460 C.3   117  HIS117      0.1656
    103  C         66.7320   15.7500    8.1710 C.2   117  HIS117      0.2291
    104  O         67.2330   16.8680    8.0460 O.2   117  HIS117     -0.2864
    105  CB        68.1390   14.9670    6.2630 C.3   117  HIS117      0.0771
    106  CG        68.4510   13.9000    5.2580 C.ar  117  HIS117      0.0820
    107  ND1       69.2750   14.1180    4.1780 N.ar  117  HIS117     -0.2267
    108  CD2       68.0560   12.6080    5.1790 C.ar  117  HIS117      0.1154
    109  CE1       69.3720   13.0050    3.4690 C.ar  117  HIS117      0.1986
    110  NE2       68.6430   12.0750    4.0560 N.ar  117  HIS117     -0.2212
    111  N         64.5370    6.6760   16.1060 N.3   142  ALA142     -0.1245
    112  CA        64.9410    5.3520   16.5680 C.3   142  ALA142      0.1562
    113  C         66.4510    5.2820   16.7730 C.2   142  ALA142      0.2260
    114  O         67.2160    5.9150   16.0450 O.2   142  ALA142     -0.2867
    115  CB        64.4880    4.2860   15.5830 C.3   142  ALA142      0.0290
    116  N         66.9960   -0.5880   21.7670 N.3   145  LEU145     -0.1245
    117  CA        66.3000    0.1490   20.7170 C.3   145  LEU145      0.1561
    118  C         65.4140    1.2550   21.2850 C.2   145  LEU145      0.2260
    119  O         64.2340    1.0380   21.5660 O.2   145  LEU145     -0.2867
    120  CB        65.4640   -0.8020   19.8570 C.3   145  LEU145      0.0270
    121  CG        65.0510   -0.4020   18.4550 C.3   145  LEU145      0.0019
    122  CD1       66.2530   -0.2090   17.5390 C.3   145  LEU145      0.0001
    123  CD2       64.1190   -1.4720   17.8800 C.3   145  LEU145      0.0001
    124  N         54.5030    6.1270   -5.1600 N.3   274  TRP274     -0.1241
    125  CA        54.9960    4.8340   -4.6970 C.3   274  TRP274      0.1605
    126  C         54.2930    3.6630   -5.3760 C.2   274  TRP274      0.2264
    127  O         54.3260    2.5410   -4.8710 O.2   274  TRP274     -0.2867
    128  CB        54.8290    4.7080   -3.1800 C.3   274  TRP274      0.0550
    129  CG        55.6630    5.6630   -2.3830 C.ar  274  TRP274      0.0003
    130  CD1       55.2730    6.8700   -1.8810 C.ar  274  TRP274      0.0946
    131  CD2       57.0280    5.4850   -1.9870 C.ar  274  TRP274      0.0152
    132  NE1       56.3130    7.4560   -1.1990 N.ar  274  TRP274     -0.2442
    133  CE2       57.4010    6.6270   -1.2500 C.ar  274  TRP274      0.0810
    134  CE3       57.9720    4.4730   -2.1860 C.ar  274  TRP274      0.0012
    135  CZ2       58.6770    6.7830   -0.7120 C.ar  274  TRP274      0.0191
    136  CZ3       59.2380    4.6300   -1.6500 C.ar  274  TRP274      0.0001
    137  CH2       59.5780    5.7770   -0.9220 C.ar  274  TRP274      0.0015
    138  N         62.2770    0.8910   -5.8910 N.3   293  LYS293     -0.1245
    139  CA        62.5620    1.7420   -4.7420 C.3   293  LYS293      0.1561
    140  C         63.8230    2.5690   -4.9670 C.2   293  LYS293      0.2260
    141  O         63.7810    3.7980   -4.9430 O.2   293  LYS293     -0.2867
    142  CB        62.7040    0.9090   -3.4670 C.3   293  LYS293      0.0271
    143  CG        62.7990    1.7450   -2.2010 C.3   293  LYS293      0.0035
    144  CD        63.1230    0.8900   -0.9880 C.3   293  LYS293      0.0206
    145  CE        63.1410    1.7240    0.2820 C.3   293  LYS293      0.1093
    146  NZ        63.6560    0.9530    1.4460 N.3   293  LYS293     -0.1314
    147  N         64.4520    6.5060   -4.9270 N.3   297  GLU297     -0.1245
    148  CA        65.3790    6.9380   -3.8880 C.3   297  GLU297      0.1567
    149  C         66.4840    7.8140   -4.4650 C.2   297  GLU297      0.2260
    150  O         66.8890    8.8030   -3.8540 O.2   297  GLU297     -0.2867
    151  CB        65.9940    5.7300   -3.1790 C.3   297  GLU297      0.0388
    152  CG        65.0140    4.9310   -2.3400 C.3   297  GLU297      0.1160
    153  CD        65.6620    3.7350   -1.6720 C.2   297  GLU297      0.3649
    154  OE1       66.4240    3.0130   -2.3490 O.co2 297  GLU297     -0.2457
    155  OE2       65.4150    3.5210   -0.4680 O.co2 297  GLU297     -0.2457
    156  N         65.4170   11.5260   -5.9850 N.3   300  GLN300     -0.1231
    157  CA        65.3410   12.6040   -5.0050 C.3   300  GLN300      0.1698
    158  C         66.7350   13.0940   -4.6330 C.2   300  GLN300      0.2592
    159  O         66.9420   14.2820   -4.3820 O.2   300  GLN300     -0.2718
    160  CB        64.5910   12.1420   -3.7530 C.3   300  GLN300      0.0381
    161  CG        63.0900   12.0060   -3.9450 C.3   300  GLN300      0.0905
    162  CD        62.4100   13.3440   -4.1690 C.2   300  GLN300      0.2608
    163  OE1       61.5710   13.4850   -5.0580 O.2   300  GLN300     -0.2717
    164  NE2       62.7650   14.3330   -3.3550 N.am  300  GLN300     -0.0878
    165  N         67.6880   12.1690   -4.6000 N.am  301  ARG301     -0.1980
    166  CA        69.0730   12.5010   -4.2890 C.3   301  ARG301      0.1597
    167  C         69.6530   13.4610   -5.3200 C.2   301  ARG301      0.2287
    168  O         70.2370   14.4860   -4.9680 O.2   301  ARG301     -0.2864
    169  CB        69.9180   11.2280   -4.2130 C.3   301  ARG301      0.0334
    170  CG        69.6350   10.3790   -2.9870 C.3   301  ARG301      0.0492
    171  CD        70.0970    8.9460   -3.1820 C.3   301  ARG301      0.2205
    172  NE        69.9610    8.1620   -1.9590 N.pl3 301  ARG301     -0.0865
    173  CZ        69.9010    6.8350   -1.9250 C.cat 301  ARG301      0.5346
    174  NH1       69.9520    6.1370   -3.0510 N.pl3 301  ARG301      0.1354
    175  NH2       69.7800    6.2050   -0.7640 N.pl3 301  ARG301      0.1354
    176  N         68.1780   16.8040   -5.1650 N.3   304  ARG304     -0.1245
    177  CA        68.6020   17.5970   -4.0190 C.3   304  ARG304      0.1563
    178  C         70.0240   18.1090   -4.2200 C.2   304  ARG304      0.2260
    179  O         70.4120   19.1330   -3.6560 O.2   304  ARG304     -0.2867
    180  CB        68.5120   16.7730   -2.7320 C.3   304  ARG304      0.0307
    181  CG        67.2710   16.8380   -1.9010 C.3   304  ARG304      0.0489
    182  CD        67.6550   16.2610   -0.5350 C.3   304  ARG304      0.2205
    183  NE        68.0020   14.8500   -0.6310 N.pl3 304  ARG304     -0.0865
    184  CZ        67.2470   13.8960   -0.1020 C.cat 304  ARG304      0.5346
    185  NH1       66.1340   14.1740    0.5710 N.pl3 304  ARG304      0.1354
    186  NH2       67.6040   12.6390   -0.2270 N.pl3 304  ARG304      0.1354
@<TRIPOS>BOND
     1   156   157    1
     2   138   139    1
     3   126   127    2
     4   126   125    1
     5   167   168    2
     6   167   166    1
     7   176   177    1
     8   124   125    1
     9   163   162    2
    10   157   158    1
    11   157   160    1
    12   140   141    2
    13   140   139    1
    14   147   148    1
    15   139   142    1
    16   125   128    1
    17   158   165   am
    18   158   159    2
    19   165   166    1
    20   149   148    1
    21   149   150    2
    22   166   169    1
    23   178   177    1
    24   178   179    2
    25   169   170    1
    26   162   161    1
    27   162   164   am
    28   177   180    1
    29   161   160    1
    30   148   151    1
    31   142   143    1
    32    90    89   ar
    33    90    88   ar
    34   171   170    1
    35   171   172    1
    36   128   129    1
    37   151   152    1
    38   174   173    1
    39    89    87   ar
    40    88    86   ar
    41   180   181    1
    42   129   131   ar
    43   129   130   ar
    44   154   153   ar
    45   152   153    1
    46    87    85   ar
    47   143   144    1
    48   134   131   ar
    49   134   136   ar
    50    86    85   ar
    51   131   133   ar
    52   172   173    2
    53   173   175    1
    54   181   182    1
    55   130   132   ar
    56    85    84    1
    57   153   155   ar
    58   136   137   ar
    59   133   132   ar
    60   133   135   ar
    61    84    81    1
    62   144   145    1
    63   137   135   ar
    64   183   182    1
    65   183   184    2
    66   186   184    1
    67   184   185    1
    68    70    69    1
    69   145   146    1
    70    81    82    1
    71    81    80    1
    72    82    83    2
    73    71    69    1
    74    47    45    1
    75    69    68    1
    76    68    65    1
    77    46    45    1
    78    45    44    1
    79    75    74    2
    80    34    33    1
    81   100    98   ar
    82   100    99   ar
    83    98    96   ar
    84    99    97   ar
    85    43    42    2
    86    33    30    1
    87    44    41    1
    88    38    37    2
    89    96    97   ar
    90    96    95    1
    91   109   110   ar
    92   109   107   ar
    93    95    92    1
    94    74    73    1
    95    65    66    1
    96    65    64    1
    97    42    41    1
    98   110   108   ar
    99   107   106   ar
   100    41    40    1
   101    66    72   am
   102    66    67    2
   103    37    36    1
   104    72    73    1
   105    30    31    1
   106    30    29    1
   107    64    59   am
   108    73    76    1
   109    35    31   am
   110    35    36    1
   111    31    32    2
   112    76    77    1
   113    92    91    1
   114    92    93    1
   115   108   106   ar
   116   106   105    1
   117    29    23   am
   118    36    39    1
   119    78    77    2
   120    77    79   am
   121    24    23    2
   122    59    60    2
   123    59    58    1
   124    18    17    2
   125    23    22    1
   126    93   101   am
   127    93    94    2
   128    51    50    2
   129   101   102    1
   130   105   102    1
   131    58    61    1
   132    58    57    1
   133    22    21    1
   134    22    25    1
   135    17    21   am
   136    17    16    1
   137   102   103    1
   138    12    11    2
   139    50    57   am
   140    50    49    1
   141    61    62    1
   142    57    63    1
   143    16    19    1
   144    16    15    1
   145    25    26    1
   146   104   103    2
   147    48    49    1
   148    11    15   am
   149    11    10    1
   150    19    20    1
   151    49    52    1
   152    62    63    1
   153    26    27    1
   154    26    28    1
   155    52    53    1
   156    10    13    1
   157    10     9    1
   158    13    14    1
   159     4     3    2
   160    53    54    1
   161     9     3   am
   162     3     2    1
   163    54    55    1
   164     2     5    1
   165     2     1    1
   166    55    56    1
   167     5     6    1
   168     8     6    1
   169     6     7    1
   170   115   112    1
   171   114   113    2
   172   111   112    1
   173   112   113    1
   174   122   121    1
   175   123   121    1
   176   121   120    1
   177   120   117    1
   178   117   118    1
   179   117   116    1
   180   118   119    2
