@<TRIPOS>MOLECULE
tmp/3spyA00.pdb
 122 115 0 0 0
SMALL
GASTEIGER

@<TRIPOS>ATOM
      1  N         -1.7840   16.5290   28.8750 N.3   282  PHE282     -0.1241
      2  CA        -0.6190   16.1570   28.0730 C.3   282  PHE282      0.1605
      3  C          0.5960   17.0320   28.3310 C.2   282  PHE282      0.2264
      4  O          1.2030   17.5900   27.4180 O.2   282  PHE282     -0.2867
      5  CB        -0.9650   15.9740   26.5840 C.3   282  PHE282      0.0534
      6  CG        -1.8210   14.7740   26.3460 C.ar  282  PHE282     -0.0203
      7  CD1       -1.2460   13.5080   26.2490 C.ar  282  PHE282     -0.0042
      8  CD2       -3.2070   14.8890   26.3190 C.ar  282  PHE282     -0.0042
      9  CE1       -2.0400   12.3790   26.0880 C.ar  282  PHE282     -0.0003
     10  CE2       -4.0090   13.7670   26.1500 C.ar  282  PHE282     -0.0003
     11  CZ        -3.4240   12.5070   26.0370 C.ar  282  PHE282     -0.0000
     12  N          1.8540   13.0970    7.9130 N.3   411  ASP411     -0.1225
     13  CA         1.4140   12.2620    9.0280 C.3   411  ASP411      0.1805
     14  C         -0.0120   11.7420    8.7930 C.2   411  ASP411      0.2598
     15  O         -0.9010   12.5020    8.4130 O.2   411  ASP411     -0.2718
     16  CB         1.5100   13.0570   10.3420 C.3   411  ASP411      0.1424
     17  CG         1.2900   12.1930   11.5770 C.2   411  ASP411      0.3668
     18  OD1        0.1250   11.8340   11.8670 O.co2 411  ASP411     -0.2456
     19  OD2        2.2780   11.8930   12.2870 O.co2 411  ASP411     -0.2456
     20  N         -0.2130   10.4450    9.0140 N.am  412  LEU412     -0.1966
     21  CA        -1.5300    9.8240    8.8880 C.3   412  LEU412      0.1728
     22  C         -2.5420   10.3420    9.9140 C.2   412  LEU412      0.2617
     23  O         -2.2630   10.3640   11.1090 O.2   412  LEU412     -0.2715
     24  CB        -1.4140    8.3090    9.0280 C.3   412  LEU412      0.0311
     25  CG        -0.8340    7.5080    7.8630 C.3   412  LEU412      0.0022
     26  CD1       -0.6720    6.0560    8.2790 C.3   412  LEU412      0.0001
     27  CD2       -1.7170    7.5980    6.6320 C.3   412  LEU412      0.0001
     28  N         -3.7140   10.7540    9.4330 N.am  413  THR413     -0.1937
     29  CA        -4.8180   11.1470   10.3020 C.3   413  THR413      0.2028
     30  C         -5.3090    9.9220   11.0790 C.2   413  THR413      0.2643
     31  O         -5.6390    8.8870   10.4780 O.2   413  THR413     -0.2714
     32  CB        -5.9740   11.7290    9.4910 C.3   413  THR413      0.1808
     33  OG1       -5.4750   12.7930    8.6780 O.3   413  THR413     -0.2208
     34  CG2       -7.0700   12.2710   10.4120 C.3   413  THR413      0.0379
     35  N         -5.3390   10.0580   12.4070 N.am  414  SER414     -0.1935
     36  CA        -5.7030    8.9780   13.3310 C.3   414  SER414      0.2055
     37  C         -5.2670    7.6170   12.8140 C.2   414  SER414      0.2643
     38  O         -6.0910    6.7660   12.4700 O.2   414  SER414     -0.2714
     39  CB        -7.1920    9.0160   13.6590 C.3   414  SER414      0.2130
     40  OG        -7.5170   10.2350   14.3190 O.3   414  SER414     -0.2179
     41  N         -3.9570    7.4280   12.7620 N.am  415  ALA415     -0.1963
     42  CA        -3.3720    6.2430   12.1280 C.3   415  ALA415      0.1728
     43  C         -4.0620    4.9530   12.5500 C.2   415  ALA415      0.2616
     44  O         -4.6640    4.2830   11.7170 O.2   415  ALA415     -0.2715
     45  CB        -1.8980    6.1760   12.3890 C.3   415  ALA415      0.0334
     46  N         -4.0010    4.6140   13.8390 N.am  416  TYR416     -0.1974
     47  CA        -4.4760    3.2950   14.2810 C.3   416  TYR416      0.1639
     48  C         -5.9780    3.0910   14.1370 C.2   416  TYR416      0.2290
     49  O         -6.3910    2.0310   13.7050 O.2   416  TYR416     -0.2864
     50  CB        -4.0120    2.9530   15.7080 C.3   416  TYR416      0.0560
     51  CG        -2.5730    2.4770   15.8090 C.ar  416  TYR416     -0.0198
     52  CD1       -1.6760    2.6600   14.7510 C.ar  416  TYR416     -0.0009
     53  CD2       -2.0960    1.8830   16.9830 C.ar  416  TYR416     -0.0009
     54  CE1       -0.3550    2.2470   14.8480 C.ar  416  TYR416      0.0417
     55  CE2       -0.7640    1.4660   17.0920 C.ar  416  TYR416      0.0417
     56  CZ         0.0950    1.6590   16.0190 C.ar  416  TYR416      0.1957
     57  OH         1.4030    1.2510   16.1000 O.3   416  TYR416     -0.2866
     58  N        -13.8780   13.8050   17.2390 N.3   482  ARG482     -0.1245
     59  CA       -12.4940   14.2990   17.3120 C.3   482  ARG482      0.1563
     60  C        -12.1970   15.2620   16.1780 C.2   482  ARG482      0.2260
     61  O        -11.6020   16.3240   16.3950 O.2   482  ARG482     -0.2867
     62  CB       -11.4950   13.1410   17.2450 C.3   482  ARG482      0.0307
     63  CG       -10.0450   13.5330   17.4790 C.3   482  ARG482      0.0489
     64  CD        -9.2990   13.8720   16.1980 C.3   482  ARG482      0.2205
     65  NE        -7.9620   14.4280   16.4640 N.pl3 482  ARG482     -0.0865
     66  CZ        -6.8800   14.1460   15.7360 C.cat 482  ARG482      0.5346
     67  NH1       -6.9720   13.3010   14.7240 N.pl3 482  ARG482      0.1354
     68  NH2       -5.6970   14.6940   16.0210 N.pl3 482  ARG482      0.1354
     69  N        -11.1410   19.2770   16.3570 N.3   486  LYS486     -0.1245
     70  CA        -9.8360   19.6510   15.8360 C.3   486  LYS486      0.1561
     71  C         -9.9860   20.8010   14.8430 C.2   486  LYS486      0.2260
     72  O         -9.1440   21.7020   14.7980 O.2   486  LYS486     -0.2867
     73  CB        -9.1190   18.4520   15.2020 C.3   486  LYS486      0.0271
     74  CG        -7.7700   18.8190   14.5820 C.3   486  LYS486      0.0035
     75  CD        -6.9520   17.6050   14.2000 C.3   486  LYS486      0.0206
     76  CE        -5.7940   18.0330   13.2990 C.3   486  LYS486      0.1093
     77  NZ        -4.7540   16.9850   13.1350 N.3   486  LYS486     -0.1314
     78  N         -9.1050   11.7210   20.5770 N.3   560  LYS560     -0.1245
     79  CA        -8.0150   10.9450   19.9730 C.3   560  LYS560      0.1561
     80  C         -7.3840    9.9610   20.9600 C.2   560  LYS560      0.2260
     81  O         -7.0420    8.8410   20.5880 O.2   560  LYS560     -0.2867
     82  CB        -6.9370   11.8700   19.3910 C.3   560  LYS560      0.0271
     83  CG        -5.6440   11.1490   18.9880 C.3   560  LYS560      0.0035
     84  CD        -4.6980   12.0510   18.1990 C.3   560  LYS560      0.0206
     85  CE        -3.8430   12.9470   19.0980 C.3   560  LYS560      0.1093
     86  NZ        -2.9910   13.8380   18.2490 N.3   560  LYS560     -0.1314
     87  N         -7.4820    5.9240   20.3190 N.3   564  ASN564     -0.1240
     88  CA        -6.1860    5.2560   20.3800 C.3   564  ASN564      0.1653
     89  C         -6.1020    4.2660   21.5400 C.2   564  ASN564      0.2266
     90  O         -5.4470    3.2260   21.4220 O.2   564  ASN564     -0.2867
     91  CB        -5.0530    6.2740   20.4880 C.3   564  ASN564      0.1155
     92  CG        -4.7610    6.9610   19.1670 C.2   564  ASN564      0.2627
     93  OD1       -5.3450    6.6190   18.1380 O.2   564  ASN564     -0.2716
     94  ND2       -3.8450    7.9290   19.1860 N.am  564  ASN564     -0.0877
     95  N         -5.0210    0.1590   21.7490 N.3   568  GLY568     -0.1225
     96  CA        -4.1960   -0.3650   22.8420 C.3   568  GLY568      0.1811
     97  C         -4.9230   -1.3660   23.7460 C.2   568  GLY568      0.2280
     98  O         -4.3170   -2.3380   24.2050 O.2   568  GLY568     -0.2866
     99  N          6.3170    5.6400   13.3180 N.3   622  THR622     -0.1203
    100  CA         4.9330    5.1420   13.4520 C.3   622  THR622      0.1994
    101  C          4.0560    5.4070   12.2220 C.2   622  THR622      0.2617
    102  O          3.6090    4.4570   11.5740 O.2   622  THR622     -0.2717
    103  CB         4.2180    5.6360   14.7380 C.3   622  THR622      0.1784
    104  OG1        5.0540    5.4150   15.8800 O.3   622  THR622     -0.2211
    105  CG2        2.8960    4.8940   14.9370 C.3   622  THR622      0.0376
    106  N          3.8190    6.6810   11.9040 N.am  623  ASP623     -0.1973
    107  CA         2.9060    7.0540   10.8160 C.3   623  ASP623      0.1709
    108  C          3.2900    8.3650   10.1430 C.2   623  ASP623      0.2293
    109  O          2.4490    9.0080    9.5230 O.2   623  ASP623     -0.2864
    110  CB         1.4560    7.1440   11.3260 C.3   623  ASP623      0.1436
    111  CG         1.2130    8.3710   12.1910 C.2   623  ASP623      0.3671
    112  OD1        0.0700    8.8870   12.2420 O.co2 623  ASP623     -0.2456
    113  OD2        2.1700    8.8440   12.8220 O.co2 623  ASP623     -0.2456
    114  N          2.0770   18.0530    7.2700 N.3   686  GLU686     -0.1245
    115  CA         2.1240   18.6550    8.5940 C.3   686  GLU686      0.1567
    116  C          3.0340   19.9070    8.5980 C.2   686  GLU686      0.2260
    117  O          2.5340   21.0300    8.6070 O.2   686  GLU686     -0.2867
    118  CB         2.5590   17.6150    9.6380 C.3   686  GLU686      0.0388
    119  CG         1.7530   17.6800   10.9520 C.3   686  GLU686      0.1160
    120  CD         2.1240   16.5840   11.9560 C.2   686  GLU686      0.3649
    121  OE1        1.1990   16.0090   12.5800 O.co2 686  GLU686     -0.2457
    122  OE2        3.3350   16.2950   12.1210 O.co2 686  GLU686     -0.2457
@<TRIPOS>BOND
     1    27    25    1
     2   114   115    1
     3    25    26    1
     4    25    24    1
     5    12    13    1
     6    15    14    2
     7   115   116    1
     8   115   118    1
     9   116   117    2
    10    33    32    1
    11    14    20   am
    12    14    13    1
    13    21    20    1
    14    21    24    1
    15    21    22    1
    16    13    16    1
    17    28    22   am
    18    28    29    1
    19    32    29    1
    20    32    34    1
    21   109   108    2
    22   118   119    1
    23    22    23    2
    24   108   107    1
    25    29    30    1
    26    16    17    1
    27    31    30    2
    28   107   110    1
    29   107   106    1
    30   119   120    1
    31    30    35   am
    32   110   111    1
    33   102   101    2
    34    17    18   ar
    35    17    19   ar
    36    44    43    2
    37   106   101   am
    38   120   122   ar
    39   120   121   ar
    40    42    45    1
    41    42    43    1
    42    42    41    1
    43   111   112   ar
    44   111   113   ar
    45   101   100    1
    46    35    36    1
    47    38    37    2
    48    43    46   am
    49    41    37   am
    50    37    36    1
    51    77    76    1
    52    76    75    1
    53    99   100    1
    54    36    39    1
    55   100   103    1
    56    39    40    1
    57    49    48    2
    58    46    47    1
    59    48    47    1
    60    75    74    1
    61    47    50    1
    62    74    73    1
    63    67    66    1
    64   103   105    1
    65   103   104    1
    66    52    54   ar
    67    52    51   ar
    68    72    71    2
    69    71    70    1
    70    54    56   ar
    71    73    70    1
    72    50    51    1
    73    66    68    1
    74    66    65    2
    75    51    53   ar
    76    70    69    1
    77    56    57    1
    78    56    55   ar
    79    60    61    2
    80    60    59    1
    81    64    65    1
    82    64    63    1
    83    53    55   ar
    84    58    59    1
    85    62    59    1
    86    62    63    1
    87    93    92    2
    88    84    83    1
    89    84    85    1
    90    86    85    1
    91    83    82    1
    92    92    94   am
    93    92    91    1
    94    82    79    1
    95    79    78    1
    96    79    80    1
    97    87    88    1
    98    88    91    1
    99    88    89    1
   100    81    80    2
   101    90    89    2
   102    95    96    1
   103    96    97    1
   104    97    98    2
   105    11     9   ar
   106    11    10   ar
   107     9     7   ar
   108    10     8   ar
   109     7     6   ar
   110     8     6   ar
   111     6     5    1
   112     5     2    1
   113     4     3    2
   114     2     3    1
   115     2     1    1
