@<TRIPOS>MOLECULE
tmp/3sqgE02.pdb
 139 132 0 0 0
SMALL
GASTEIGER

@<TRIPOS>ATOM
      1  N         47.4470  -85.7210    4.6410 N.3   162  ASP162     -0.1239
      2  CA        48.1380  -86.0980    3.4160 C.3   162  ASP162      0.1674
      3  C         48.6550  -87.5340    3.5300 C.2   162  ASP162      0.2266
      4  O         49.4640  -87.8360    4.4000 O.2   162  ASP162     -0.2867
      5  CB        49.2950  -85.1290    3.1580 C.3   162  ASP162      0.1410
      6  CG        49.8690  -85.2480    1.7520 C.2   162  ASP162      0.3668
      7  OD1       49.7270  -86.3220    1.1180 O.co2 162  ASP162     -0.2456
      8  OD2       50.4780  -84.2580    1.2850 O.co2 162  ASP162     -0.2456
      9  N         50.6290  -88.8920    1.5140 N.3   164  GLY164     -0.1225
     10  CA        51.7790  -88.9220    0.6220 C.3   164  GLY164      0.1811
     11  C         52.9230  -89.8430    1.0290 C.2   164  GLY164      0.2280
     12  O         53.7560  -90.2190    0.1970 O.2   164  GLY164     -0.2866
     13  N         50.7470  -95.7830   -2.6080 N.3   168  VAL168     -0.1231
     14  CA        50.1340  -95.5410   -3.9110 C.3   168  VAL168      0.1692
     15  C         50.3910  -94.1220   -4.3970 C.2   168  VAL168      0.2592
     16  O         49.9710  -93.1530   -3.7550 O.2   168  VAL168     -0.2718
     17  CB        48.6210  -95.7570   -3.8690 C.3   168  VAL168      0.0266
     18  CG1       48.0220  -95.4900   -5.2390 C.3   168  VAL168      0.0020
     19  CG2       48.3010  -97.1530   -3.3830 C.3   168  VAL168      0.0020
     20  N         51.0760  -94.0060   -5.5330 N.am  169  LYS169     -0.1966
     21  CA        51.4580  -92.7090   -6.0860 C.3   169  LYS169      0.1728
     22  C         50.6160  -92.3330   -7.3100 C.2   169  LYS169      0.2616
     23  O         50.6110  -93.0520   -8.3030 O.2   169  LYS169     -0.2715
     24  CB        52.9470  -92.7090   -6.4550 C.3   169  LYS169      0.0311
     25  CG        53.8740  -93.1880   -5.3440 C.3   169  LYS169      0.0038
     26  CD        53.6430  -92.3760   -4.0810 C.3   169  LYS169      0.0206
     27  CE        54.6210  -92.7340   -2.9830 C.3   169  LYS169      0.1093
     28  NZ        54.3110  -91.9360   -1.7580 N.3   169  LYS169     -0.1314
     29  N         49.9040  -91.2090   -7.2320 N.am  170  MET170     -0.1963
     30  CA        49.1450  -90.6820   -8.3710 C.3   170  MET170      0.1736
     31  C         49.8230  -89.4340   -8.9470 C.2   170  MET170      0.2616
     32  O         50.7080  -88.8540   -8.3240 O.2   170  MET170     -0.2715
     33  CB        47.7090  -90.3200   -7.9640 C.3   170  MET170      0.0427
     34  CG        47.0670  -91.1930   -6.8790 C.3   170  MET170      0.0599
     35  SD        46.5130  -92.8160   -7.4330 S.3   170  MET170     -0.1393
     36  CE        45.3880  -92.3520   -8.7530 C.3   170  MET170      0.0692
     37  N         49.3970  -89.0180  -10.1360 N.am  171  LEU171     -0.1963
     38  CA        49.8460  -87.7470  -10.7010 C.3   171  LEU171      0.1728
     39  C         49.2300  -86.5770   -9.9410 C.2   171  LEU171      0.2616
     40  O         49.8660  -85.5430   -9.7490 O.2   171  LEU171     -0.2715
     41  CB        49.4580  -87.6430  -12.1770 C.3   171  LEU171      0.0311
     42  CG        50.3130  -88.4050  -13.1830 C.3   171  LEU171      0.0022
     43  CD1       49.6380  -88.4130  -14.5380 C.3   171  LEU171      0.0001
     44  CD2       51.7040  -87.7850  -13.2800 C.3   171  LEU171      0.0001
     45  N         47.9770  -86.7580   -9.5270 N.am  172  VAL172     -0.1963
     46  CA        47.2040  -85.7410   -8.8360 C.3   172  VAL172      0.1727
     47  C         47.2960  -85.9220   -7.3230 C.2   172  VAL172      0.2616
     48  O         47.8060  -86.9320   -6.8370 O.2   172  VAL172     -0.2715
     49  CB        45.7160  -85.8090   -9.2570 C.3   172  VAL172      0.0290
     50  CG1       45.5580  -85.4370  -10.7230 C.3   172  VAL172      0.0023
     51  CG2       45.1610  -87.2090   -9.0010 C.3   172  VAL172      0.0023
     52  N         46.7810  -84.9480   -6.5800 N.am  173  ASP173     -0.1971
     53  CA        46.8860  -84.9520   -5.1250 C.3   173  ASP173      0.1709
     54  C         45.5220  -85.1610   -4.4680 C.2   173  ASP173      0.2293
     55  O         44.5290  -85.3830   -5.1520 O.2   173  ASP173     -0.2864
     56  CB        47.4860  -83.6280   -4.6600 C.3   173  ASP173      0.1436
     57  CG        48.3240  -83.7750   -3.4090 C.2   173  ASP173      0.3671
     58  OD1       47.9840  -84.6280   -2.5570 O.co2 173  ASP173     -0.2456
     59  OD2       49.3230  -83.0330   -3.2830 O.co2 173  ASP173     -0.2456
     60  N         44.3440  -80.3400   -0.8410 N.3   177  LYS177     -0.1245
     61  CA        45.5220  -79.5770   -1.2640 C.3   177  LYS177      0.1561
     62  C         45.3210  -78.8360   -2.5980 C.2   177  LYS177      0.2260
     63  O         46.2050  -78.1090   -3.0500 O.2   177  LYS177     -0.2867
     64  CB        46.7770  -80.4730   -1.3110 C.3   177  LYS177      0.0271
     65  CG        47.1740  -81.0850    0.0330 C.3   177  LYS177      0.0035
     66  CD        48.2650  -82.1690   -0.1110 C.3   177  LYS177      0.0206
     67  CE        49.6080  -81.5790   -0.4800 C.3   177  LYS177      0.1093
     68  NZ        50.6060  -82.6290   -0.9150 N.3   177  LYS177     -0.1314
     69  N         47.0430  -79.9490  -10.0810 N.3   187  ASN187     -0.1240
     70  CA        47.9020  -80.3310   -8.9700 C.3   187  ASN187      0.1653
     71  C         48.8050  -81.4780   -9.3810 C.2   187  ASN187      0.2266
     72  O         48.7540  -82.5460   -8.7850 O.2   187  ASN187     -0.2867
     73  CB        47.0690  -80.7280   -7.7470 C.3   187  ASN187      0.1155
     74  CG        47.6970  -80.2690   -6.4340 C.2   187  ASN187      0.2627
     75  OD1       48.8860  -79.9480   -6.3760 O.2   187  ASN187     -0.2716
     76  ND2       46.9010  -80.2530   -5.3720 N.am  187  ASN187     -0.0877
     77  N         52.8370  -81.9740  -10.4770 N.3   189  PRO189     -0.2116
     78  CA        54.1950  -81.4370  -10.6270 C.3   189  PRO189      0.1372
     79  C         54.7200  -81.5890  -12.0490 C.2   189  PRO189      0.2244
     80  O         54.5840  -82.6480  -12.6570 O.2   189  PRO189     -0.2868
     81  CB        55.0180  -82.3100   -9.6800 C.3   189  PRO189      0.0268
     82  CG        54.0400  -82.7190   -8.6240 C.3   189  PRO189      0.0207
     83  CD        52.7310  -82.9070   -9.3400 C.3   189  PRO189      0.0892
     84  N         57.7030  -82.0540  -13.0480 N.3   191  ASN191     -0.1225
     85  CA        58.6720  -83.1530  -13.1630 C.3   191  ASN191      0.1785
     86  C         57.9920  -84.4980  -13.4290 C.2   191  ASN191      0.2597
     87  O         58.5400  -85.3420  -14.1420 O.2   191  ASN191     -0.2718
     88  CB        59.5730  -83.2610  -11.9200 C.3   191  ASN191      0.1169
     89  CG        60.9050  -82.4920  -12.0600 C.2   191  ASN191      0.2627
     90  OD1       61.2690  -82.0230  -13.1400 O.2   191  ASN191     -0.2716
     91  ND2       61.6470  -82.3920  -10.9530 N.am  191  ASN191     -0.0877
     92  N         56.8070  -84.6990  -12.8510 N.am  192  HIS192     -0.1975
     93  CA        56.0480  -85.9320  -13.0610 C.3   192  HIS192      0.1656
     94  C         55.5570  -86.0030  -14.4970 C.2   192  HIS192      0.2291
     95  O         55.6130  -87.0530  -15.1270 O.2   192  HIS192     -0.2864
     96  CB        54.8420  -86.0130  -12.1160 C.3   192  HIS192      0.0771
     97  CG        55.2000  -86.2160  -10.6740 C.ar  192  HIS192      0.0820
     98  ND1       56.4970  -86.3820  -10.2390 N.ar  192  HIS192     -0.2267
     99  CD2       54.4230  -86.2850   -9.5670 C.ar  192  HIS192      0.1154
    100  CE1       56.5040  -86.5410   -8.9280 C.ar  192  HIS192      0.1986
    101  NE2       55.2580  -86.4840   -8.4950 N.ar  192  HIS192     -0.2212
    102  N         59.6020  -78.2150   -9.9700 N.3   368  VAL368     -0.1245
    103  CA        58.8250  -78.3830   -8.7370 C.3   368  VAL368      0.1561
    104  C         57.5280  -77.5760   -8.7230 C.2   368  VAL368      0.2260
    105  O         56.7610  -77.6520   -7.7680 O.2   368  VAL368     -0.2867
    106  CB        59.6500  -78.0820   -7.4580 C.3   368  VAL368      0.0252
    107  CG1       60.9150  -78.9270   -7.4430 C.3   368  VAL368      0.0019
    108  CG2       59.9970  -76.6080   -7.3590 C.3   368  VAL368      0.0019
    109  N         53.7770  -76.3800  -10.6650 N.3   370  TYR370     -0.1241
    110  CA        52.6420  -77.0370  -11.3030 C.3   370  TYR370      0.1605
    111  C         51.4620  -76.0480  -11.3280 C.2   370  TYR370      0.2264
    112  O         51.5040  -75.0150  -10.6600 O.2   370  TYR370     -0.2867
    113  CB        52.2960  -78.3260  -10.5430 C.3   370  TYR370      0.0534
    114  CG        52.3440  -78.1660   -9.0340 C.ar  370  TYR370     -0.0201
    115  CD1       51.1940  -77.8740   -8.3130 C.ar  370  TYR370     -0.0009
    116  CD2       53.5410  -78.2810   -8.3400 C.ar  370  TYR370     -0.0009
    117  CE1       51.2270  -77.7080   -6.9490 C.ar  370  TYR370      0.0417
    118  CE2       53.5880  -78.1120   -6.9670 C.ar  370  TYR370      0.0417
    119  CZ        52.4180  -77.8270   -6.2770 C.ar  370  TYR370      0.1957
    120  OH        52.4350  -77.6590   -4.9150 O.3   370  TYR370     -0.2866
    121  N         63.3570  -86.8580   -8.9090 N.3   405  THR405     -0.1218
    122  CA        62.0750  -86.7910   -8.2000 C.3   405  THR405      0.1862
    123  C         60.9650  -87.7070   -8.7370 C.2   405  THR405      0.2287
    124  O         59.9750  -87.9520   -8.0420 O.2   405  THR405     -0.2866
    125  CB        61.5110  -85.3480   -8.1850 C.3   405  THR405      0.1770
    126  OG1       61.2140  -84.9410   -9.5240 O.3   405  THR405     -0.2211
    127  CG2       62.5080  -84.3770   -7.5850 C.3   405  THR405      0.0375
    128  N         57.1680  -92.5480  -11.9700 N.3   409  TYR409     -0.1241
    129  CA        56.1580  -92.1400  -12.9420 C.3   409  TYR409      0.1605
    130  C         56.5970  -92.4560  -14.3570 C.2   409  TYR409      0.2264
    131  O         55.8240  -93.0000  -15.1500 O.2   409  TYR409     -0.2867
    132  CB        55.8580  -90.6430  -12.8080 C.3   409  TYR409      0.0534
    133  CG        55.2080  -90.2970  -11.4890 C.ar  409  TYR409     -0.0201
    134  CD1       53.8210  -90.2930  -11.3560 C.ar  409  TYR409     -0.0009
    135  CD2       55.9750  -90.0010  -10.3710 C.ar  409  TYR409     -0.0009
    136  CE1       53.2190  -89.9940  -10.1500 C.ar  409  TYR409      0.0417
    137  CE2       55.3780  -89.6950   -9.1570 C.ar  409  TYR409      0.0417
    138  CZ        54.0000  -89.6960   -9.0550 C.ar  409  TYR409      0.1957
    139  OH        53.3950  -89.4020   -7.8540 O.3   409  TYR409     -0.2866
@<TRIPOS>BOND
     1   131   130    2
     2    95    94    2
     3    43    42    1
     4    94    93    1
     5   130   129    1
     6    87    86    2
     7    86    85    1
     8    86    92   am
     9    44    42    1
    10    42    41    1
    11    85    84    1
    12    85    88    1
    13    90    89    2
    14    93    92    1
    15    93    96    1
    16   129   132    1
    17   129   128    1
    18   132   133    1
    19    80    79    2
    20    41    38    1
    21    96    97    1
    22    89    88    1
    23    89    91   am
    24    79    78    1
    25   133   134   ar
    26   133   135   ar
    27   134   136   ar
    28   111   110    1
    29   111   112    2
    30   110   109    1
    31   110   113    1
    32    50    49    1
    33    38    37    1
    34    38    39    1
    35    97    98   ar
    36    97    99   ar
    37    78    77    1
    38    78    81    1
    39   113   114    1
    40    77    83    1
    41   135   137   ar
    42    98   100   ar
    43   136   138   ar
    44    37    31   am
    45    69    70    1
    46   102   103    1
    47    39    40    2
    48    39    45   am
    49    81    82    1
    50    99   101   ar
    51    45    46    1
    52   126   125    1
    53    71    70    1
    54    71    72    2
    55    83    82    1
    56    49    51    1
    57    49    46    1
    58   137   138   ar
    59   138   139    1
    60   114   116   ar
    61   114   115   ar
    62    70    73    1
    63    31    30    1
    64    31    32    2
    65   100   101   ar
    66   121   122    1
    67    46    47    1
    68    36    35    1
    69   123   122    1
    70   123   124    2
    71   103   104    1
    72   103   106    1
    73   104   105    2
    74    30    33    1
    75    30    29    1
    76   116   118   ar
    77   115   117   ar
    78    23    22    2
    79   122   125    1
    80   125   127    1
    81    33    34    1
    82    73    74    1
    83   106   107    1
    84   106   108    1
    85    35    34    1
    86    47    48    2
    87    47    52   am
    88    22    29   am
    89    22    21    1
    90   118   119   ar
    91   117   119   ar
    92    52    53    1
    93    24    21    1
    94    24    25    1
    95    74    75    2
    96    74    76   am
    97   119   120    1
    98    21    20    1
    99    20    15   am
   100    25    26    1
   101    18    17    1
   102    55    54    2
   103    53    56    1
   104    53    54    1
   105    56    57    1
   106    15    14    1
   107    15    16    2
   108    26    27    1
   109    14    17    1
   110    14    13    1
   111    17    19    1
   112    57    59   ar
   113    57    58   ar
   114    63    62    2
   115    27    28    1
   116    62    61    1
   117    64    61    1
   118    64    65    1
   119    61    60    1
   120    68    67    1
   121    67    66    1
   122    66    65    1
   123    12    11    2
   124    10    11    1
   125    10     9    1
   126     7     6   ar
   127     8     6   ar
   128     6     5    1
   129     5     2    1
   130     2     3    1
   131     2     1    1
   132     3     4    2
