@<TRIPOS>MOLECULE
tmp/3sqgG00.pdb
 135 134 0 0 0
SMALL
GASTEIGER

@<TRIPOS>ATOM
      1  N         37.4860  -28.5610   52.0590 N.3    69  MET69      -0.1245
      2  CA        36.2900  -28.7990   51.2660 C.3    69  MET69       0.1570
      3  C         36.3280  -30.1360   50.5040 C.2    69  MET69       0.2261
      4  O         37.0260  -30.2750   49.4910 O.2    69  MET69      -0.2867
      5  CB        36.0310  -27.6300   50.3070 C.3    69  MET69       0.0387
      6  CG        34.8300  -27.8420   49.3970 C.3    69  MET69       0.0595
      7  SD        33.2440  -27.7920   50.2560 S.3    69  MET69      -0.1393
      8  CE        32.2360  -28.7600   49.1360 C.3    69  MET69       0.0692
      9  N         50.2250  -18.5460   44.7320 N.3   337  GLY337     -0.1210
     10  CA        50.5590  -19.8470   45.2840 C.3   337  GLY337      0.1956
     11  C         49.3820  -20.5640   45.9250 C.2   337  GLY337      0.2612
     12  O         48.2530  -20.0600   45.9360 O.2   337  GLY337     -0.2717
     13  N         49.6580  -21.7460   46.4660 N.am  338  GLY338     -0.1942
     14  CA        48.6260  -22.5980   47.0250 C.3   338  GLY338      0.2014
     15  C         48.0770  -23.5090   45.9460 C.2   338  GLY338      0.2639
     16  O         48.8170  -23.9270   45.0540 O.2   338  GLY338     -0.2714
     17  N         46.7750  -23.8000   46.0170 N.am  339  VAL339     -0.1963
     18  CA        46.1130  -24.5930   44.9880 C.3   339  VAL339      0.1727
     19  C         46.3280  -23.9620   43.5990 C.2   339  VAL339      0.2617
     20  O         46.5690  -24.6600   42.6110 O.2   339  VAL339     -0.2715
     21  CB        44.6040  -24.8090   45.3330 C.3   339  VAL339      0.0290
     22  CG1       43.7720  -25.0970   44.0820 C.3   339  VAL339      0.0023
     23  CG2       44.4670  -25.9280   46.3420 C.3   339  VAL339      0.0023
     24  N         46.2730  -22.6370   43.5310 N.am  340  GLY340     -0.1940
     25  CA        46.6350  -21.9350   42.3090 C.3   340  GLY340      0.2014
     26  C         45.6190  -22.0210   41.1820 C.2   340  GLY340      0.2639
     27  O         44.4150  -22.1750   41.4180 O.2   340  GLY340     -0.2714
     28  N         46.1030  -21.9510   39.9440 N.am  341  PHE341     -0.1959
     29  CA        45.2250  -21.6300   38.8240 C.3   341  PHE341      0.1771
     30  C         45.2300  -22.6480   37.6860 C.2   341  PHE341      0.2620
     31  O         45.2190  -22.2680   36.5110 O.2   341  PHE341     -0.2715
     32  CB        45.5950  -20.2520   38.2730 C.3   341  PHE341      0.0574
     33  CG        45.5030  -19.1310   39.2950 C.ar  341  PHE341     -0.0200
     34  CD1       44.4690  -19.0870   40.2140 C.ar  341  PHE341     -0.0042
     35  CD2       46.4640  -18.1250   39.3280 C.ar  341  PHE341     -0.0042
     36  CE1       44.3770  -18.0460   41.1450 C.ar  341  PHE341     -0.0003
     37  CE2       46.3840  -17.1000   40.2480 C.ar  341  PHE341     -0.0003
     38  CZ        45.3360  -17.0550   41.1600 C.ar  341  PHE341     -0.0000
     39  N         45.2300  -23.9330   38.0300 N.am  342  THR342     -0.1937
     40  CA        45.3620  -24.9850   37.0270 C.3   342  THR342      0.2028
     41  C         44.3280  -24.8300   35.9190 C.2   342  THR342      0.2642
     42  O         44.6680  -24.7940   34.7310 O.2   342  THR342     -0.2714
     43  CB        45.1990  -26.3810   37.6570 C.3   342  THR342      0.1808
     44  OG1       46.2260  -26.5940   38.6370 O.3   342  THR342     -0.2208
     45  CG2       45.2930  -27.4440   36.5950 C.3   342  THR342      0.0379
     46  N         43.0640  -24.7240   36.3220 N.am  343  GLN343     -0.1963
     47  CA        41.9480  -24.6820   35.3770 C.3   343  GLN343      0.1733
     48  C         41.7310  -23.3520   34.6650 C.2   343  GLN343      0.2616
     49  O         41.3010  -23.3510   33.5050 O.2   343  GLN343     -0.2715
     50  CB        40.6680  -25.2220   36.0140 C.3   343  GLN343      0.0408
     51  CG        40.7560  -26.7400   36.2090 C.3   343  GLN343      0.0908
     52  CD        39.7520  -27.2740   37.1880 C.2   343  GLN343      0.2608
     53  OE1       39.0050  -28.1960   36.8710 O.2   343  GLN343     -0.2717
     54  NE2       39.7300  -26.7110   38.3900 N.am  343  GLN343     -0.0878
     55  N         42.0400  -22.2330   35.3270 N.am  344  TYR344     -0.1974
     56  CA        42.0460  -20.9470   34.6280 C.3   344  TYR344      0.1639
     57  C         42.9170  -21.1000   33.3800 C.2   344  TYR344      0.2290
     58  O         42.6100  -20.5580   32.3140 O.2   344  TYR344     -0.2864
     59  CB        42.6230  -19.8170   35.4990 C.3   344  TYR344      0.0560
     60  CG        41.6510  -19.1180   36.4340 C.ar  344  TYR344     -0.0198
     61  CD1       40.3900  -18.6930   36.0030 C.ar  344  TYR344     -0.0009
     62  CD2       41.9970  -18.8840   37.7530 C.ar  344  TYR344     -0.0009
     63  CE1       39.5120  -18.0500   36.8750 C.ar  344  TYR344      0.0417
     64  CE2       41.1380  -18.2560   38.6230 C.ar  344  TYR344      0.0417
     65  CZ        39.8990  -17.8340   38.1870 C.ar  344  TYR344      0.1957
     66  OH        39.0750  -17.1900   39.0850 O.3   344  TYR344     -0.2866
     67  N         41.6640  -24.4350   30.7370 N.3   347  ALA347     -0.1245
     68  CA        40.4840  -24.1640   29.9080 C.3   347  ALA347      0.1562
     69  C         40.9500  -23.8350   28.4980 C.2   347  ALA347      0.2260
     70  O         40.2680  -24.1570   27.5130 O.2   347  ALA347     -0.2867
     71  CB        39.6470  -23.0060   30.4750 C.3   347  ALA347      0.0290
     72  N         32.0730  -27.4110   31.5860 N.3   410  SER410     -0.1217
     73  CA        33.5100  -27.6460   31.4980 C.3   410  SER410      0.1889
     74  C         34.2350  -26.3370   31.8360 C.2   410  SER410      0.2288
     75  O         35.1740  -26.3140   32.6250 O.2   410  SER410     -0.2866
     76  CB        33.8870  -28.0720   30.0830 C.3   410  SER410      0.2089
     77  OG        33.3850  -29.3510   29.7660 O.3   410  SER410     -0.2183
     78  N         33.4890  -23.7050   33.7410 N.3   412  PHE412     -0.1227
     79  CA        32.4630  -23.3800   34.7270 C.3   412  PHE412      0.1736
     80  C         32.5720  -21.9630   35.2930 C.2   412  PHE412      0.2596
     81  O         31.5890  -21.4040   35.7760 O.2   412  PHE412     -0.2718
     82  CB        32.3900  -24.4420   35.8370 C.3   412  PHE412      0.0547
     83  CG        33.7050  -24.6940   36.5570 C.ar  412  PHE412     -0.0202
     84  CD1       34.0770  -23.9160   37.6480 C.ar  412  PHE412     -0.0042
     85  CD2       34.5260  -25.7500   36.1840 C.ar  412  PHE412     -0.0042
     86  CE1       35.2670  -24.1580   38.3320 C.ar  412  PHE412     -0.0003
     87  CE2       35.7300  -26.0020   36.8650 C.ar  412  PHE412     -0.0003
     88  CZ        36.0950  -25.2030   37.9420 C.ar  412  PHE412     -0.0000
     89  N         33.7700  -21.3910   35.2230 N.am  413  GLY413     -0.1942
     90  CA        33.9620  -19.9980   35.5740 C.3   413  GLY413      0.2014
     91  C         33.8050  -19.0970   34.3580 C.2   413  GLY413      0.2639
     92  O         34.3010  -19.4140   33.2800 O.2   413  GLY413     -0.2714
     93  N         33.1070  -17.9770   34.5290 N.am  414  GLY414     -0.1939
     94  CA        32.9620  -17.0090   33.4600 C.3   414  GLY414      0.2014
     95  C         34.2880  -16.4510   32.9800 C.2   414  GLY414      0.2640
     96  O         34.4120  -16.0120   31.8340 O.2   414  GLY414     -0.2714
     97  N         35.2900  -16.4700   33.8520 N.am  415  SER415     -0.1935
     98  CA        36.6140  -15.9780   33.4780 C.3   415  SER415      0.2055
     99  C         37.1250  -16.6810   32.2190 C.2   415  SER415      0.2642
    100  O         37.5490  -16.0120   31.2690 O.2   415  SER415     -0.2714
    101  CB        37.6090  -16.1250   34.6400 C.3   415  SER415      0.2130
    102  OG        37.2180  -15.3190   35.7480 O.3   415  SER415     -0.2179
    103  N         37.0760  -18.0190   32.2040 N.am  416  VAL416     -0.1977
    104  CA        37.5930  -18.7780   31.0590 C.3   416  VAL416      0.1596
    105  C         36.7080  -18.6790   29.8230 C.2   416  VAL416      0.2287
    106  O         37.1970  -18.7480   28.6940 O.2   416  VAL416     -0.2864
    107  CB        37.9160  -20.2800   31.3830 C.3   416  VAL416      0.0276
    108  CG1       39.0420  -20.3760   32.4210 C.3   416  VAL416      0.0022
    109  CG2       36.6860  -21.0410   31.8420 C.3   416  VAL416      0.0022
    110  N         33.6310  -12.3860   34.1690 N.3   458  GLY458     -0.1210
    111  CA        34.5690  -13.2490   34.8600 C.3   458  GLY458      0.1956
    112  C         34.6000  -12.9610   36.3430 C.2   458  GLY458      0.2612
    113  O         33.6080  -12.4800   36.9050 O.2   458  GLY458     -0.2717
    114  N         35.7470  -13.2270   36.9690 N.am  459  PHE459     -0.1962
    115  CA        35.8790  -13.0700   38.4150 C.3   459  PHE459      0.1771
    116  C         35.8460  -11.5990   38.8350 C.2   459  PHE459      0.2619
    117  O         35.7440  -10.6970   37.9930 O.2   459  PHE459     -0.2715
    118  CB        37.1100  -13.8350   38.9730 C.3   459  PHE459      0.0574
    119  CG        38.4500  -13.1860   38.6710 C.ar  459  PHE459     -0.0200
    120  CD1       38.9850  -12.2360   39.5290 C.ar  459  PHE459     -0.0042
    121  CD2       39.1830  -13.5540   37.5540 C.ar  459  PHE459     -0.0042
    122  CE1       40.2260  -11.6330   39.2610 C.ar  459  PHE459     -0.0003
    123  CE2       40.4200  -12.9600   37.2780 C.ar  459  PHE459     -0.0003
    124  CZ        40.9390  -11.9980   38.1330 C.ar  459  PHE459     -0.0000
    125  N         35.8980  -11.3700   40.1420 N.am  460  PHE460     -0.1974
    126  CA        35.7780  -10.0290   40.7190 C.3   460  PHE460      0.1639
    127  C         36.6750   -9.0100   40.0020 C.2   460  PHE460      0.2290
    128  O         36.2360   -7.9160   39.6660 O.2   460  PHE460     -0.2864
    129  CB        36.1610  -10.1090   42.1950 C.3   460  PHE460      0.0560
    130  CG        35.3320   -9.2510   43.1030 C.ar  460  PHE460     -0.0200
    131  CD1       34.8490   -8.0260   42.6880 C.ar  460  PHE460     -0.0042
    132  CD2       35.0290   -9.6890   44.3870 C.ar  460  PHE460     -0.0042
    133  CE1       34.1020   -7.2390   43.5380 C.ar  460  PHE460     -0.0003
    134  CE2       34.2630   -8.9100   45.2380 C.ar  460  PHE460     -0.0003
    135  CZ        33.8070   -7.6830   44.8140 C.ar  460  PHE460     -0.0000
@<TRIPOS>BOND
     1    70    69    2
     2    69    68    1
     3   106   105    2
     4    77    76    1
     5   105   104    1
     6    68    71    1
     7    68    67    1
     8    76    73    1
     9   104   107    1
    10   104   103    1
    11   100    99    2
    12   107   109    1
    13   107   108    1
    14    73    72    1
    15    73    74    1
    16    96    95    2
    17    74    75    2
    18   103    99   am
    19    99    98    1
    20    58    57    2
    21    95    94    1
    22    95    97   am
    23    92    91    2
    24    57    56    1
    25    94    93    1
    26    98    97    1
    27    98   101    1
    28    49    48    2
    29    78    79    1
    30   110   111    1
    31    91    93   am
    32    91    90    1
    33    56    55    1
    34    56    59    1
    35   101   102    1
    36    48    55   am
    37    48    47    1
    38    79    80    1
    39    79    82    1
    40    42    41    2
    41   111   112    1
    42    89    80   am
    43    89    90    1
    44    80    81    2
    45    47    50    1
    46    47    46    1
    47    59    60    1
    48    82    83    1
    49    41    46   am
    50    41    40    1
    51    61    60   ar
    52    61    63   ar
    53    50    51    1
    54    85    83   ar
    55    85    87   ar
    56    51    52    1
    57   112   113    2
    58   112   114   am
    59    60    62   ar
    60    31    30    2
    61    83    84   ar
    62    45    43    1
    63    87    88   ar
    64    53    52    2
    65    63    65   ar
    66   114   115    1
    67    40    43    1
    68    40    39    1
    69    52    54   am
    70   123   121   ar
    71   123   124   ar
    72   121   119   ar
    73    84    86   ar
    74    43    44    1
    75    30    39   am
    76    30    29    1
    77    62    64   ar
    78    88    86   ar
    79   117   116    2
    80   124   122   ar
    81    65    64   ar
    82    65    66    1
    83    32    29    1
    84    32    33    1
    85   115   116    1
    86   115   118    1
    87   119   118    1
    88   119   120   ar
    89    29    28    1
    90   116   125   am
    91   122   120   ar
    92    33    35   ar
    93    33    34   ar
    94    35    37   ar
    95   128   127    2
    96    28    26   am
    97   127   126    1
    98   125   126    1
    99    34    36   ar
   100    37    38   ar
   101   126   129    1
   102    36    38   ar
   103    26    27    2
   104    26    25    1
   105   129   130    1
   106    25    24    1
   107    20    19    2
   108   131   130   ar
   109   131   133   ar
   110   130   132   ar
   111    24    19   am
   112   133   135   ar
   113    19    18    1
   114    22    21    1
   115   132   134   ar
   116     9    10    1
   117   135   134   ar
   118    18    21    1
   119    18    17    1
   120    16    15    2
   121    10    11    1
   122    21    23    1
   123    11    12    2
   124    11    13   am
   125    15    17   am
   126    15    14    1
   127    13    14    1
   128     8     7    1
   129     6     7    1
   130     6     5    1
   131     4     3    2
   132     5     2    1
   133     3     2    1
   134     2     1    1
