@<TRIPOS>MOLECULE
tmp/3sqgG01.pdb
 99 95 0 0 0
SMALL
GASTEIGER

@<TRIPOS>ATOM
      1  N         58.1850   -4.1220   43.4660 N.3   282  LYS282     -0.1231
      2  CA        57.0420   -4.6840   44.1830 C.3   282  LYS282      0.1693
      3  C         56.9480   -6.1640   43.8390 C.2   282  LYS282      0.2591
      4  O         56.7400   -6.9960   44.7130 O.2   282  LYS282     -0.2718
      5  CB        55.7330   -3.9770   43.8630 C.3   282  LYS282      0.0285
      6  CG        54.5410   -4.6100   44.5970 C.3   282  LYS282      0.0035
      7  CD        53.2390   -3.8530   44.3420 C.3   282  LYS282      0.0206
      8  CE        52.9770   -2.8290   45.4260 C.3   282  LYS282      0.1093
      9  NZ        52.7530   -3.4650   46.7490 N.3   282  LYS282     -0.1314
     10  N         57.1190   -6.4790   42.5580 N.am  283  ARG283     -0.1980
     11  CA        57.1930   -7.8630   42.1090 C.3   283  ARG283      0.1597
     12  C         58.6420   -8.1970   41.7650 C.2   283  ARG283      0.2287
     13  O         58.9190   -8.8080   40.7370 O.2   283  ARG283     -0.2864
     14  CB        56.2720   -8.0940   40.9020 C.3   283  ARG283      0.0334
     15  CG        56.3160   -6.9770   39.8560 C.3   283  ARG283      0.0492
     16  CD        55.0110   -6.8950   39.0450 C.3   283  ARG283      0.2205
     17  NE        55.0200   -5.7510   38.1420 N.pl3 283  ARG283     -0.0865
     18  CZ        54.7590   -4.4990   38.5240 C.cat 283  ARG283      0.5346
     19  NH1       54.4650   -4.2390   39.7910 N.pl3 283  ARG283      0.1354
     20  NH2       54.7990   -3.5020   37.6480 N.pl3 283  ARG283      0.1354
     21  N         51.3210  -16.2760   37.5740 N.3   331  PHE331     -0.1241
     22  CA        50.2250  -15.7380   38.3650 C.3   331  PHE331      0.1605
     23  C         49.8580  -16.7120   39.4800 C.2   331  PHE331      0.2264
     24  O         49.6010  -16.2910   40.6060 O.2   331  PHE331     -0.2867
     25  CB        49.0170  -15.3650   37.4810 C.3   331  PHE331      0.0534
     26  CG        49.2060  -14.0700   36.7280 C.ar  331  PHE331     -0.0203
     27  CD1       49.6370  -12.9270   37.3910 C.ar  331  PHE331     -0.0042
     28  CD2       48.9860  -14.0050   35.3610 C.ar  331  PHE331     -0.0042
     29  CE1       49.8180  -11.7200   36.7020 C.ar  331  PHE331     -0.0003
     30  CE2       49.1690  -12.8190   34.6590 C.ar  331  PHE331     -0.0003
     31  CZ        49.5830  -11.6670   35.3300 C.ar  331  PHE331     -0.0000
     32  N         53.4380  -15.2590   41.8420 N.3   335  MET335     -0.1230
     33  CA        52.6630  -14.0960   42.2810 C.3   335  MET335      0.1702
     34  C         51.5270  -14.4420   43.2540 C.2   335  MET335      0.2593
     35  O         50.8530  -13.5570   43.7470 O.2   335  MET335     -0.2718
     36  CB        52.1190  -13.2930   41.0800 C.3   335  MET335      0.0401
     37  CG        53.1760  -12.5890   40.2250 C.3   335  MET335      0.0596
     38  SD        54.1470  -11.3310   41.1030 S.3   335  MET335     -0.1393
     39  CE        52.8840  -10.1530   41.6200 C.3   335  MET335      0.0692
     40  N         51.3350  -15.7230   43.5590 N.am  336  SER336     -0.1952
     41  CA        50.3590  -16.0970   44.5840 C.3   336  SER336      0.1924
     42  C         50.7290  -17.4330   45.2590 C.2   336  SER336      0.2314
     43  O         51.4630  -17.4490   46.2510 O.2   336  SER336     -0.2863
     44  CB        48.9290  -16.1280   44.0070 C.3   336  SER336      0.2116
     45  OG        48.8000  -17.0710   42.9470 O.3   336  SER336     -0.2180
     46  N         46.1030  -21.9510   39.9440 N.3   341  PHE341     -0.1241
     47  CA        45.2250  -21.6300   38.8240 C.3   341  PHE341      0.1605
     48  C         45.2300  -22.6480   37.6860 C.2   341  PHE341      0.2264
     49  O         45.2190  -22.2680   36.5110 O.2   341  PHE341     -0.2867
     50  CB        45.5950  -20.2520   38.2730 C.3   341  PHE341      0.0534
     51  CG        45.5030  -19.1310   39.2950 C.ar  341  PHE341     -0.0203
     52  CD1       44.4690  -19.0870   40.2140 C.ar  341  PHE341     -0.0042
     53  CD2       46.4640  -18.1250   39.3280 C.ar  341  PHE341     -0.0042
     54  CE1       44.3770  -18.0460   41.1450 C.ar  341  PHE341     -0.0003
     55  CE2       46.3840  -17.1000   40.2480 C.ar  341  PHE341     -0.0003
     56  CZ        45.3360  -17.0550   41.1600 C.ar  341  PHE341     -0.0000
     57  N         42.0400  -22.2330   35.3270 N.3   344  TYR344     -0.1241
     58  CA        42.0460  -20.9470   34.6280 C.3   344  TYR344      0.1605
     59  C         42.9170  -21.1000   33.3800 C.2   344  TYR344      0.2264
     60  O         42.6100  -20.5580   32.3140 O.2   344  TYR344     -0.2867
     61  CB        42.6230  -19.8170   35.4990 C.3   344  TYR344      0.0534
     62  CG        41.6510  -19.1180   36.4340 C.ar  344  TYR344     -0.0201
     63  CD1       40.3900  -18.6930   36.0030 C.ar  344  TYR344     -0.0009
     64  CD2       41.9970  -18.8840   37.7530 C.ar  344  TYR344     -0.0009
     65  CE1       39.5120  -18.0500   36.8750 C.ar  344  TYR344      0.0417
     66  CE2       41.1380  -18.2560   38.6230 C.ar  344  TYR344      0.0417
     67  CZ        39.8990  -17.8340   38.1870 C.ar  344  TYR344      0.1957
     68  OH        39.0750  -17.1900   39.0850 O.3   344  TYR344     -0.2866
     69  N         35.7470  -13.2270   36.9690 N.3   459  PHE459     -0.1241
     70  CA        35.8790  -13.0700   38.4150 C.3   459  PHE459      0.1605
     71  C         35.8460  -11.5990   38.8350 C.2   459  PHE459      0.2264
     72  O         35.7440  -10.6970   37.9930 O.2   459  PHE459     -0.2867
     73  CB        37.1100  -13.8350   38.9730 C.3   459  PHE459      0.0534
     74  CG        38.4500  -13.1860   38.6710 C.ar  459  PHE459     -0.0203
     75  CD1       38.9850  -12.2360   39.5290 C.ar  459  PHE459     -0.0042
     76  CD2       39.1830  -13.5540   37.5540 C.ar  459  PHE459     -0.0042
     77  CE1       40.2260  -11.6330   39.2610 C.ar  459  PHE459     -0.0003
     78  CE2       40.4200  -12.9600   37.2780 C.ar  459  PHE459     -0.0003
     79  CZ        40.9390  -11.9980   38.1330 C.ar  459  PHE459     -0.0000
     80  N         49.3860   -6.8210   34.6080 N.3   494  ALA494     -0.1245
     81  CA        50.3420   -7.3300   35.5980 C.3   494  ALA494      0.1562
     82  C         49.7580   -8.1110   36.7840 C.2   494  ALA494      0.2260
     83  O         50.4900   -8.4610   37.7060 O.2   494  ALA494     -0.2867
     84  CB        51.2560   -6.2010   36.0940 C.3   494  ALA494      0.0290
     85  N         46.3500  -10.3860   36.3750 N.3   495  ASN495     -0.1225
     86  CA        45.2300  -11.3130   36.2160 C.3   495  ASN495      0.1785
     87  C         45.3780  -12.4910   35.2500 C.2   495  ASN495      0.2597
     88  O         45.8710  -12.3320   34.1280 O.2   495  ASN495     -0.2718
     89  CB        43.9480  -10.5290   35.9130 C.3   495  ASN495      0.1169
     90  CG        43.7510   -9.3630   36.8600 C.2   495  ASN495      0.2627
     91  OD1       43.6420   -8.2070   36.4330 O.2   495  ASN495     -0.2716
     92  ND2       43.7050   -9.6550   38.1550 N.am  495  ASN495     -0.0877
     93  N         44.9120  -13.6590   35.7110 N.am  496  VAL496     -0.1980
     94  CA        44.8030  -14.8690   34.9000 C.3   496  VAL496      0.1595
     95  C         43.7960  -14.6700   33.7810 C.2   496  VAL496      0.2287
     96  O         43.0670  -13.6810   33.7600 O.2   496  VAL496     -0.2864
     97  CB        44.2860  -16.0670   35.7330 C.3   496  VAL496      0.0276
     98  CG1       45.2080  -16.3640   36.9080 C.3   496  VAL496      0.0022
     99  CG2       42.8560  -15.7970   36.2280 C.3   496  VAL496      0.0022
@<TRIPOS>BOND
     1    60    59    2
     2    59    58    1
     3    96    95    2
     4    95    94    1
     5    88    87    2
     6    80    81    1
     7    58    57    1
     8    58    61    1
     9    30    31   ar
    10    30    28   ar
    11    94    93    1
    12    94    97    1
    13    87    93   am
    14    87    86    1
    15    31    29   ar
    16    28    26   ar
    17    61    62    1
    18    81    84    1
    19    81    82    1
    20    97    99    1
    21    97    98    1
    22    89    86    1
    23    89    90    1
    24    63    62   ar
    25    63    65   ar
    26    86    85    1
    27    91    90    2
    28    62    64   ar
    29    49    48    2
    30    29    27   ar
    31    26    27   ar
    32    26    25    1
    33    82    83    2
    34    90    92   am
    35    65    67   ar
    36    69    70    1
    37    78    76   ar
    38    78    79   ar
    39    25    22    1
    40    76    74   ar
    41    21    22    1
    42    20    18    1
    43    48    47    1
    44    64    66   ar
    45    72    71    2
    46    79    77   ar
    47    17    18    2
    48    17    16    1
    49    67    66   ar
    50    67    68    1
    51    50    47    1
    52    50    51    1
    53    22    23    1
    54    70    71    1
    55    70    73    1
    56    18    19    1
    57    74    73    1
    58    74    75   ar
    59    47    46    1
    60    16    15    1
    61    77    75   ar
    62    51    53   ar
    63    51    52   ar
    64    53    55   ar
    65    23    24    2
    66    15    14    1
    67    52    54   ar
    68    37    36    1
    69    37    38    1
    70    55    56   ar
    71    13    12    2
    72    14    11    1
    73    36    33    1
    74    38    39    1
    75    54    56   ar
    76    12    11    1
    77    32    33    1
    78    11    10    1
    79    33    34    1
    80    10     3   am
    81    45    44    1
    82    34    40   am
    83    34    35    2
    84     1     2    1
    85    40    41    1
    86     3     2    1
    87     3     4    2
    88     5     2    1
    89     5     6    1
    90    44    41    1
    91     7     6    1
    92     7     8    1
    93    41    42    1
    94    42    43    2
    95     8     9    1
