@<TRIPOS>MOLECULE
tmp/3sqgD06.pdb
 94 87 0 0 0
SMALL
GASTEIGER

@<TRIPOS>ATOM
      1  N         21.3050  -60.5360   18.9990 N.3   117  ASP117     -0.1239
      2  CA        19.8660  -60.7080   18.7320 C.3   117  ASP117      0.1674
      3  C         19.4660  -62.1690   18.5320 C.2   117  ASP117      0.2266
      4  O         18.3970  -62.6000   18.9680 O.2   117  ASP117     -0.2867
      5  CB        19.4280  -59.8260   17.5620 C.3   117  ASP117      0.1410
      6  CG        19.7940  -58.3640   17.7790 C.2   117  ASP117      0.3668
      7  OD1       19.0140  -57.6460   18.4380 O.co2 117  ASP117     -0.2456
      8  OD2       20.8880  -57.9400   17.3310 O.co2 117  ASP117     -0.2456
      9  N         18.8210  -63.7580   21.8470 N.3   120  HIS120     -0.1241
     10  CA        17.5370  -63.3430   22.3870 C.3   120  HIS120      0.1621
     11  C         16.3920  -64.0900   21.6930 C.2   120  HIS120      0.2264
     12  O         15.4400  -64.5240   22.3410 O.2   120  HIS120     -0.2867
     13  CB        17.3720  -61.8260   22.2670 C.3   120  HIS120      0.0745
     14  CG        18.4370  -61.0410   22.9810 C.ar  120  HIS120      0.0817
     15  ND1       19.1780  -61.5580   24.0250 N.ar  120  HIS120     -0.2268
     16  CD2       18.8830  -59.7750   22.7970 C.ar  120  HIS120      0.1154
     17  CE1       20.0250  -60.6390   24.4610 C.ar  120  HIS120      0.1986
     18  NE2       19.8620  -59.5470   23.7350 N.ar  120  HIS120     -0.2212
     19  N         13.7430  -61.0200   27.8050 N.3   131  VAL131     -0.1231
     20  CA        14.9970  -60.2840   27.6630 C.3   131  VAL131      0.1692
     21  C         14.7150  -58.7930   27.8080 C.2   131  VAL131      0.2593
     22  O         13.8950  -58.2290   27.0750 O.2   131  VAL131     -0.2718
     23  CB        15.7060  -60.5800   26.3080 C.3   131  VAL131      0.0266
     24  CG1       16.8810  -59.6460   26.0930 C.3   131  VAL131      0.0020
     25  CG2       16.1700  -62.0350   26.2420 C.3   131  VAL131      0.0020
     26  N         15.3650  -58.1650   28.7810 N.am  132  THR132     -0.1940
     27  CA        15.1700  -56.7410   29.0240 C.3   132  THR132      0.2013
     28  C         16.5260  -56.0410   29.0400 C.2   132  THR132      0.2484
     29  O         17.5630  -56.7020   29.0340 O.2   132  THR132     -0.2729
     30  CB        14.4680  -56.4810   30.3700 C.3   132  THR132      0.1807
     31  OG1       15.3360  -56.8580   31.4490 O.3   132  THR132     -0.2208
     32  CG2       13.1480  -57.2590   30.4620 C.3   132  THR132      0.0379
     33  N         16.5220  -54.6990   29.0490 N.am  133  PRO133     -0.2726
     34  CA        17.8040  -54.0020   29.1570 C.3   133  PRO133      0.1402
     35  C         18.5150  -54.3780   30.4540 C.2   133  PRO133      0.2269
     36  O         19.7400  -54.4260   30.4650 O.2   133  PRO133     -0.2865
     37  CB        17.4030  -52.5270   29.1430 C.3   133  PRO133      0.0296
     38  CG        16.1020  -52.5160   28.3630 C.3   133  PRO133      0.0237
     39  CD        15.4020  -53.7730   28.7770 C.3   133  PRO133      0.0939
     40  N         20.1670  -57.8390   29.9860 N.3   136  ILE136     -0.1245
     41  CA        21.3040  -57.6340   29.1010 C.3   136  ILE136      0.1561
     42  C         22.4900  -57.0400   29.8710 C.2   136  ILE136      0.2260
     43  O         23.6240  -57.5050   29.7360 O.2   136  ILE136     -0.2867
     44  CB        20.9250  -56.7490   27.8990 C.3   136  ILE136      0.0252
     45  CG1       19.8660  -57.4510   27.0440 C.3   136  ILE136      0.0019
     46  CG2       22.1530  -56.4150   27.0580 C.3   136  ILE136      0.0019
     47  CD1       19.2730  -56.5790   25.9550 C.3   136  ILE136      0.0001
     48  N         20.3450  -49.0640   17.8280 N.3   176  ASP176     -0.1239
     49  CA        19.1130  -48.7070   18.5490 C.3   176  ASP176      0.1674
     50  C         19.4120  -47.8020   19.7450 C.2   176  ASP176      0.2266
     51  O         19.7700  -48.2930   20.8160 O.2   176  ASP176     -0.2867
     52  CB        18.4300  -49.9930   19.0350 C.3   176  ASP176      0.1410
     53  CG        17.1140  -49.7370   19.7610 C.2   176  ASP176      0.3668
     54  OD1       16.3490  -50.7100   19.8990 O.co2 176  ASP176     -0.2456
     55  OD2       16.8500  -48.5950   20.1950 O.co2 176  ASP176     -0.2456
     56  N         17.5790  -46.2050   21.8080 N.3   178  ASP178     -0.1225
     57  CA        16.7550  -46.4000   22.9970 C.3   178  ASP178      0.1805
     58  C         17.2360  -47.5810   23.8270 C.2   178  ASP178      0.2597
     59  O         17.2070  -47.5330   25.0560 O.2   178  ASP178     -0.2718
     60  CB        15.2830  -46.5930   22.6230 C.3   178  ASP178      0.1424
     61  CG        14.6370  -45.3070   22.1430 C.2   178  ASP178      0.3668
     62  OD1       14.9190  -44.2350   22.7230 O.co2 178  ASP178     -0.2456
     63  OD2       13.8610  -45.3740   21.1750 O.co2 178  ASP178     -0.2456
     64  N         17.6560  -48.6480   23.1600 N.am  179  LEU179     -0.1979
     65  CA        18.3220  -49.7310   23.8740 C.3   179  LEU179      0.1596
     66  C         19.6370  -49.2590   24.5140 C.2   179  LEU179      0.2287
     67  O         19.9680  -49.6480   25.6290 O.2   179  LEU179     -0.2864
     68  CB        18.5980  -50.9270   22.9670 C.3   179  LEU179      0.0297
     69  CG        19.4430  -51.9220   23.7690 C.3   179  LEU179      0.0022
     70  CD1       18.5640  -52.9520   24.4440 C.3   179  LEU179      0.0001
     71  CD2       20.5630  -52.5600   22.9540 C.3   179  LEU179      0.0001
     72  N         19.2140  -47.5550   27.7990 N.3   182  SER182     -0.1217
     73  CA        18.6490  -48.3810   28.8610 C.3   182  SER182      0.1889
     74  C         19.6460  -49.3230   29.5190 C.2   182  SER182      0.2288
     75  O         19.4220  -49.7840   30.6410 O.2   182  SER182     -0.2866
     76  CB        17.5190  -49.2260   28.3000 C.3   182  SER182      0.2089
     77  OG        16.4460  -48.4080   27.9160 O.3   182  SER182     -0.2183
     78  N         18.4880  -51.6890   14.1910 N.3   215  LYS215     -0.1245
     79  CA        18.1710  -51.9410   15.5970 C.3   215  LYS215      0.1561
     80  C         18.7020  -53.3080   16.0570 C.2   215  LYS215      0.2260
     81  O         17.9580  -54.1530   16.5590 O.2   215  LYS215     -0.2867
     82  CB        16.6550  -51.8840   15.8240 C.3   215  LYS215      0.0271
     83  CG        16.0000  -50.5530   15.4520 C.3   215  LYS215      0.0035
     84  CD        16.7220  -49.3770   16.0990 C.3   215  LYS215      0.0206
     85  CE        15.9610  -48.0720   15.8930 C.3   215  LYS215      0.1093
     86  NZ        14.6030  -48.1160   16.5270 N.3   215  LYS215     -0.1314
     87  N         21.9090  -55.5420   18.1120 N.3   217  ILE217     -0.1245
     88  CA        22.9130  -55.4540   19.1520 C.3   217  ILE217      0.1561
     89  C         24.0760  -56.3750   18.7980 C.2   217  ILE217      0.2260
     90  O         23.8780  -57.5530   18.4610 O.2   217  ILE217     -0.2867
     91  CB        22.3520  -55.8640   20.5260 C.3   217  ILE217      0.0252
     92  CG1       21.1650  -54.9840   20.8990 C.3   217  ILE217      0.0019
     93  CG2       23.4420  -55.7850   21.6050 C.3   217  ILE217      0.0019
     94  CD1       20.2250  -55.6390   21.9120 C.3   217  ILE217      0.0001
@<TRIPOS>BOND
     1    78    79    1
     2    83    82    1
     3    83    84    1
     4    79    82    1
     5    79    80    1
     6    85    84    1
     7    85    86    1
     8    80    81    2
     9     8     6   ar
    10     5     6    1
    11     5     2    1
    12     6     7   ar
    13    48    49    1
    14    87    88    1
    15    90    89    2
    16     3     2    1
    17     3     4    2
    18    49    52    1
    19    49    50    1
    20     2     1    1
    21    89    88    1
    22    52    53    1
    23    88    91    1
    24    50    51    2
    25    53    54   ar
    26    53    55   ar
    27    91    92    1
    28    91    93    1
    29    92    94    1
    30    63    61   ar
    31    11    12    2
    32    11    10    1
    33    56    57    1
    34     9    10    1
    35    61    60    1
    36    61    62   ar
    37    13    10    1
    38    13    14    1
    39    60    57    1
    40    16    14   ar
    41    16    18   ar
    42    71    69    1
    43    68    69    1
    44    68    65    1
    45    14    15   ar
    46    57    58    1
    47    64    58   am
    48    64    65    1
    49    18    17   ar
    50    69    70    1
    51    58    59    2
    52    65    66    1
    53    15    17   ar
    54    66    67    2
    55    47    45    1
    56    24    23    1
    57    25    23    1
    58    23    20    1
    59    45    44    1
    60    46    44    1
    61    22    21    2
    62    20    19    1
    63    20    21    1
    64    72    73    1
    65    21    26   am
    66    44    41    1
    67    77    76    1
    68    76    73    1
    69    38    39    1
    70    38    37    1
    71    39    33    1
    72    26    27    1
    73    73    74    1
    74    27    28    1
    75    27    30    1
    76    29    28    2
    77    28    33   am
    78    33    34    1
    79    41    42    1
    80    41    40    1
    81    37    34    1
    82    34    35    1
    83    74    75    2
    84    43    42    2
    85    30    32    1
    86    30    31    1
    87    35    36    2
