@<TRIPOS>MOLECULE
tmp/3sqgI00.pdb
 96 95 0 0 0
SMALL
GASTEIGER

@<TRIPOS>ATOM
      1  N         24.6730  -12.5280   49.5140 N.3    85  GLN85      -0.1245
      2  CA        25.3150  -12.9580   48.2740 C.3    85  GLN85       0.1566
      3  C         24.4520  -13.9730   47.5330 C.2    85  GLN85       0.2260
      4  O         23.9340  -14.9090   48.1400 O.2    85  GLN85      -0.2867
      5  CB        26.7110  -13.5330   48.5650 C.3    85  GLN85       0.0367
      6  CG        27.4910  -13.9790   47.3300 C.3    85  GLN85       0.0905
      7  CD        28.9680  -14.2490   47.6190 C.2    85  GLN85       0.2608
      8  OE1       29.8030  -13.3450   47.5360 O.2    85  GLN85      -0.2717
      9  NE2       29.2960  -15.4980   47.9480 N.am   85  GLN85      -0.0878
     10  N         30.6200  -10.8650   40.1810 N.3   116  LEU116     -0.1231
     11  CA        31.4160  -11.9840   39.6720 C.3   116  LEU116      0.1693
     12  C         30.4860  -12.9020   38.8750 C.2   116  LEU116      0.2593
     13  O         29.2480  -12.7940   38.9910 O.2   116  LEU116     -0.2718
     14  CB        32.0510  -12.7750   40.8160 C.3   116  LEU116      0.0284
     15  CG        32.9600  -12.0140   41.7810 C.3   116  LEU116      0.0019
     16  CD1       32.1190  -11.2840   42.8080 C.3   116  LEU116      0.0001
     17  CD2       33.9320  -12.9690   42.4700 C.3   116  LEU116      0.0001
     18  N         31.0560  -13.8040   38.0760 N.am  117  SER117     -0.1938
     19  CA        30.2070  -14.6780   37.2570 C.3   117  SER117      0.2055
     20  C         29.3340  -15.6160   38.0870 C.2   117  SER117      0.2644
     21  O         28.1890  -15.8730   37.7360 O.2   117  SER117     -0.2714
     22  CB        31.0170  -15.4890   36.2360 C.3   117  SER117      0.2130
     23  OG        31.9180  -16.3970   36.8600 O.3   117  SER117     -0.2179
     24  N         29.8770  -16.1330   39.1800 N.am  118  GLY118     -0.1939
     25  CA        29.1730  -17.1410   39.9520 C.3   118  GLY118      0.2014
     26  C         28.7500  -16.6600   41.3240 C.2   118  GLY118      0.2638
     27  O         28.3690  -17.4600   42.1820 O.2   118  GLY118     -0.2714
     28  N         28.8130  -15.3480   41.5340 N.am  119  ARG119     -0.1977
     29  CA        28.4060  -14.7650   42.8060 C.3   119  ARG119      0.1597
     30  C         28.2770  -13.2620   42.6860 C.2   119  ARG119      0.2287
     31  O         29.0620  -12.6060   41.9960 O.2   119  ARG119     -0.2864
     32  CB        29.4140  -15.1120   43.9160 C.3   119  ARG119      0.0334
     33  CG        30.8690  -14.8150   43.5430 C.3   119  ARG119      0.0492
     34  CD        31.8590  -15.1390   44.6770 C.3   119  ARG119      0.2205
     35  NE        31.7480  -14.2110   45.8010 N.pl3 119  ARG119     -0.0865
     36  CZ        32.7610  -13.5220   46.3180 C.cat 119  ARG119      0.5346
     37  NH1       33.9910  -13.6460   45.8190 N.pl3 119  ARG119      0.1354
     38  NH2       32.5520  -12.7090   47.3450 N.pl3 119  ARG119      0.1354
     39  N         26.9540  -17.7310   50.5520 N.3   151  GLY151     -0.1210
     40  CA        28.0890  -16.9360   51.0080 C.3   151  GLY151      0.1956
     41  C         29.4300  -17.6450   50.8290 C.2   151  GLY151      0.2612
     42  O         30.4960  -17.0500   51.0580 O.2   151  GLY151     -0.2717
     43  N         29.3890  -18.9210   50.4370 N.am  152  ARG152     -0.1965
     44  CA        30.6160  -19.6660   50.1220 C.3   152  ARG152      0.1729
     45  C         30.2820  -20.8900   49.3050 C.2   152  ARG152      0.2617
     46  O         29.1370  -21.3470   49.3020 O.2   152  ARG152     -0.2715
     47  CB        31.3490  -20.1050   51.3890 C.3   152  ARG152      0.0348
     48  CG        30.4950  -20.9330   52.3520 C.3   152  ARG152      0.0492
     49  CD        31.3730  -21.8250   53.2490 C.3   152  ARG152      0.2205
     50  NE        31.8710  -22.9740   52.5110 N.pl3 152  ARG152     -0.0865
     51  CZ        32.6080  -23.9560   53.0310 C.cat 152  ARG152      0.5346
     52  NH1       32.9560  -23.9470   54.3200 N.pl3 152  ARG152      0.1354
     53  NH2       32.9860  -24.9640   52.2510 N.pl3 152  ARG152      0.1354
     54  N         31.2920  -21.4330   48.6300 N.am  153  THR153     -0.1937
     55  CA        31.1160  -22.6260   47.8070 C.3   153  THR153      0.2028
     56  C         29.9690  -22.4260   46.8180 C.2   153  THR153      0.2642
     57  O         28.9360  -23.1090   46.8820 O.2   153  THR153     -0.2714
     58  CB        30.8770  -23.8880   48.6730 C.3   153  THR153      0.1808
     59  OG1       31.8340  -23.9290   49.7450 O.3   153  THR153     -0.2208
     60  CG2       30.9980  -25.1420   47.8290 C.3   153  THR153      0.0379
     61  N         30.1720  -21.4920   45.8930 N.am  154  VAL154     -0.1963
     62  CA        29.0980  -20.9730   45.0510 C.3   154  VAL154      0.1727
     63  C         28.9150  -21.7690   43.7670 C.2   154  VAL154      0.2616
     64  O         27.9230  -21.5880   43.0680 O.2   154  VAL154     -0.2715
     65  CB        29.3870  -19.5260   44.6610 C.3   154  VAL154      0.0290
     66  CG1       29.4590  -18.6660   45.9030 C.3   154  VAL154      0.0023
     67  CG2       30.7060  -19.4610   43.8640 C.3   154  VAL154      0.0023
     68  N         29.8810  -22.6370   43.4560 N.am  155  HIS155     -0.1959
     69  CA        29.8530  -23.4260   42.2280 C.3   155  HIS155      0.1787
     70  C         28.4310  -23.8210   41.8100 C.2   155  HIS155      0.2621
     71  O         27.6670  -24.3660   42.6110 O.2   155  HIS155     -0.2715
     72  CB        30.6940  -24.6920   42.4250 C.3   155  HIS155      0.0785
     73  CG        30.9150  -25.4800   41.1750 C.ar  155  HIS155      0.0821
     74  ND1       31.6870  -25.0210   40.1360 N.ar  155  HIS155     -0.2267
     75  CD2       30.4860  -26.7120   40.8070 C.ar  155  HIS155      0.1154
     76  CE1       31.7200  -25.9300   39.1760 C.ar  155  HIS155      0.1986
     77  NE2       30.9920  -26.9630   39.5560 N.ar  155  HIS155     -0.2212
     78  N         28.0920  -23.5650   40.5510 N.am  156  GLY156     -0.1940
     79  CA        26.8410  -24.0490   40.0040 C.3   156  GLY156      0.2014
     80  C         26.2070  -23.2040   38.9080 C.2   156  GLY156      0.2639
     81  O         25.3740  -23.7150   38.1630 O.2   156  GLY156     -0.2714
     82  N         26.5860  -21.9310   38.7860 N.am  157  HIS157     -0.1959
     83  CA        25.8740  -21.0680   37.8430 C.3   157  HIS157      0.1787
     84  C         25.9660  -21.5740   36.4060 C.2   157  HIS157      0.2620
     85  O         25.0170  -21.4410   35.6450 O.2   157  HIS157     -0.2715
     86  CB        26.3090  -19.5960   37.9420 C.3   157  HIS157      0.0785
     87  CG        27.5820  -19.2860   37.2130 C.ar  157  HIS157      0.0821
     88  ND1       28.8280  -19.4840   37.7730 N.ar  157  HIS157     -0.2267
     89  CD2       27.8010  -18.7860   35.9740 C.ar  157  HIS157      0.1154
     90  CE1       29.7580  -19.1220   36.9080 C.ar  157  HIS157      0.1986
     91  NE2       29.1620  -18.6880   35.8120 N.ar  157  HIS157     -0.2212
     92  N         27.1000  -22.1610   36.0440 N.am  158  ALA158     -0.1977
     93  CA        27.3320  -22.6320   34.6770 C.3   158  ALA158      0.1597
     94  C         27.1590  -24.1400   34.5270 C.2   158  ALA158      0.2287
     95  O         27.3000  -24.6790   33.4290 O.2   158  ALA158     -0.2864
     96  CB        28.7370  -22.2140   34.1930 C.3   158  ALA158      0.0319
@<TRIPOS>BOND
     1    95    94    2
     2    96    93    1
     3    94    93    1
     4    93    92    1
     5    85    84    2
     6    91    89   ar
     7    91    90   ar
     8    89    87   ar
     9    92    84   am
    10    22    23    1
    11    22    19    1
    12    84    83    1
    13    90    88   ar
    14    87    88   ar
    15    87    86    1
    16    19    18    1
    17    19    20    1
    18    21    20    2
    19    83    86    1
    20    83    82    1
    21    18    12   am
    22    20    24   am
    23    81    80    2
    24    82    80   am
    25    12    13    2
    26    12    11    1
    27    80    79    1
    28    76    77   ar
    29    76    74   ar
    30    24    25    1
    31    77    75   ar
    32    11    10    1
    33    11    14    1
    34    25    26    1
    35    79    78    1
    36    74    73   ar
    37    78    70   am
    38    75    73   ar
    39    14    15    1
    40    73    72    1
    41    26    28   am
    42    26    27    2
    43    28    29    1
    44    15    17    1
    45    15    16    1
    46    70    69    1
    47    70    71    2
    48    31    30    2
    49    69    72    1
    50    69    68    1
    51    30    29    1
    52    29    32    1
    53    64    63    2
    54    68    63   am
    55    33    32    1
    56    33    34    1
    57    63    62    1
    58    67    65    1
    59    65    62    1
    60    65    66    1
    61    34    35    1
    62    62    61    1
    63    35    36    2
    64    37    36    1
    65    61    56   am
    66    36    38    1
    67    56    57    2
    68    56    55    1
    69     6     7    1
    70     6     5    1
    71     3     4    2
    72     3     2    1
    73     8     7    2
    74     7     9   am
    75    55    54    1
    76    55    58    1
    77    60    58    1
    78     2     5    1
    79     2     1    1
    80    54    45   am
    81    58    59    1
    82    46    45    2
    83    45    44    1
    84    44    43    1
    85    44    47    1
    86    43    41   am
    87    39    40    1
    88    41    40    1
    89    41    42    2
    90    47    48    1
    91    53    51    1
    92    48    49    1
    93    50    51    2
    94    50    49    1
    95    51    52    1
