@<TRIPOS>MOLECULE
tmp/3sqgD03.pdb
 116 111 0 0 0
SMALL
GASTEIGER

@<TRIPOS>ATOM
      1  N         37.2790  -66.2740   34.3260 N.3   150  GLY150     -0.1210
      2  CA        36.6810  -66.3870   35.6470 C.3   150  GLY150      0.1956
      3  C         35.5430  -67.4050   35.6490 C.2   150  GLY150      0.2612
      4  O         34.8680  -67.5760   34.6320 O.2   150  GLY150     -0.2717
      5  N         35.3270  -68.0820   36.7810 N.am  151  ALA151     -0.1965
      6  CA        34.3310  -69.1600   36.8580 C.3   151  ALA151      0.1728
      7  C         32.9380  -68.6070   37.1080 C.2   151  ALA151      0.2616
      8  O         32.7580  -67.7250   37.9530 O.2   151  ALA151     -0.2715
      9  CB        34.6870  -70.1490   37.9580 C.3   151  ALA151      0.0334
     10  N         31.9510  -69.1510   36.4040 N.am  152  VAL152     -0.1963
     11  CA        30.5770  -68.6900   36.5910 C.3   152  VAL152      0.1727
     12  C         29.6140  -69.7630   37.0920 C.2   152  VAL152      0.2616
     13  O         28.4950  -69.4430   37.4510 O.2   152  VAL152     -0.2715
     14  CB        30.0010  -68.0180   35.3160 C.3   152  VAL152      0.0290
     15  CG1       30.8240  -66.8030   34.9360 C.3   152  VAL152      0.0023
     16  CG2       29.9510  -68.9860   34.1680 C.3   152  VAL152      0.0023
     17  N         30.0390  -71.0270   37.1250 N.am  153  ILE153     -0.1963
     18  CA        29.1420  -72.1190   37.5570 C.3   153  ILE153      0.1727
     19  C         29.7550  -73.1510   38.5160 C.2   153  ILE153      0.2616
     20  O         29.1870  -73.4230   39.5660 O.2   153  ILE153     -0.2715
     21  CB        28.5510  -72.8900   36.3520 C.3   153  ILE153      0.0290
     22  CG1       27.6470  -71.9850   35.5170 C.3   153  ILE153      0.0022
     23  CG2       27.7650  -74.1210   36.8240 C.3   153  ILE153      0.0023
     24  CD1       26.2980  -71.6640   36.1960 C.3   153  ILE153      0.0001
     25  N         30.9070  -73.7220   38.1570 N.am  154  GLN154     -0.1963
     26  CA        31.4390  -74.8810   38.8910 C.3   154  GLN154      0.1733
     27  C         32.2030  -74.5460   40.1750 C.2   154  GLN154      0.2616
     28  O         32.7970  -73.4760   40.2970 O.2   154  GLN154     -0.2715
     29  CB        32.3130  -75.7490   37.9720 C.3   154  GLN154      0.0408
     30  CG        31.5200  -76.5940   36.9600 C.3   154  GLN154      0.0908
     31  CD        32.4110  -77.5760   36.2090 C.2   154  GLN154      0.2608
     32  OE1       32.4040  -77.6290   34.9830 O.2   154  GLN154     -0.2717
     33  NE2       33.2010  -78.3420   36.9540 N.am  154  GLN154     -0.0878
     34  N         32.1810  -75.4750   41.1290 N.am  155  GLU155     -0.1963
     35  CA        32.9820  -75.3650   42.3330 C.3   155  GLU155      0.1733
     36  C         34.4010  -75.9410   42.0660 C.2   155  GLU155      0.2616
     37  O         34.5870  -76.7300   41.1590 O.2   155  GLU155     -0.2715
     38  CB        32.2760  -76.0650   43.4930 C.3   155  GLU155      0.0429
     39  CG        33.0770  -76.2800   44.7760 C.3   155  GLU155      0.1163
     40  CD        33.4860  -74.9980   45.5150 C.2   155  GLU155      0.3649
     41  OE1       32.9350  -74.7430   46.6140 O.co2 155  GLU155     -0.2457
     42  OE2       34.4020  -74.2750   45.0310 O.co2 155  GLU155     -0.2457
     43  N         35.3860  -75.5070   42.8440 N.am  156  HIS156     -0.1959
     44  CA        36.7970  -75.8970   42.6580 C.3   156  HIS156      0.1787
     45  C         37.4080  -75.6260   41.2600 C.2   156  HIS156      0.2620
     46  O         38.1170  -76.4570   40.7130 O.2   156  HIS156     -0.2715
     47  CB        37.0310  -77.3590   43.0680 C.3   156  HIS156      0.0785
     48  CG        38.3580  -77.5820   43.7250 C.ar  156  HIS156      0.0821
     49  ND1       39.5320  -77.6620   43.0100 N.ar  156  HIS156     -0.2267
     50  CD2       38.7040  -77.6850   45.0290 C.ar  156  HIS156      0.1154
     51  CE1       40.5430  -77.8210   43.8440 C.ar  156  HIS156      0.1986
     52  NE2       40.0690  -77.8380   45.0760 N.ar  156  HIS156     -0.2212
     53  N         37.1440  -74.4550   40.7000 N.am  157  MET157     -0.1963
     54  CA        37.6820  -74.0880   39.3990 C.3   157  MET157      0.1736
     55  C         38.9640  -73.2840   39.6020 C.2   157  MET157      0.2616
     56  O         39.0610  -72.4830   40.5520 O.2   157  MET157     -0.2715
     57  CB        36.6790  -73.2210   38.6220 C.3   157  MET157      0.0427
     58  CG        35.4640  -73.9520   38.0370 C.3   157  MET157      0.0599
     59  SD        35.8910  -75.2690   36.8970 S.3   157  MET157     -0.1393
     60  CE        35.9860  -76.6260   38.0820 C.3   157  MET157      0.0692
     61  N         39.9440  -73.4820   38.7260 N.am  158  VAL158     -0.1977
     62  CA        41.0910  -72.5760   38.7140 C.3   158  VAL158      0.1596
     63  C         40.7130  -71.3810   37.8360 C.2   158  VAL158      0.2287
     64  O         39.8180  -71.4760   36.9940 O.2   158  VAL158     -0.2864
     65  CB        42.4300  -73.2520   38.2510 C.3   158  VAL158      0.0276
     66  CG1       42.5520  -74.6500   38.8160 C.3   158  VAL158      0.0022
     67  CG2       42.5530  -73.2620   36.7690 C.3   158  VAL158      0.0022
     68  N         32.8500  -70.1990   24.1490 N.3   242  MET242     -0.1230
     69  CA        32.8820  -70.8340   25.4670 C.3   242  MET242      0.1702
     70  C         32.3180  -69.9460   26.5710 C.2   242  MET242      0.2592
     71  O         31.5160  -70.3980   27.3960 O.2   242  MET242     -0.2718
     72  CB        34.3090  -71.2630   25.8570 C.3   242  MET242      0.0401
     73  CG        35.0240  -72.1830   24.8500 C.3   242  MET242      0.0596
     74  SD        34.0660  -73.6320   24.3260 S.3   242  MET242     -0.1393
     75  CE        33.3610  -73.1200   22.7510 C.3   242  MET242      0.0692
     76  N         32.7530  -68.6890   26.5880 N.am  243  GLN243     -0.1979
     77  CA        32.4890  -67.8050   27.7130 C.3   243  GLN243      0.1601
     78  C         31.1430  -67.1150   27.5720 C.2   243  GLN243      0.2287
     79  O         30.5100  -66.8020   28.5670 O.2   243  GLN243     -0.2864
     80  CB        33.6280  -66.7800   27.8890 C.3   243  GLN243      0.0394
     81  CG        34.9860  -67.4150   28.2180 C.3   243  GLN243      0.0908
     82  CD        34.8660  -68.5430   29.2190 C.2   243  GLN243      0.2608
     83  OE1       34.5390  -69.6710   28.8490 O.2   243  GLN243     -0.2717
     84  NE2       35.1010  -68.2430   30.4980 N.am  243  GLN243     -0.0878
     85  N         29.0050  -69.9270   28.8200 N.3   246  MET246     -0.1245
     86  CA        28.9320  -69.9700   30.2750 C.3   246  MET246      0.1570
     87  C         28.0670  -68.8310   30.7960 C.2   246  MET246      0.2261
     88  O         27.2950  -69.0060   31.7370 O.2   246  MET246     -0.2867
     89  CB        30.3320  -69.9100   30.9150 C.3   246  MET246      0.0387
     90  CG        31.1960  -71.1790   30.6830 C.3   246  MET246      0.0595
     91  SD        30.3390  -72.7270   31.0870 S.3   246  MET246     -0.1393
     92  CE        29.7140  -72.3630   32.7350 C.3   246  MET246      0.0692
     93  N         24.2100  -69.4410   30.3610 N.3   249  ILE249     -0.1245
     94  CA        23.7110  -70.3750   31.3580 C.3   249  ILE249      0.1561
     95  C         23.3920  -69.6380   32.6540 C.2   249  ILE249      0.2260
     96  O         22.3190  -69.8280   33.2560 O.2   249  ILE249     -0.2867
     97  CB        24.7210  -71.4930   31.6490 C.3   249  ILE249      0.0252
     98  CG1       24.7600  -72.4920   30.4840 C.3   249  ILE249      0.0019
     99  CG2       24.3590  -72.1890   32.9660 C.3   249  ILE249      0.0019
    100  CD1       26.0660  -73.3250   30.4270 C.3   249  ILE249      0.0001
    101  N         22.8890  -76.0230   33.3970 N.3   256  ALA256     -0.1231
    102  CA        24.2750  -75.8850   32.9860 C.3   256  ALA256      0.1694
    103  C         24.6010  -77.0710   32.0940 C.2   256  ALA256      0.2592
    104  O         25.2180  -78.0520   32.5340 O.2   256  ALA256     -0.2718
    105  CB        25.1970  -75.8190   34.1870 C.3   256  ALA256      0.0304
    106  N         24.1540  -76.9790   30.8420 N.am  257  GLY257     -0.1957
    107  CA        24.3500  -78.0430   29.8690 C.3   257  GLY257      0.1869
    108  C         23.0640  -78.7690   29.4750 C.2   257  GLY257      0.2309
    109  O         22.9150  -79.9620   29.7550 O.2   257  GLY257     -0.2863
    110  N         21.7060  -75.0960   25.4260 N.3   261  THR261     -0.1218
    111  CA        23.1430  -74.8050   25.5010 C.3   261  THR261      0.1862
    112  C         23.8310  -75.1730   24.1920 C.2   261  THR261      0.2287
    113  O         24.6650  -74.4300   23.6850 O.2   261  THR261     -0.2866
    114  CB        23.7790  -75.5750   26.6620 C.3   261  THR261      0.1770
    115  OG1       22.9820  -75.3670   27.8370 O.3   261  THR261     -0.2211
    116  CG2       25.2420  -75.1210   26.9230 C.3   261  THR261      0.0375
@<TRIPOS>BOND
     1    75    74    1
     2   113   112    2
     3    68    69    1
     4   112   111    1
     5    74    73    1
     6    73    72    1
     7   110   111    1
     8    69    72    1
     9    69    70    1
    10   111   114    1
    11    70    76   am
    12    70    71    2
    13    76    77    1
    14   114   116    1
    15   114   115    1
    16    78    77    1
    17    78    79    2
    18    77    80    1
    19    80    81    1
    20    81    82    1
    21    85    86    1
    22    83    82    2
    23    82    84   am
    24   108   109    2
    25   108   107    1
    26   107   106    1
    27    86    87    1
    28    86    89    1
    29    93    94    1
    30   100    98    1
    31    98    97    1
    32    90    89    1
    33    90    91    1
    34    87    88    2
    35   106   103   am
    36    91    92    1
    37    94    97    1
    38    94    95    1
    39    97    99    1
    40   103   104    2
    41   103   102    1
    42    95    96    2
    43   102   101    1
    44   102   105    1
    45    16    14    1
    46     1     2    1
    47     4     3    2
    48    15    14    1
    49    32    31    2
    50    14    11    1
    51    22    24    1
    52    22    21    1
    53     2     3    1
    54     3     5   am
    55    31    33   am
    56    31    30    1
    57    21    23    1
    58    21    18    1
    59    10    11    1
    60    10     7   am
    61    11    12    1
    62    67    65    1
    63     5     6    1
    64     6     7    1
    65     6     9    1
    66    59    58    1
    67    59    60    1
    68    30    29    1
    69    64    63    2
    70    12    17   am
    71    12    13    2
    72     7     8    2
    73    17    18    1
    74    18    19    1
    75    63    62    1
    76    29    26    1
    77    58    57    1
    78    25    19   am
    79    25    26    1
    80    65    62    1
    81    65    66    1
    82    19    20    2
    83    57    54    1
    84    62    61    1
    85    61    55   am
    86    26    27    1
    87    54    55    1
    88    54    53    1
    89    55    56    2
    90    27    28    2
    91    27    34   am
    92    53    45   am
    93    46    45    2
    94    34    35    1
    95    37    36    2
    96    45    44    1
    97    36    35    1
    98    36    43   am
    99    35    38    1
   100    44    43    1
   101    44    47    1
   102    49    48   ar
   103    49    51   ar
   104    47    48    1
   105    38    39    1
   106    48    50   ar
   107    51    52   ar
   108    39    40    1
   109    50    52   ar
   110    42    40   ar
   111    40    41   ar
