@<TRIPOS>MOLECULE
tmp/3sqgF01.pdb
 86 83 0 0 0
SMALL
GASTEIGER

@<TRIPOS>ATOM
      1  N         90.9860  -62.0350  -21.8660 N.3    32  GLU32      -0.1231
      2  CA        90.1350  -63.1610  -21.4860 C.3    32  GLU32       0.1699
      3  C         90.5390  -63.7090  -20.1280 C.2    32  GLU32       0.2592
      4  O         89.6870  -64.1080  -19.3260 O.2    32  GLU32      -0.2718
      5  CB        90.1840  -64.2720  -22.5380 C.3    32  GLU32       0.0402
      6  CG        89.4620  -63.9190  -23.8270 C.3    32  GLU32       0.1161
      7  CD        90.4150  -63.6090  -24.9680 C.2    32  GLU32       0.3649
      8  OE1       90.4650  -62.4410  -25.4220 O.co2  32  GLU32      -0.2457
      9  OE2       91.1120  -64.5490  -25.4120 O.co2  32  GLU32      -0.2457
     10  N         91.8460  -63.7010  -19.8820 N.am   33  GLU33      -0.1979
     11  CA        92.4190  -64.2020  -18.6420 C.3    33  GLU33       0.1602
     12  C         91.9580  -63.3550  -17.4610 C.2    33  GLU33       0.2287
     13  O         91.6650  -63.8750  -16.3920 O.2    33  GLU33      -0.2864
     14  CB        93.9530  -64.1960  -18.7350 C.3    33  GLU33       0.0415
     15  CG        94.6660  -65.0630  -17.7030 C.3    33  GLU33       0.1163
     16  CD        96.1900  -64.8510  -17.6800 C.2    33  GLU33       0.3649
     17  OE1       96.6550  -63.7430  -18.0400 O.co2  33  GLU33      -0.2457
     18  OE2       96.9210  -65.7950  -17.2980 O.co2  33  GLU33      -0.2457
     19  N         88.4130  -63.9970  -16.5670 N.3    36  VAL36      -0.1245
     20  CA        88.3060  -65.2160  -15.7710 C.3    36  VAL36       0.1561
     21  C         88.5450  -64.9160  -14.3010 C.2    36  VAL36       0.2260
     22  O         87.9030  -65.4980  -13.4260 O.2    36  VAL36      -0.2867
     23  CB        89.3130  -66.2900  -16.2290 C.3    36  VAL36       0.0252
     24  CG1       89.3370  -67.4560  -15.2420 C.3    36  VAL36       0.0019
     25  CG2       88.9710  -66.7700  -17.6330 C.3    36  VAL36       0.0019
     26  N         86.5530  -69.9330  -11.8400 N.3    42  ARG42      -0.1245
     27  CA        87.7100  -70.8160  -11.9980 C.3    42  ARG42       0.1563
     28  C         88.9660  -69.9560  -12.1280 C.2    42  ARG42       0.2260
     29  O         88.8750  -68.7420  -12.2790 O.2    42  ARG42      -0.2867
     30  CB        87.5500  -71.7170  -13.2250 C.3    42  ARG42       0.0307
     31  CG        87.6540  -70.9740  -14.5430 C.3    42  ARG42       0.0489
     32  CD        87.4430  -71.8800  -15.7530 C.3    42  ARG42       0.2205
     33  NE        87.5700  -71.1000  -16.9820 N.pl3  42  ARG42      -0.0865
     34  CZ        88.6600  -71.0730  -17.7400 C.cat  42  ARG42       0.5346
     35  NH1       88.6910  -70.3210  -18.8350 N.pl3  42  ARG42       0.1354
     36  NH2       89.7140  -71.8160  -17.4180 N.pl3  42  ARG42       0.1354
     37  N         92.5770  -69.0130  -14.1700 N.3    44  PRO44      -0.2102
     38  CA        93.2230  -69.1080  -15.4820 C.3    44  PRO44       0.1504
     39  C         94.0220  -70.4040  -15.6300 C.2    44  PRO44       0.2576
     40  O         94.8340  -70.7340  -14.7630 O.2    44  PRO44      -0.2718
     41  CB        94.1700  -67.9070  -15.4800 C.3    44  PRO44       0.0282
     42  CG        93.4450  -66.8890  -14.6410 C.3    44  PRO44       0.0208
     43  CD        92.7690  -67.6880  -13.5510 C.3    44  PRO44       0.0893
     44  N         93.7790  -71.1290  -16.7180 N.am   45  GLY45      -0.1943
     45  CA        94.5200  -72.3420  -17.0080 C.3    45  GLY45       0.2014
     46  C         93.9310  -73.5980  -16.3890 C.2    45  GLY45       0.2639
     47  O         94.4680  -74.6910  -16.5590 O.2    45  GLY45      -0.2714
     48  N         92.8270  -73.4440  -15.6670 N.am   46  GLU46      -0.1963
     49  CA        92.1590  -74.5790  -15.0500 C.3    46  GLU46       0.1733
     50  C         91.1370  -75.1280  -16.0390 C.2    46  GLU46       0.2616
     51  O         90.4620  -74.3630  -16.7210 O.2    46  GLU46      -0.2715
     52  CB        91.4950  -74.1350  -13.7450 C.3    46  GLU46       0.0429
     53  CG        90.5230  -75.1180  -13.1250 C.3    46  GLU46       0.1163
     54  CD        89.7390  -74.4960  -11.9690 C.2    46  GLU46       0.3649
     55  OE1       90.0950  -73.3660  -11.5540 O.co2  46  GLU46      -0.2457
     56  OE2       88.7700  -75.1260  -11.4790 O.co2  46  GLU46      -0.2457
     57  N         91.0430  -76.4490  -16.1340 N.am   47  GLU47      -0.1963
     58  CA        90.1090  -77.0900  -17.0530 C.3    47  GLU47       0.1733
     59  C         88.6840  -76.9130  -16.5620 C.2    47  GLU47       0.2616
     60  O         88.4030  -77.1180  -15.3830 O.2    47  GLU47      -0.2715
     61  CB        90.4080  -78.5870  -17.1740 C.3    47  GLU47       0.0429
     62  CG        91.8110  -78.9160  -17.6600 C.3    47  GLU47       0.1163
     63  CD        92.0240  -78.5800  -19.1240 C.2    47  GLU47       0.3649
     64  OE1       91.0390  -78.2530  -19.8160 O.co2  47  GLU47      -0.2457
     65  OE2       93.1840  -78.6500  -19.5860 O.co2  47  GLU47      -0.2457
     66  N         87.7900  -76.5390  -17.4720 N.am   48  TYR48      -0.1974
     67  CA        86.3680  -76.4030  -17.1650 C.3    48  TYR48       0.1639
     68  C         85.8370  -77.6490  -16.4710 C.2    48  TYR48       0.2290
     69  O         86.0760  -78.7680  -16.9320 O.2    48  TYR48      -0.2864
     70  CB        85.5690  -76.2220  -18.4540 C.3    48  TYR48       0.0560
     71  CG        85.7650  -74.9090  -19.1730 C.ar   48  TYR48      -0.0198
     72  CD1       86.3930  -74.8660  -20.4090 C.ar   48  TYR48      -0.0009
     73  CD2       85.3000  -73.7150  -18.6280 C.ar   48  TYR48      -0.0009
     74  CE1       86.5640  -73.6760  -21.0790 C.ar   48  TYR48       0.0417
     75  CE2       85.4660  -72.5140  -19.2950 C.ar   48  TYR48       0.0417
     76  CZ        86.0980  -72.5040  -20.5220 C.ar   48  TYR48       0.1957
     77  OH        86.2730  -71.3210  -21.1990 O.3    48  TYR48      -0.2866
     78  N         81.6380  -66.5790  -19.9770 N.3   130  GLU130     -0.1245
     79  CA        82.9300  -65.9130  -20.1210 C.3   130  GLU130      0.1567
     80  C         82.9450  -64.9580  -21.3200 C.2   130  GLU130      0.2260
     81  O         83.4180  -63.8290  -21.2040 O.2   130  GLU130     -0.2867
     82  CB        84.0650  -66.9360  -20.2340 C.3   130  GLU130      0.0388
     83  CG        84.2100  -67.8090  -19.0060 C.3   130  GLU130      0.1160
     84  CD        85.4110  -68.7460  -19.0710 C.2   130  GLU130      0.3649
     85  OE1       86.0200  -68.8950  -20.1590 O.co2 130  GLU130     -0.2457
     86  OE2       85.7420  -69.3340  -18.0180 O.co2 130  GLU130     -0.2457
@<TRIPOS>BOND
     1     8     7   ar
     2     9     7   ar
     3     7     6    1
     4     6     5    1
     5     5     2    1
     6     1     2    1
     7     2     3    1
     8    80    81    2
     9    80    79    1
    10    77    76    1
    11    74    76   ar
    12    74    72   ar
    13    76    75   ar
    14    72    71   ar
    15    82    79    1
    16    82    83    1
    17    85    84   ar
    18     3    10   am
    19     3     4    2
    20    79    78    1
    21    10    11    1
    22    64    63   ar
    23    65    63   ar
    24    75    73   ar
    25    71    73   ar
    26    71    70    1
    27    63    62    1
    28    84    83    1
    29    84    86   ar
    30    35    34    1
    31    14    11    1
    32    14    15    1
    33    11    12    1
    34    70    67    1
    35    17    16   ar
    36    34    36    1
    37    34    33    2
    38    15    16    1
    39    16    18   ar
    40    62    61    1
    41    25    23    1
    42    66    67    1
    43    66    59   am
    44    12    13    2
    45    61    58    1
    46    67    68    1
    47    58    59    1
    48    58    57    1
    49    45    44    1
    50    45    46    1
    51    33    32    1
    52    69    68    2
    53    51    50    2
    54    44    39   am
    55    19    20    1
    56    59    60    2
    57    47    46    2
    58    46    48   am
    59    23    20    1
    60    23    24    1
    61    57    50   am
    62    50    49    1
    63    20    21    1
    64    32    31    1
    65    48    49    1
    66    39    38    1
    67    39    40    2
    68    38    41    1
    69    38    37    1
    70    41    42    1
    71    49    52    1
    72    42    43    1
    73    31    30    1
    74    21    22    2
    75    37    43    1
    76    52    53    1
    77    30    27    1
    78    53    54    1
    79    29    28    2
    80    28    27    1
    81    27    26    1
    82    54    55   ar
    83    54    56   ar
