@<TRIPOS>MOLECULE
tmp/3sqgB01.pdb
 143 136 0 0 0
SMALL
GASTEIGER

@<TRIPOS>ATOM
      1  N         36.2830  -70.2260    0.7540 N.3   162  ASP162     -0.1239
      2  CA        34.8810  -70.6440    0.8090 C.3   162  ASP162      0.1674
      3  C         33.9900  -69.6360    0.0850 C.2   162  ASP162      0.2266
      4  O         33.8410  -68.5040    0.5260 O.2   162  ASP162     -0.2867
      5  CB        34.4470  -70.8080    2.2720 C.3   162  ASP162      0.1410
      6  CG        33.0960  -71.5130    2.4170 C.2   162  ASP162      0.3668
      7  OD1       32.3080  -71.5170    1.4460 O.co2 162  ASP162     -0.2456
      8  OD2       32.8260  -72.0550    3.5110 O.co2 162  ASP162     -0.2456
      9  N         30.9490  -69.6400    0.0110 N.3   164  GLY164     -0.1225
     10  CA        29.6630  -69.7870    0.6700 C.3   164  GLY164      0.1811
     11  C         28.8010  -68.5380    0.7740 C.2   164  GLY164      0.2280
     12  O         27.5930  -68.6360    0.9510 O.2   164  GLY164     -0.2866
     13  N         25.1530  -69.2550   -5.6060 N.3   168  VAL168     -0.1231
     14  CA        24.7670  -70.6220   -5.9240 C.3   168  VAL168      0.1692
     15  C         24.8940  -71.5480   -4.7130 C.2   168  VAL168      0.2592
     16  O         25.9770  -71.6930   -4.1510 O.2   168  VAL168     -0.2718
     17  CB        25.5910  -71.1850   -7.1040 C.3   168  VAL168      0.0266
     18  CG1       25.1750  -72.6210   -7.4090 C.3   168  VAL168      0.0020
     19  CG2       25.4360  -70.2980   -8.3310 C.3   168  VAL168      0.0020
     20  N         23.7890  -72.1880   -4.3300 N.am  169  LYS169     -0.1966
     21  CA        23.7700  -73.0440   -3.1500 C.3   169  LYS169      0.1728
     22  C         23.6590  -74.5270   -3.5260 C.2   169  LYS169      0.2616
     23  O         22.6990  -74.9380   -4.1850 O.2   169  LYS169     -0.2715
     24  CB        22.6030  -72.6500   -2.2360 C.3   169  LYS169      0.0311
     25  CG        22.5370  -71.1660   -1.8990 C.3   169  LYS169      0.0038
     26  CD        23.8740  -70.6870   -1.3210 C.3   169  LYS169      0.0206
     27  CE        23.8170  -69.2280   -0.8910 C.3   169  LYS169      0.1093
     28  NZ        25.1370  -68.7980   -0.3080 N.3   169  LYS169     -0.1314
     29  N         24.6350  -75.3290   -3.0970 N.am  170  MET170     -0.1963
     30  CA        24.6130  -76.7690   -3.3460 C.3   170  MET170      0.1736
     31  C         24.3670  -77.5280   -2.0520 C.2   170  MET170      0.2616
     32  O         24.5350  -76.9810   -0.9660 O.2   170  MET170     -0.2715
     33  CB        25.9530  -77.2440   -3.9240 C.3   170  MET170      0.0427
     34  CG        26.6070  -76.2920   -4.8960 C.3   170  MET170      0.0599
     35  SD        25.8250  -76.3160   -6.5080 S.3   170  MET170     -0.1393
     36  CE        26.2180  -77.9720   -7.0720 C.3   170  MET170      0.0692
     37  N         23.9910  -78.7980   -2.1690 N.am  171  LEU171     -0.1963
     38  CA        23.9580  -79.6820   -1.0070 C.3   171  LEU171      0.1728
     39  C         25.3880  -79.9600   -0.5200 C.2   171  LEU171      0.2616
     40  O         25.6340  -80.0510    0.6820 O.2   171  LEU171     -0.2715
     41  CB        23.2650  -81.0050   -1.3380 C.3   171  LEU171      0.0311
     42  CG        21.7370  -81.0610   -1.4690 C.3   171  LEU171      0.0022
     43  CD1       21.3160  -82.4400   -1.9350 C.3   171  LEU171      0.0001
     44  CD2       21.0610  -80.7090   -0.1550 C.3   171  LEU171      0.0001
     45  N         26.3160  -80.1060   -1.4630 N.am  172  VAL172     -0.1963
     46  CA        27.7180  -80.3960   -1.1520 C.3   172  VAL172      0.1727
     47  C         28.5440  -79.1230   -0.9460 C.2   172  VAL172      0.2616
     48  O         28.0930  -78.0160   -1.2580 O.2   172  VAL172     -0.2715
     49  CB        28.3810  -81.2810   -2.2440 C.3   172  VAL172      0.0290
     50  CG1       27.8110  -82.6820   -2.2150 C.3   172  VAL172      0.0023
     51  CG2       28.1930  -80.6690   -3.6180 C.3   172  VAL172      0.0023
     52  N         29.7550  -79.2950   -0.4170 N.am  173  ASP173     -0.1971
     53  CA        30.6710  -78.1890   -0.1600 C.3   173  ASP173      0.1709
     54  C         31.8440  -78.2360   -1.1240 C.2   173  ASP173      0.2293
     55  O         31.9880  -79.1920   -1.8820 O.2   173  ASP173     -0.2864
     56  CB        31.2060  -78.2720    1.2690 C.3   173  ASP173      0.1436
     57  CG        31.3970  -76.9180    1.8900 C.2   173  ASP173      0.3671
     58  OD1       31.6960  -75.9590    1.1440 O.co2 173  ASP173     -0.2456
     59  OD2       31.2410  -76.8060    3.1240 O.co2 173  ASP173     -0.2456
     60  N         36.9370  -78.3120    2.1370 N.3   177  LYS177     -0.1245
     61  CA        36.2530  -78.4720    3.4170 C.3   177  LYS177      0.1561
     62  C         35.8840  -79.9330    3.7040 C.2   177  LYS177      0.2260
     63  O         35.3770  -80.2590    4.7830 O.2   177  LYS177     -0.2867
     64  CB        35.0110  -77.5550    3.5080 C.3   177  LYS177      0.0271
     65  CG        35.3140  -76.0660    3.3870 C.3   177  LYS177      0.0035
     66  CD        34.0410  -75.1960    3.4270 C.3   177  LYS177      0.0206
     67  CE        33.3550  -75.1490    4.7980 C.3   177  LYS177      0.1093
     68  NZ        31.9550  -74.5400    4.7490 N.3   177  LYS177     -0.1314
     69  N         29.5270  -84.2880    3.0820 N.3   187  ASN187     -0.1240
     70  CA        29.5660  -82.9020    3.4900 C.3   187  ASN187      0.1653
     71  C         28.2560  -82.2010    3.1600 C.2   187  ASN187      0.2266
     72  O         28.2440  -81.2070    2.4180 O.2   187  ASN187     -0.2867
     73  CB        30.7520  -82.1920    2.8400 C.3   187  ASN187      0.1155
     74  CG        31.3740  -81.1600    3.7590 C.2   187  ASN187      0.2627
     75  OD1       30.7930  -80.8140    4.7870 O.2   187  ASN187     -0.2716
     76  ND2       32.5630  -80.6660    3.3980 N.am  187  ASN187     -0.0877
     77  N         24.7070  -80.9610    5.2380 N.3   189  PRO189     -0.2116
     78  CA        23.9850  -80.7880    6.5030 C.3   189  PRO189      0.1372
     79  C         22.7050  -81.6190    6.5960 C.2   189  PRO189      0.2244
     80  O         21.9750  -81.7830    5.6080 O.2   189  PRO189     -0.2868
     81  CB        23.6470  -79.2990    6.4970 C.3   189  PRO189      0.0268
     82  CG        24.7880  -78.6980    5.7420 C.3   189  PRO189      0.0207
     83  CD        25.0460  -79.6660    4.6290 C.3   189  PRO189      0.0892
     84  N         20.0340  -80.7550    8.1430 N.3   191  ASN191     -0.1225
     85  CA        18.8870  -79.8720    7.8980 C.3   191  ASN191      0.1785
     86  C         18.5790  -79.6970    6.4180 C.2   191  ASN191      0.2597
     87  O         17.4370  -79.5120    6.0460 O.2   191  ASN191     -0.2718
     88  CB        19.0790  -78.4960    8.5460 C.3   191  ASN191      0.1169
     89  CG        18.5520  -78.4370    9.9690 C.2   191  ASN191      0.2627
     90  OD1       18.0570  -79.4280   10.5030 O.2   191  ASN191     -0.2716
     91  ND2       18.6640  -77.2680   10.5950 N.am  191  ASN191     -0.0877
     92  N         19.6010  -79.7270    5.5740 N.am  192  HIS192     -0.1975
     93  CA        19.3790  -79.5970    4.1390 C.3   192  HIS192      0.1656
     94  C         18.7020  -80.8240    3.5950 C.2   192  HIS192      0.2291
     95  O         17.8700  -80.7250    2.7060 O.2   192  HIS192     -0.2864
     96  CB        20.6870  -79.3870    3.3890 C.3   192  HIS192      0.0771
     97  CG        21.3140  -78.0650    3.6500 C.ar  192  HIS192      0.0820
     98  ND1       20.6740  -77.0710    4.3580 N.ar  192  HIS192     -0.2267
     99  CD2       22.5290  -77.5700    3.3160 C.ar  192  HIS192      0.1154
    100  CE1       21.4650  -76.0140    4.4400 C.ar  192  HIS192      0.1986
    101  NE2       22.5990  -76.2950    3.8220 N.ar  192  HIS192     -0.2212
    102  N         20.4370  -81.0630   13.5680 N.3   367  GLY367     -0.1210
    103  CA        20.2980  -80.5720   12.2080 C.3   367  GLY367      0.1956
    104  C         21.5390  -79.9040   11.6430 C.2   367  GLY367      0.2611
    105  O         21.6500  -79.7420   10.4270 O.2   367  GLY367     -0.2717
    106  N         22.4700  -79.5100   12.5100 N.am  368  VAL368     -0.1979
    107  CA        23.7220  -78.8940   12.0440 C.3   368  VAL368      0.1595
    108  C         24.8720  -79.9030   11.8950 C.2   368  VAL368      0.2287
    109  O         25.9900  -79.5200   11.5660 O.2   368  VAL368     -0.2864
    110  CB        24.1980  -77.7170   12.9540 C.3   368  VAL368      0.0276
    111  CG1       23.0920  -76.6710   13.1170 C.3   368  VAL368      0.0022
    112  CG2       24.6780  -78.2310   14.3190 C.3   368  VAL368      0.0022
    113  N         26.3990  -83.6680   10.1800 N.3   370  TYR370     -0.1241
    114  CA        26.4400  -84.2900    8.8650 C.3   370  TYR370      0.1605
    115  C         27.5800  -85.3040    8.8940 C.2   370  TYR370      0.2264
    116  O         28.3930  -85.2970    9.8240 O.2   370  TYR370     -0.2867
    117  CB        26.6100  -83.2440    7.7420 C.3   370  TYR370      0.0534
    118  CG        27.6230  -82.1470    8.0270 C.ar  370  TYR370     -0.0201
    119  CD1       28.9260  -82.2310    7.5460 C.ar  370  TYR370     -0.0009
    120  CD2       27.2750  -81.0260    8.7840 C.ar  370  TYR370     -0.0009
    121  CE1       29.8500  -81.2350    7.8060 C.ar  370  TYR370      0.0417
    122  CE2       28.1990  -80.0250    9.0580 C.ar  370  TYR370      0.0417
    123  CZ        29.4880  -80.1380    8.5660 C.ar  370  TYR370      0.1957
    124  OH        30.4120  -79.1510    8.8320 O.3   370  TYR370     -0.2866
    125  N         17.1240  -72.7890    8.5310 N.3   405  THR405     -0.1218
    126  CA        18.4150  -72.8350    7.8550 C.3   405  THR405      0.1862
    127  C         18.3580  -73.2820    6.3850 C.2   405  THR405      0.2287
    128  O         19.3090  -73.0510    5.6400 O.2   405  THR405     -0.2866
    129  CB        19.3820  -73.7650    8.5950 C.3   405  THR405      0.1770
    130  OG1       18.9200  -75.1150    8.4820 O.3   405  THR405     -0.2211
    131  CG2       19.4830  -73.3810   10.0660 C.3   405  THR405      0.0375
    132  N         16.4450  -75.0990    0.0370 N.3   409  TYR409     -0.1241
    133  CA        16.5460  -76.4690   -0.4570 C.3   409  TYR409      0.1605
    134  C         15.1740  -77.1490   -0.5530 C.2   409  TYR409      0.2264
    135  O         14.8510  -77.7900   -1.5570 O.2   409  TYR409     -0.2867
    136  CB        17.5080  -77.2820    0.4090 C.3   409  TYR409      0.0534
    137  CG        18.9080  -76.7140    0.4060 C.ar  409  TYR409     -0.0201
    138  CD1       19.8290  -77.1100   -0.5490 C.ar  409  TYR409     -0.0009
    139  CD2       19.2980  -75.7580    1.3410 C.ar  409  TYR409     -0.0009
    140  CE1       21.1210  -76.5880   -0.5660 C.ar  409  TYR409      0.0417
    141  CE2       20.5880  -75.2240    1.3290 C.ar  409  TYR409      0.0417
    142  CZ        21.4890  -75.6490    0.3660 C.ar  409  TYR409      0.1957
    143  OH        22.7650  -75.1410    0.3260 O.3   409  TYR409     -0.2866
@<TRIPOS>BOND
     1    19    17    1
     2    18    17    1
     3    17    14    1
     4    36    35    1
     5    35    34    1
     6    14    13    1
     7    14    15    1
     8    34    33    1
     9    15    20   am
    10    15    16    2
    11    20    21    1
    12    23    22    2
    13    33    30    1
    14    51    49    1
    15    22    21    1
    16    22    29   am
    17    30    29    1
    18    30    31    1
    19    21    24    1
    20    49    50    1
    21    49    46    1
    22    24    25    1
    23    37    31   am
    24    37    38    1
    25    31    32    2
    26    43    42    1
    27    25    26    1
    28    55    54    2
    29   135   134    2
    30    42    41    1
    31    42    44    1
    32    45    46    1
    33    45    39   am
    34    41    38    1
    35    26    27    1
    36    48    47    2
    37    46    47    1
    38    54    53    1
    39    38    39    1
    40    47    52   am
    41    27    28    1
    42   140   138   ar
    43   140   142   ar
    44   134   133    1
    45   138   137   ar
    46    39    40    2
    47   133   132    1
    48   133   136    1
    49    52    53    1
    50    53    56    1
    51     9    10    1
    52     3     4    2
    53     3     2    1
    54   143   142    1
    55   142   141   ar
    56   137   136    1
    57   137   139   ar
    58    10    11    1
    59     1     2    1
    60    11    12    2
    61     2     5    1
    62    58    57   ar
    63    56    57    1
    64   141   139   ar
    65     7     6   ar
    66    57    59   ar
    67    60    61    1
    68     5     6    1
    69     6     8   ar
    70    72    71    2
    71    95    94    2
    72    73    70    1
    73    73    74    1
    74    69    70    1
    75    71    70    1
    76    99    97   ar
    77    99   101   ar
    78    65    66    1
    79    65    64    1
    80    96    97    1
    81    96    93    1
    82    76    74   am
    83    61    64    1
    84    61    62    1
    85    66    67    1
    86    94    93    1
    87    97    98   ar
    88    62    63    2
    89    74    75    2
    90   101   100   ar
    91    93    92    1
    92    98   100   ar
    93    83    77    1
    94    83    82    1
    95    68    67    1
    96    77    78    1
    97    92    86   am
    98    80    79    2
    99   128   127    2
   100    82    81    1
   101    87    86    2
   102   127   126    1
   103    86    85    1
   104    81    78    1
   105    78    79    1
   106   119   121   ar
   107   119   118   ar
   108   117   118    1
   109   117   114    1
   110   121   123   ar
   111   126   125    1
   112   126   129    1
   113    85    84    1
   114    85    88    1
   115   118   120   ar
   116   130   129    1
   117    88    89    1
   118   123   124    1
   119   123   122   ar
   120   129   131    1
   121   120   122   ar
   122   114   115    1
   123   114   113    1
   124   115   116    2
   125    89    90    2
   126    89    91   am
   127   105   104    2
   128   109   108    2
   129   104   103    1
   130   104   106   am
   131   108   107    1
   132   107   106    1
   133   107   110    1
   134   103   102    1
   135   110   111    1
   136   110   112    1
