@<TRIPOS>MOLECULE
tmp/3sqgG02.pdb
 97 94 0 0 0
SMALL
GASTEIGER

@<TRIPOS>ATOM
      1  N         31.5890  -35.5290   24.2460 N.3    14  SER14      -0.1202
      2  CA        31.0500  -36.8890   24.1850 C.3    14  SER14       0.2020
      3  C         31.7450  -37.8400   25.1650 C.2    14  SER14       0.2619
      4  O         31.0990  -38.6760   25.8030 O.2    14  SER14      -0.2717
      5  CB        31.1870  -37.4480   22.7660 C.3    14  SER14       0.2103
      6  OG        30.5610  -36.5910   21.8200 O.3    14  SER14      -0.2182
      7  N         33.0640  -37.7060   25.2820 N.am   15  ASP15      -0.1959
      8  CA        33.8560  -38.6160   26.1010 C.3    15  ASP15       0.1840
      9  C         33.9320  -38.2070   27.5750 C.2    15  ASP15       0.2622
     10  O         34.2150  -39.0420   28.4330 O.2    15  ASP15      -0.2715
     11  CB        35.2670  -38.7670   25.5130 C.3    15  ASP15       0.1450
     12  CG        35.2560  -39.3870   24.1230 C.2    15  ASP15       0.3671
     13  OD1       34.2010  -39.9440   23.7210 O.co2  15  ASP15      -0.2456
     14  OD2       36.3010  -39.3260   23.4380 O.co2  15  ASP15      -0.2456
     15  N         33.6860  -36.9310   27.8740 N.am   16  LYS16      -0.1963
     16  CA        33.6300  -36.4800   29.2690 C.3    16  LYS16       0.1728
     17  C         32.3070  -36.8380   29.9590 C.2    16  LYS16       0.2616
     18  O         32.2980  -37.2520   31.1210 O.2    16  LYS16      -0.2715
     19  CB        33.8350  -34.9640   29.3660 C.3    16  LYS16       0.0311
     20  CG        35.2410  -34.4710   29.0320 C.3    16  LYS16       0.0038
     21  CD        35.2300  -32.9600   28.8040 C.3    16  LYS16       0.0206
     22  CE        34.7990  -32.2000   30.0510 C.3    16  LYS16       0.1093
     23  NZ        35.9240  -31.4840   30.7110 N.3    16  LYS16      -0.1314
     24  N         31.1900  -36.6740   29.2480 N.am   17  PHE17      -0.1960
     25  CA        29.8700  -36.7160   29.8890 C.3    17  PHE17       0.1771
     26  C         28.9560  -37.8280   29.3760 C.2    17  PHE17       0.2619
     27  O         28.9380  -38.1330   28.1810 O.2    17  PHE17      -0.2715
     28  CB        29.1520  -35.3750   29.7100 C.3    17  PHE17       0.0574
     29  CG        29.9260  -34.1830   30.2210 C.ar   17  PHE17      -0.0200
     30  CD1       30.5220  -33.2950   29.3350 C.ar   17  PHE17      -0.0042
     31  CD2       30.0160  -33.9240   31.5780 C.ar   17  PHE17      -0.0042
     32  CE1       31.2150  -32.1760   29.7920 C.ar   17  PHE17      -0.0003
     33  CE2       30.7140  -32.8020   32.0470 C.ar   17  PHE17      -0.0003
     34  CZ        31.3130  -31.9290   31.1480 C.ar   17  PHE17      -0.0000
     35  N         28.1710  -38.4150   30.2710 N.am   18  ALA18      -0.1963
     36  CA        27.2580  -39.4770   29.8480 C.3    18  ALA18       0.1728
     37  C         26.2160  -38.9740   28.8630 C.2    18  ALA18       0.2616
     38  O         25.9280  -39.6390   27.8770 O.2    18  ALA18      -0.2715
     39  CB        26.5940  -40.1550   31.0430 C.3    18  ALA18       0.0334
     40  N         25.6570  -37.7950   29.1190 N.am   19  GLU19      -0.1977
     41  CA        24.5510  -37.2950   28.3050 C.3    19  GLU19       0.1602
     42  C         25.0660  -36.7170   26.9830 C.2    19  GLU19       0.2287
     43  O         26.2700  -36.7220   26.7260 O.2    19  GLU19      -0.2864
     44  CB        23.7370  -36.2520   29.0770 C.3    19  GLU19       0.0415
     45  CG        23.2950  -36.7100   30.4790 C.3    19  GLU19       0.1163
     46  CD        24.3560  -36.4610   31.5600 C.2    19  GLU19       0.3649
     47  OE1       25.4870  -36.0480   31.2240 O.co2  19  GLU19      -0.2457
     48  OE2       24.0550  -36.6770   32.7550 O.co2  19  GLU19      -0.2457
     49  N         21.5280  -32.9740   34.2610 N.3    26  THR26      -0.1218
     50  CA        22.3560  -34.0870   34.6820 C.3    26  THR26       0.1862
     51  C         21.9530  -34.4670   36.0960 C.2    26  THR26       0.2287
     52  O         20.9090  -34.0320   36.5800 O.2    26  THR26      -0.2866
     53  CB        23.8740  -33.7320   34.6070 C.3    26  THR26       0.1770
     54  OG1       24.6560  -34.9190   34.7750 O.3    26  THR26      -0.2211
     55  CG2       24.2620  -32.7150   35.6810 C.3    26  THR26       0.0375
     56  N         27.4070  -39.4980   43.4090 N.3    31  TYR31      -0.1241
     57  CA        28.7220  -40.0280   43.0090 C.3    31  TYR31       0.1605
     58  C         29.5400  -40.6570   44.1350 C.2    31  TYR31       0.2264
     59  O         30.5920  -41.2380   43.8810 O.2    31  TYR31      -0.2867
     60  CB        29.5580  -38.9270   42.3500 C.3    31  TYR31       0.0534
     61  CG        28.9490  -38.4070   41.0740 C.ar   31  TYR31      -0.0201
     62  CD1       29.1460  -39.0740   39.8740 C.ar   31  TYR31      -0.0009
     63  CD2       28.1680  -37.2520   41.0720 C.ar   31  TYR31      -0.0009
     64  CE1       28.5830  -38.6060   38.6960 C.ar   31  TYR31       0.0417
     65  CE2       27.6030  -36.7810   39.9050 C.ar   31  TYR31       0.0417
     66  CZ        27.8150  -37.4610   38.7180 C.ar   31  TYR31       0.1957
     67  OH        27.2530  -37.0010   37.5480 O.3    31  TYR31      -0.2866
     68  N         35.1920  -42.0470   39.6420 N.3    37  LYS37      -0.1245
     69  CA        36.4160  -42.2010   38.8730 C.3    37  LYS37       0.1561
     70  C         37.3120  -40.9480   38.9510 C.2    37  LYS37       0.2260
     71  O         38.5170  -41.0500   39.0660 O.2    37  LYS37      -0.2867
     72  CB        36.0530  -42.5520   37.4290 C.3    37  LYS37       0.0271
     73  CG        37.2270  -42.9330   36.5610 C.3    37  LYS37       0.0035
     74  CD        36.7690  -43.1180   35.1160 C.3    37  LYS37       0.0206
     75  CE        37.9400  -43.5440   34.2360 C.3    37  LYS37       0.1093
     76  NZ        38.5190  -44.8300   34.7160 N.3    37  LYS37      -0.1314
     77  N         29.9120  -34.1340   39.2660 N.3    75  TYR75      -0.1241
     78  CA        30.7910  -34.9550   38.4580 C.3    75  TYR75       0.1605
     79  C         32.1840  -34.3440   38.3500 C.2    75  TYR75       0.2264
     80  O         32.3350  -33.2100   37.8730 O.2    75  TYR75      -0.2867
     81  CB        30.2080  -35.0840   37.0550 C.3    75  TYR75       0.0534
     82  CG        31.0580  -35.8810   36.0830 C.ar   75  TYR75      -0.0201
     83  CD1       31.4260  -35.3460   34.8470 C.ar   75  TYR75      -0.0009
     84  CD2       31.4930  -37.1690   36.3950 C.ar   75  TYR75      -0.0009
     85  CE1       32.1910  -36.0850   33.9440 C.ar   75  TYR75       0.0417
     86  CE2       32.2420  -37.8980   35.5070 C.ar   75  TYR75       0.0417
     87  CZ        32.5900  -37.3570   34.2860 C.ar   75  TYR75       0.1957
     88  OH        33.3420  -38.1000   33.4060 O.3    75  TYR75      -0.2866
     89  N         29.6870  -26.1670   31.4540 N.3   409  GLU409     -0.1245
     90  CA        29.9560  -26.9150   32.6760 C.3   409  GLU409      0.1567
     91  C         31.4540  -27.2580   32.7520 C.2   409  GLU409      0.2260
     92  O         32.0200  -27.3920   33.8370 O.2   409  GLU409     -0.2867
     93  CB        29.1140  -28.1930   32.7090 C.3   409  GLU409      0.0388
     94  CG        29.3200  -29.0990   33.9420 C.3   409  GLU409      0.1160
     95  CD        28.1880  -30.1240   34.1230 C.2   409  GLU409      0.3649
     96  OE1       28.4700  -31.2840   34.5090 O.co2 409  GLU409     -0.2457
     97  OE2       27.0080  -29.7620   33.8830 O.co2 409  GLU409     -0.2457
@<TRIPOS>BOND
     1     6     5    1
     2     5     2    1
     3    14    12   ar
     4    13    12   ar
     5    12    11    1
     6     2     1    1
     7     2     3    1
     8     3     7   am
     9     3     4    2
    10     7     8    1
    11    11     8    1
    12     8     9    1
    13    43    42    2
    14    42    41    1
    15     9    15   am
    16     9    10    2
    17    15    16    1
    18    38    37    2
    19    27    26    2
    20    41    44    1
    21    41    40    1
    22    21    20    1
    23    21    22    1
    24    37    40   am
    25    37    36    1
    26    20    19    1
    27    44    45    1
    28    24    25    1
    29    24    17   am
    30    16    19    1
    31    16    17    1
    32    30    32   ar
    33    30    29   ar
    34    26    25    1
    35    26    35   am
    36    28    25    1
    37    28    29    1
    38    32    34   ar
    39    36    35    1
    40    36    39    1
    41    17    18    2
    42    22    23    1
    43    29    31   ar
    44    45    46    1
    45    34    33   ar
    46    47    46   ar
    47    89    90    1
    48    46    48   ar
    49    31    33   ar
    50    90    93    1
    51    90    91    1
    52    93    94    1
    53    91    92    2
    54    88    87    1
    55    97    95   ar
    56    94    95    1
    57    85    87   ar
    58    85    83   ar
    59    95    96   ar
    60    75    76    1
    61    75    74    1
    62    49    50    1
    63    87    86   ar
    64    53    50    1
    65    53    54    1
    66    53    55    1
    67    50    51    1
    68    83    82   ar
    69    74    73    1
    70    86    84   ar
    71    82    84   ar
    72    82    81    1
    73    51    52    2
    74    73    72    1
    75    81    78    1
    76    72    69    1
    77    67    66    1
    78    80    79    2
    79    79    78    1
    80    78    77    1
    81    64    66   ar
    82    64    62   ar
    83    66    65   ar
    84    69    70    1
    85    69    68    1
    86    70    71    2
    87    62    61   ar
    88    65    63   ar
    89    63    61   ar
    90    61    60    1
    91    60    57    1
    92    57    56    1
    93    57    58    1
    94    59    58    2
