@<TRIPOS>MOLECULE
tmp/3sqjB02.pdb
 178 165 0 0 0
SMALL
GASTEIGER

@<TRIPOS>ATOM
      1  N         14.8880    7.6820   27.7730 N.3   340  SER340     -0.1217
      2  CA        15.2410    6.7980   26.6880 C.3   340  SER340      0.1889
      3  C         13.9660    6.1780   26.1400 C.2   340  SER340      0.2288
      4  O         12.9440    6.1630   26.8250 O.2   340  SER340     -0.2866
      5  CB        16.1750    5.7110   27.1650 C.3   340  SER340      0.2089
      6  OG        15.5440    5.0790   28.2380 O.3   340  SER340     -0.2183
      7  N         13.7200    2.9680   25.5150 N.3   342  VAL342     -0.1231
      8  CA        13.5650    1.6960   26.2900 C.3   342  VAL342      0.1692
      9  C         12.9840    1.9030   27.6940 C.2   342  VAL342      0.2591
     10  O         12.3090    1.0210   28.2630 O.2   342  VAL342     -0.2718
     11  CB        14.8390    0.8400   26.3820 C.3   342  VAL342      0.0266
     12  CG1       15.2770    0.2570   24.9450 C.3   342  VAL342      0.0020
     13  CG2       16.0190    1.6510   27.0120 C.3   342  VAL342      0.0020
     14  N         13.2580    3.0730   28.2980 N.am  343  LEU343     -0.1980
     15  CA        12.6300    3.3330   29.5880 C.3   343  LEU343      0.1596
     16  C         11.1080    3.5140   29.4420 C.2   343  LEU343      0.2287
     17  O         10.3220    3.1430   30.3330 O.2   343  LEU343     -0.2864
     18  CB        13.2060    4.6170   30.2320 C.3   343  LEU343      0.0297
     19  CG        12.3450    5.2170   31.3970 C.3   343  LEU343      0.0022
     20  CD1       12.1010    4.2580   32.6260 C.3   343  LEU343      0.0001
     21  CD2       13.0230    6.5740   31.9350 C.3   343  LEU343      0.0001
     22  N          9.6980    0.1140   29.1400 N.3   346  ARG346     -0.1245
     23  CA         9.5490   -0.5130   30.4750 C.3   346  ARG346      0.1563
     24  C          8.3140   -0.0380   31.2640 C.2   346  ARG346      0.2260
     25  O          7.6940   -0.8340   31.9410 O.2   346  ARG346     -0.2867
     26  CB        10.7850   -0.2850   31.3760 C.3   346  ARG346      0.0307
     27  CG        12.1320   -0.8870   30.9160 C.3   346  ARG346      0.0489
     28  CD        13.2890   -0.5690   31.9200 C.3   346  ARG346      0.2205
     29  NE        14.4800   -0.7920   31.1110 N.pl3 346  ARG346     -0.0865
     30  CZ        15.3790    0.0810   30.6900 C.cat 346  ARG346      0.5346
     31  NH1       15.4410    1.3610   31.1830 N.pl3 346  ARG346      0.1354
     32  NH2       16.3040   -0.3940   29.8200 N.pl3 346  ARG346      0.1354
     33  N         18.0960    4.5870   35.8140 N.3   382  PRO382     -0.2116
     34  CA        19.0230    5.1480   34.8330 C.3   382  PRO382      0.1372
     35  C         19.4030    6.5920   35.1540 C.2   382  PRO382      0.2244
     36  O         20.5130    7.0140   34.8300 O.2   382  PRO382     -0.2868
     37  CB        18.2310    5.1590   33.5170 C.3   382  PRO382      0.0268
     38  CG        16.7660    5.0210   33.9370 C.3   382  PRO382      0.0207
     39  CD        16.7310    4.3560   35.2630 C.3   382  PRO382      0.0892
     40  N         22.1740    6.1420   37.5340 N.3   385  LEU385     -0.1231
     41  CA        23.3880    5.6050   36.9420 C.3   385  LEU385      0.1693
     42  C         24.1150    6.6570   36.1130 C.2   385  LEU385      0.2591
     43  O         25.3590    6.7280   36.0980 O.2   385  LEU385     -0.2718
     44  CB        23.0850    4.4640   35.9850 C.3   385  LEU385      0.0284
     45  CG        23.1900    3.0510   36.5000 C.3   385  LEU385      0.0019
     46  CD1       22.7800    2.1450   35.3850 C.3   385  LEU385      0.0001
     47  CD2       24.6330    2.7510   36.9660 C.3   385  LEU385      0.0001
     48  N         23.3550    7.4380   35.3590 N.am  386  ILE386     -0.1980
     49  CA        23.9530    8.5440   34.6190 C.3   386  ILE386      0.1595
     50  C         24.6710    9.5120   35.5950 C.2   386  ILE386      0.2287
     51  O         25.7820    9.9040   35.3570 O.2   386  ILE386     -0.2864
     52  CB        22.8990    9.3300   33.8000 C.3   386  ILE386      0.0276
     53  CG1       22.5660    8.5600   32.5120 C.3   386  ILE386      0.0022
     54  CG2       23.4190   10.7950   33.4400 C.3   386  ILE386      0.0022
     55  CD1       21.2940    9.0480   31.8150 C.3   386  ILE386      0.0001
     56  N         27.9750    7.8320   37.0990 N.3   389  ASN389     -0.1225
     57  CA        29.0230    7.6490   36.1500 C.3   389  ASN389      0.1785
     58  C         29.5860    8.9790   35.6620 C.2   389  ASN389      0.2597
     59  O         30.7770    9.0960   35.4220 O.2   389  ASN389     -0.2718
     60  CB        28.5330    6.7680   34.9860 C.3   389  ASN389      0.1169
     61  CG        28.6110    5.3040   35.3150 C.2   389  ASN389      0.2627
     62  OD1       29.6990    4.7100   35.3660 O.2   389  ASN389     -0.2716
     63  ND2       27.4820    4.7070   35.5540 N.am  389  ASN389     -0.0877
     64  N         28.7220    9.9660   35.4700 N.am  390  CYS390     -0.1970
     65  CA        29.1790   11.2710   34.9840 C.3   390  CYS390      0.1712
     66  C         29.9640   12.0210   36.0850 C.2   390  CYS390      0.2296
     67  O         30.9220   12.7190   35.7590 O.2   390  CYS390     -0.2864
     68  CB        28.0490   12.1260   34.3930 C.3   390  CYS390      0.0983
     69  SG        27.4160   11.5120   32.7600 S.3   390  CYS390     -0.0798
     70  N         38.8950    7.2970   33.4060 N.3   401  PHE401     -0.1241
     71  CA        37.5190    6.8140   33.4890 C.3   401  PHE401      0.1605
     72  C         37.4760    5.4410   32.8760 C.2   401  PHE401      0.2264
     73  O         36.9180    4.5250   33.4700 O.2   401  PHE401     -0.2867
     74  CB        36.5010    7.7200   32.7510 C.3   401  PHE401      0.0534
     75  CG        35.0490    7.2480   32.8780 C.ar  401  PHE401     -0.0203
     76  CD1       34.4990    6.9900   34.1250 C.ar  401  PHE401     -0.0042
     77  CD2       34.2550    7.0740   31.7520 C.ar  401  PHE401     -0.0042
     78  CE1       33.1900    6.5540   34.2560 C.ar  401  PHE401     -0.0003
     79  CE2       32.9290    6.6480   31.8700 C.ar  401  PHE401     -0.0003
     80  CZ        32.4030    6.4070   33.1320 C.ar  401  PHE401     -0.0000
     81  N         36.6330    1.4630   34.4100 N.3   405  LEU405     -0.1245
     82  CA        35.6200    0.5960   33.8250 C.3   405  LEU405      0.1561
     83  C         36.2590   -0.7340   33.4810 C.2   405  LEU405      0.2260
     84  O         35.6430   -1.8070   33.6130 O.2   405  LEU405     -0.2867
     85  CB        34.9890    1.2190   32.5390 C.3   405  LEU405      0.0270
     86  CG        34.2800    2.5570   32.6450 C.3   405  LEU405      0.0019
     87  CD1       33.6570    2.9170   31.3100 C.3   405  LEU405      0.0001
     88  CD2       33.2270    2.4830   33.7700 C.3   405  LEU405      0.0001
     89  N         34.7480   -4.0780   34.8390 N.3   409  TYR409     -0.1241
     90  CA        34.1840   -5.0570   33.9140 C.3   409  TYR409      0.1605
     91  C         35.0210   -6.3160   33.8580 C.2   409  TYR409      0.2264
     92  O         34.4890   -7.4090   33.6470 O.2   409  TYR409     -0.2867
     93  CB        33.9280   -4.4610   32.5340 C.3   409  TYR409      0.0534
     94  CG        32.9440   -3.2930   32.5890 C.ar  409  TYR409     -0.0201
     95  CD1       31.8410   -3.3030   33.4440 C.ar  409  TYR409     -0.0009
     96  CD2       33.1220   -2.1810   31.7690 C.ar  409  TYR409     -0.0009
     97  CE1       30.9310   -2.2000   33.4880 C.ar  409  TYR409      0.0417
     98  CE2       32.2320   -1.1310   31.7830 C.ar  409  TYR409      0.0417
     99  CZ        31.1700   -1.1290   32.6330 C.ar  409  TYR409      0.1957
    100  OH        30.3790   -0.0130   32.5830 O.3   409  TYR409     -0.2866
    101  N         32.9670    2.3910   26.0370 N.3   428  LEU428     -0.1245
    102  CA        32.0810    2.8650   27.1290 C.3   428  LEU428      0.1561
    103  C         32.5830    4.2130   27.7180 C.2   428  LEU428      0.2260
    104  O         31.8160    5.1840   27.9470 O.2   428  LEU428     -0.2867
    105  CB        31.8430    1.7480   28.1880 C.3   428  LEU428      0.0270
    106  CG        31.1110    0.5200   27.6420 C.3   428  LEU428      0.0019
    107  CD1       31.2100   -0.6770   28.5210 C.3   428  LEU428      0.0001
    108  CD2       29.6460    0.8210   27.3040 C.3   428  LEU428      0.0001
    109  N         31.5160    6.9750   25.6500 N.3   431  VAL431     -0.1231
    110  CA        30.1080    7.3340   25.8220 C.3   431  VAL431      0.1692
    111  C         30.0000    8.3600   26.9180 C.2   431  VAL431      0.2592
    112  O         29.1860    9.2820   26.8350 O.2   431  VAL431     -0.2718
    113  CB        29.1940    6.1440   26.1610 C.3   431  VAL431      0.0266
    114  CG1       27.8110    6.6490   26.3820 C.3   431  VAL431      0.0020
    115  CG2       29.1850    5.0510   24.9950 C.3   431  VAL431      0.0020
    116  N         30.8420    8.1990   27.9460 N.am  432  GLY432     -0.1957
    117  CA        30.8690    9.1100   29.0640 C.3   432  GLY432      0.1869
    118  C         31.2090   10.5170   28.6210 C.2   432  GLY432      0.2309
    119  O         30.4900   11.4910   28.9630 O.2   432  GLY432     -0.2863
    120  N         28.2600   11.9290   26.2430 N.3   435  CYS435     -0.1221
    121  CA        26.9340   12.2020   26.7860 C.3   435  CYS435      0.1808
    122  C         27.0110   12.9840   28.0900 C.2   435  CYS435      0.2601
    123  O         26.0720   13.6990   28.4110 O.2   435  CYS435     -0.2717
    124  CB        26.1580   10.9040   26.9890 C.3   435  CYS435      0.0970
    125  SG        25.7530   10.0400   25.4690 S.3   435  CYS435     -0.0800
    126  N         28.0970   12.8370   28.8590 N.am  436  CYS436     -0.1970
    127  CA        28.1880   13.6370   30.0920 C.3   436  CYS436      0.1712
    128  C         28.3120   15.1660   29.8170 C.2   436  CYS436      0.2296
    129  O         27.9540   15.9770   30.6810 O.2   436  CYS436     -0.2864
    130  CB        29.2720   13.1220   31.0390 C.3   436  CYS436      0.0983
    131  SG        28.9890   11.3730   31.5730 S.3   436  CYS436     -0.0798
    132  N         19.8060   10.9960   28.9670 N.3   444  MET444     -0.1245
    133  CA        19.3490    9.5890   28.8170 C.3   444  MET444      0.1570
    134  C         19.2030    9.1440   27.3660 C.2   444  MET444      0.2261
    135  O         19.6790    8.0610   26.9850 O.2   444  MET444     -0.2867
    136  CB        18.0860    9.3280   29.6300 C.3   444  MET444      0.0387
    137  CG        17.9490    7.8480   29.9000 C.3   444  MET444      0.0595
    138  SD        16.4890    7.4090   30.7960 S.3   444  MET444     -0.1393
    139  CE        16.3410    8.7780   31.9650 C.3   444  MET444      0.0692
    140  N         22.8030    8.5510   26.1000 N.3   447  ALA447     -0.1231
    141  CA        23.3120    7.2620   26.6000 C.3   447  ALA447      0.1694
    142  C         22.6810    6.0850   25.8830 C.2   447  ALA447      0.2591
    143  O         23.3590    5.2040   25.3910 O.2   447  ALA447     -0.2718
    144  CB        23.0830    7.1710   28.0950 C.3   447  ALA447      0.0304
    145  N         21.3570    6.0620   25.8070 N.am  448  GLU448     -0.1979
    146  CA        20.6550    4.9870   25.0700 C.3   448  GLU448      0.1602
    147  C         21.2480    4.7110   23.7160 C.2   448  GLU448      0.2287
    148  O         21.5550    3.5410   23.3890 O.2   448  GLU448     -0.2864
    149  CB        19.1360    5.2870   24.9090 C.3   448  GLU448      0.0415
    150  CG        18.4420    4.2790   24.0130 C.3   448  GLU448      0.1163
    151  CD        16.9260    4.4310   23.9190 C.2   448  GLU448      0.3649
    152  OE1       16.4280    5.5900   23.7990 O.co2 448  GLU448     -0.2457
    153  OE2       16.2520    3.3600   23.9200 O.co2 448  GLU448     -0.2457
    154  N         25.2960    3.8290   23.9700 N.3   451  LEU451     -0.1245
    155  CA        25.3620    2.4860   24.6200 C.3   451  LEU451      0.1561
    156  C         24.8310    1.4320   23.6870 C.2   451  LEU451      0.2260
    157  O         25.4160    0.3700   23.5180 O.2   451  LEU451     -0.2867
    158  CB        24.6100    2.4520   25.9630 C.3   451  LEU451      0.0270
    159  CG        25.3000    3.0480   27.1740 C.3   451  LEU451      0.0019
    160  CD1       24.3630    2.9820   28.4230 C.3   451  LEU451      0.0001
    161  CD2       26.6170    2.3030   27.5210 C.3   451  LEU451      0.0001
    162  N         20.4510   -3.5340   28.4400 N.3   483  ARG483     -0.1245
    163  CA        21.3300   -2.6940   29.2140 C.3   483  ARG483      0.1563
    164  C         21.1030   -2.9380   30.7320 C.2   483  ARG483      0.2260
    165  O         22.0510   -3.0790   31.4670 O.2   483  ARG483     -0.2867
    166  CB        21.1930   -1.1950   28.7790 C.3   483  ARG483      0.0307
    167  CG        22.1830   -0.2260   29.4510 C.3   483  ARG483      0.0489
    168  CD        21.9250   -0.0290   30.9900 C.3   483  ARG483      0.2205
    169  NE        20.5540    0.3920   31.2990 N.pl3 483  ARG483     -0.0865
    170  CZ        20.0960    0.4760   32.5430 C.cat 483  ARG483      0.5346
    171  NH1       20.9010    0.1960   33.5320 N.pl3 483  ARG483      0.1354
    172  NH2       18.8380    0.8320   32.8050 N.pl3 483  ARG483      0.1354
    173  N         23.9150   -4.0450   33.4480 N.3   487  SER487     -0.1217
    174  CA        24.1140   -3.2590   34.6540 C.3   487  SER487      0.1889
    175  C         23.9700   -4.2140   35.8720 C.2   487  SER487      0.2288
    176  O         24.5630   -3.9750   36.9280 O.2   487  SER487     -0.2866
    177  CB        23.1160   -2.0640   34.7180 C.3   487  SER487      0.2089
    178  OG        23.4730   -1.0410   33.7490 O.3   487  SER487     -0.2183
@<TRIPOS>BOND
     1   148   147    2
     2   157   156    2
     3   156   155    1
     4   147   146    1
     5   152   151   ar
     6   151   153   ar
     7   151   150    1
     8   154   155    1
     9   150   149    1
    10   155   158    1
    11   149   146    1
    12    12    11    1
    13   115   113    1
    14   146   145    1
    15   143   142    2
    16   125   124    1
    17     7     8    1
    18   109   110    1
    19   145   142   am
    20   110   113    1
    21   110   111    1
    22   142   141    1
    23   158   159    1
    24   101   102    1
    25   140   141    1
    26     3     2    1
    27     3     4    2
    28   113   114    1
    29   120   121    1
    30     8    11    1
    31     8     9    1
    32    11    13    1
    33   141   144    1
    34     2     5    1
    35     2     1    1
    36   121   124    1
    37   121   122    1
    38   112   111    2
    39   111   116   am
    40   135   134    2
    41   102   103    1
    42   102   105    1
    43     5     6    1
    44   159   161    1
    45   159   160    1
    46   108   106    1
    47   134   133    1
    48   106   105    1
    49   106   107    1
    50     9    10    2
    51     9    14   am
    52   103   104    2
    53   116   117    1
    54   122   123    2
    55   122   126   am
    56    14    15    1
    57   162   163    1
    58   118   119    2
    59   118   117    1
    60   166   163    1
    61   166   167    1
    62   133   132    1
    63   133   136    1
    64   126   127    1
    65    22    23    1
    66   163   164    1
    67    16    15    1
    68    16    17    2
    69   167   168    1
    70    15    18    1
    71   136   137    1
    72   128   127    1
    73   128   129    2
    74    32    30    1
    75   137   138    1
    76   127   130    1
    77    18    19    1
    78    23    24    1
    79    23    26    1
    80    30    29    2
    81    30    31    1
    82   164   165    2
    83   138   139    1
    84    27    26    1
    85    27    28    1
    86   168   169    1
    87   130   131    1
    88    29    28    1
    89    24    25    2
    90   169   170    2
    91    87    86    1
    92    19    21    1
    93    19    20    1
    94   131    69    1
    95    77    79   ar
    96    77    75   ar
    97    96    98   ar
    98    96    94   ar
    99    98    99   ar
   100    55    53    1
   101    79    80   ar
   102    53    52    1
   103    93    94    1
   104    93    90    1
   105    85    86    1
   106    85    82    1
   107   170   172    1
   108   170   171    1
   109   100    99    1
   110    94    95   ar
   111    99    97   ar
   112    86    88    1
   113    74    75    1
   114    74    71    1
   115    69    68    1
   116    72    73    2
   117    72    71    1
   118    75    76   ar
   119    80    78   ar
   120    70    71    1
   121    54    52    1
   122    95    97   ar
   123   173   174    1
   124    83    84    2
   125    83    82    1
   126    37    38    1
   127    37    34    1
   128    92    91    2
   129   178   177    1
   130    52    49    1
   131    82    81    1
   132    91    90    1
   133    90    89    1
   134    38    39    1
   135    76    78   ar
   136    68    65    1
   137    49    48    1
   138    49    50    1
   139   174   177    1
   140   174   175    1
   141    36    35    2
   142    34    35    1
   143    34    33    1
   144    65    64    1
   145    65    66    1
   146    60    61    1
   147    60    57    1
   148    39    33    1
   149    61    62    2
   150    61    63   am
   151    51    50    2
   152    48    42   am
   153    46    45    1
   154    59    58    2
   155    64    58   am
   156    58    57    1
   157    67    66    2
   158   175   176    2
   159    44    45    1
   160    44    41    1
   161    43    42    2
   162    42    41    1
   163    57    56    1
   164    45    47    1
   165    41    40    1
