@<TRIPOS>MOLECULE
tmp/3sqjA06.pdb
 175 163 0 0 0
SMALL
GASTEIGER

@<TRIPOS>ATOM
      1  N          1.5160   -1.6800   85.7820 N.3   148  TYR148     -0.1241
      2  CA         2.4720   -0.9070   86.5890 C.3   148  TYR148      0.1605
      3  C          1.7380    0.1220   87.4660 C.2   148  TYR148      0.2264
      4  O          1.1320    1.0700   86.9620 O.2   148  TYR148     -0.2867
      5  CB         3.5310   -0.2280   85.7070 C.3   148  TYR148      0.0534
      6  CG         4.6410    0.4560   86.4890 C.ar  148  TYR148     -0.0201
      7  CD1        5.4150   -0.2530   87.4380 C.ar  148  TYR148     -0.0009
      8  CD2        4.9230    1.8200   86.2910 C.ar  148  TYR148     -0.0009
      9  CE1        6.4540    0.4630   88.1830 C.ar  148  TYR148      0.0417
     10  CE2        5.9710    2.4980   86.9890 C.ar  148  TYR148      0.0417
     11  CZ         6.6880    1.8240   87.9150 C.ar  148  TYR148      0.1957
     12  OH         7.6820    2.4900   88.5880 O.3   148  TYR148     -0.2866
     13  N          1.6360    3.8970   86.8880 N.3   151  GLU151     -0.1245
     14  CA         1.0420    4.4080   85.6590 C.3   151  GLU151      0.1567
     15  C         -0.4700    4.3400   85.9030 C.2   151  GLU151      0.2260
     16  O         -1.2650    5.1290   85.4060 O.2   151  GLU151     -0.2867
     17  CB         1.4800    3.6110   84.4290 C.3   151  GLU151      0.0388
     18  CG         1.8730    4.5380   83.1890 C.3   151  GLU151      0.1160
     19  CD         1.3040    3.9870   81.8910 C.2   151  GLU151      0.3649
     20  OE1        1.1810    2.7300   81.8360 O.co2 151  GLU151     -0.2457
     21  OE2        0.9780    4.7730   80.9340 O.co2 151  GLU151     -0.2457
     22  N          2.7000   -2.7970   77.2170 N.3   194  GLN194     -0.1245
     23  CA         3.6170   -3.4500   78.1980 C.3   194  GLN194      0.1566
     24  C          3.7340   -4.9550   77.9230 C.2   194  GLN194      0.2260
     25  O          4.8490   -5.4820   77.8250 O.2   194  GLN194     -0.2867
     26  CB         3.1550   -3.2840   79.6560 C.3   194  GLN194      0.0367
     27  CG         3.3030   -1.8910   80.3450 C.3   194  GLN194      0.0905
     28  CD         2.7170   -1.8630   81.8020 C.2   194  GLN194      0.2608
     29  OE1        1.9050   -2.7080   82.2000 O.2   194  GLN194     -0.2717
     30  NE2        3.1180   -0.8700   82.5700 N.am  194  GLN194     -0.0878
     31  N          5.6680   -5.7440   74.5820 N.3   197  LYS197     -0.1245
     32  CA         7.1070   -5.5800   74.7450 C.3   197  LYS197      0.1561
     33  C          7.8180   -6.6890   75.5380 C.2   197  LYS197      0.2260
     34  O          8.9300   -7.0790   75.1650 O.2   197  LYS197     -0.2867
     35  CB         7.4150   -4.2670   75.3930 C.3   197  LYS197      0.0271
     36  CG         6.8150   -3.1260   74.6380 C.3   197  LYS197      0.0035
     37  CD         7.1400   -1.8940   75.4390 C.3   197  LYS197      0.0206
     38  CE         8.5250   -1.4100   75.0470 C.3   197  LYS197      0.1093
     39  NZ         8.3090    0.0380   74.9630 N.3   197  LYS197     -0.1314
     40  N         15.0480    3.9580   68.7220 N.3   216  ARG216     -0.1231
     41  CA        14.1010    4.8040   69.3690 C.3   216  ARG216      0.1694
     42  C         14.7990    5.9110   70.1510 C.2   216  ARG216      0.2591
     43  O         14.4260    7.0970   70.0050 O.2   216  ARG216     -0.2718
     44  CB        13.0910    3.9750   70.2520 C.3   216  ARG216      0.0321
     45  CG        12.1100    4.8250   71.0670 C.3   216  ARG216      0.0489
     46  CD        11.1340    5.6780   70.2490 C.3   216  ARG216      0.2205
     47  NE        10.2120    4.8790   69.4350 N.pl3 216  ARG216     -0.0865
     48  CZ         8.9850    4.4610   69.8040 C.cat 216  ARG216      0.5346
     49  NH1        8.5010    4.7640   71.0230 N.pl3 216  ARG216      0.1354
     50  NH2        8.2260    3.7390   68.9420 N.pl3 216  ARG216      0.1354
     51  N         15.7860    5.5560   70.9830 N.am  217  LEU217     -0.1980
     52  CA        16.4410    6.6200   71.7540 C.3   217  LEU217      0.1596
     53  C         17.2140    7.5790   70.8620 C.2   217  LEU217      0.2287
     54  O         17.3750    8.7240   71.2610 O.2   217  LEU217     -0.2864
     55  CB        17.4210    6.0990   72.7460 C.3   217  LEU217      0.0297
     56  CG        16.7390    5.2400   73.7800 C.3   217  LEU217      0.0022
     57  CD1       17.8220    4.5200   74.6030 C.3   217  LEU217      0.0001
     58  CD2       16.0090    6.1610   74.6110 C.3   217  LEU217      0.0001
     59  N         14.8790   10.0690   69.6040 N.3   220  ARG220     -0.1231
     60  CA        14.5350   10.9530   70.6790 C.3   220  ARG220      0.1694
     61  C         15.5840   11.9940   71.0340 C.2   220  ARG220      0.2592
     62  O         15.2470   13.1900   71.3200 O.2   220  ARG220     -0.2718
     63  CB        14.2070   10.1820   71.9700 C.3   220  ARG220      0.0321
     64  CG        12.8740    9.4320   71.9260 C.3   220  ARG220      0.0489
     65  CD        11.6750   10.3620   71.7950 C.3   220  ARG220      0.2205
     66  NE        10.4230    9.6930   71.4020 N.pl3 220  ARG220     -0.0865
     67  CZ        10.2220    8.9660   70.2840 C.cat 220  ARG220      0.5346
     68  NH1       11.1980    8.7060   69.4030 N.pl3 220  ARG220      0.1354
     69  NH2        9.0250    8.4450   70.0690 N.pl3 220  ARG220      0.1354
     70  N         16.8190   11.5200   71.0980 N.am  221  PHE221     -0.1976
     71  CA        17.9210   12.2930   71.6420 C.3   221  PHE221      0.1639
     72  C         18.9990   12.4550   70.5310 C.2   221  PHE221      0.2290
     73  O         20.1110   11.9820   70.6880 O.2   221  PHE221     -0.2864
     74  CB        18.5330   11.5430   72.8580 C.3   221  PHE221      0.0560
     75  CG        17.5250   11.2280   73.9560 C.ar  221  PHE221     -0.0200
     76  CD1       16.6170   12.1840   74.3650 C.ar  221  PHE221     -0.0042
     77  CD2       17.5300   10.0120   74.6000 C.ar  221  PHE221     -0.0042
     78  CE1       15.7030   11.9230   75.3400 C.ar  221  PHE221     -0.0003
     79  CE2       16.6180    9.7560   75.5940 C.ar  221  PHE221     -0.0003
     80  CZ        15.7030   10.7120   75.9550 C.ar  221  PHE221     -0.0000
     81  N         18.1590    0.8720   79.8410 N.3   236  LEU236     -0.1245
     82  CA        16.7800    0.6640   79.5190 C.3   236  LEU236      0.1561
     83  C         16.4940   -0.8490   79.3740 C.2   236  LEU236      0.2260
     84  O         15.5130   -1.3710   79.8910 O.2   236  LEU236     -0.2867
     85  CB        16.4280    1.3700   78.2220 C.3   236  LEU236      0.0270
     86  CG        14.9740    1.4490   77.7640 C.3   236  LEU236      0.0019
     87  CD1       14.1620    2.1640   78.8160 C.3   236  LEU236      0.0001
     88  CD2       14.8160    2.1550   76.4310 C.3   236  LEU236      0.0001
     89  N         16.0920   -2.2020   82.7300 N.3   239  VAL239     -0.1231
     90  CA        14.8340   -1.7540   83.3200 C.3   239  VAL239      0.1692
     91  C         13.6630   -2.5970   82.7820 C.2   239  VAL239      0.2592
     92  O         12.8350   -3.0860   83.5570 O.2   239  VAL239     -0.2718
     93  CB        14.5740   -0.2440   83.0100 C.3   239  VAL239      0.0266
     94  CG1       13.1440    0.1710   83.3650 C.3   239  VAL239      0.0020
     95  CG2       15.6530    0.6610   83.7070 C.3   239  VAL239      0.0020
     96  N         13.5980   -2.7610   81.4640 N.am  240  HIS240     -0.1976
     97  CA        12.4710   -3.4430   80.8540 C.3   240  HIS240      0.1656
     98  C         12.5610   -4.8950   81.2400 C.2   240  HIS240      0.2291
     99  O         11.5510   -5.4750   81.5060 O.2   240  HIS240     -0.2864
    100  CB        12.4180   -3.3240   79.3390 C.3   240  HIS240      0.0771
    101  CG        11.6820   -2.1120   78.8740 C.ar  240  HIS240      0.0820
    102  ND1       10.3130   -1.9720   79.0090 N.ar  240  HIS240     -0.2267
    103  CD2       12.1180   -0.9780   78.2730 C.ar  240  HIS240      0.1154
    104  CE1        9.9480   -0.7850   78.5560 C.ar  240  HIS240      0.1986
    105  NE2       11.0160   -0.1820   78.0680 N.ar  240  HIS240     -0.2212
    106  N         11.3430   -5.1020   85.0140 N.3   243  CYS243     -0.1235
    107  CA         9.9030   -4.7930   84.9790 C.3   243  CYS243      0.1677
    108  C          9.0680   -5.8950   84.3380 C.2   243  CYS243      0.2270
    109  O          7.9260   -6.1090   84.7790 O.2   243  CYS243     -0.2867
    110  CB         9.6280   -3.4650   84.2610 C.3   243  CYS243      0.0956
    111  SG        10.3470   -1.9690   85.0870 S.3   243  CYS243     -0.0801
    112  N         11.1260   -2.8570   89.7660 N.3   251  CYS251     -0.1235
    113  CA        10.8590   -2.1090   88.5470 C.3   251  CYS251      0.1677
    114  C         10.9040   -0.5950   88.8280 C.2   251  CYS251      0.2270
    115  O         11.4690    0.1880   88.0470 O.2   251  CYS251     -0.2867
    116  CB         9.5080   -2.5340   87.9230 C.3   251  CYS251      0.0956
    117  SG         8.9350   -1.6130   86.5120 S.3   251  CYS251     -0.0801
    118  N         13.4240    2.0890   87.2920 N.3   255  ARG255     -0.1245
    119  CA        12.9190    3.2330   86.5670 C.3   255  ARG255      0.1563
    120  C         13.4080    4.5650   87.2310 C.2   255  ARG255      0.2260
    121  O         13.7810    5.4910   86.5420 O.2   255  ARG255     -0.2867
    122  CB        11.3820    3.2250   86.3950 C.3   255  ARG255      0.0307
    123  CG        10.7400    2.2120   85.3870 C.3   255  ARG255      0.0489
    124  CD         9.2350    2.2740   85.5360 C.3   255  ARG255      0.2205
    125  NE         8.7510    3.5900   85.1250 N.pl3 255  ARG255     -0.0865
    126  CZ         8.0900    3.8400   83.9880 C.cat 255  ARG255      0.5346
    127  NH1        7.7710    2.8560   83.1330 N.pl3 255  ARG255      0.1354
    128  NH2        7.7280    5.0780   83.6950 N.pl3 255  ARG255      0.1354
    129  N         17.4580    5.2460   86.3730 N.3   258  LEU258     -0.1231
    130  CA        17.5600    5.7750   85.0540 C.3   258  LEU258      0.1693
    131  C         17.0170    7.1830   84.8840 C.2   258  LEU258      0.2591
    132  O         17.6680    7.9820   84.2060 O.2   258  LEU258     -0.2718
    133  CB        16.8510    4.8200   84.0860 C.3   258  LEU258      0.0284
    134  CG        16.9350    5.1100   82.5970 C.3   258  LEU258      0.0019
    135  CD1       18.3880    5.3490   82.1880 C.3   258  LEU258      0.0001
    136  CD2       16.2440    3.9200   81.8150 C.3   258  LEU258      0.0001
    137  N         15.8510    7.5140   85.4770 N.am  259  ALA259     -0.1980
    138  CA        15.3280    8.8700   85.3180 C.3   259  ALA259      0.1597
    139  C         16.3190    9.8240   85.9420 C.2   259  ALA259      0.2287
    140  O         16.5270   10.9030   85.4180 O.2   259  ALA259     -0.2864
    141  CB        13.8940    9.0770   85.9620 C.3   259  ALA259      0.0319
    142  N         19.4560   10.2860   83.8110 N.3   262  ILE262     -0.1245
    143  CA        19.1680   11.1110   82.6460 C.3   262  ILE262      0.1561
    144  C         19.1170   12.5630   83.1030 C.2   262  ILE262      0.2260
    145  O         19.6750   13.4470   82.4280 O.2   262  ILE262     -0.2867
    146  CB        17.8600   10.6880   81.9510 C.3   262  ILE262      0.0252
    147  CG1       18.0610    9.3340   81.2660 C.3   262  ILE262      0.0019
    148  CG2       17.3920   11.7350   80.9650 C.3   262  ILE262      0.0019
    149  CD1       16.7560    8.6020   80.9090 C.3   262  ILE262      0.0001
    150  N         10.1710    9.5000   85.6300 N.3   285  SER285     -0.1217
    151  CA        10.2640    8.4350   84.5950 C.3   285  SER285      0.1889
    152  C          9.2270    8.5950   83.4860 C.2   285  SER285      0.2288
    153  O          9.5280    8.4930   82.3320 O.2   285  SER285     -0.2866
    154  CB        10.0230    7.0510   85.2280 C.3   285  SER285      0.2089
    155  OG        11.2570    6.6570   85.7340 O.3   285  SER285     -0.2183
    156  N          9.6710   11.7020   81.2010 N.3   288  ILE288     -0.1231
    157  CA        10.8140   11.4770   80.2690 C.3   288  ILE288      0.1692
    158  C         10.4730   10.5220   79.1170 C.2   288  ILE288      0.2591
    159  O         10.9000   10.7410   77.9620 O.2   288  ILE288     -0.2718
    160  CB        12.0660   10.9520   81.0130 C.3   288  ILE288      0.0266
    161  CG1       12.6210   11.9780   82.0070 C.3   288  ILE288      0.0019
    162  CG2       13.1630   10.5380   80.0620 C.3   288  ILE288      0.0020
    163  CD1       13.6250   11.3300   83.0320 C.3   288  ILE288      0.0001
    164  N          9.7130    9.4690   79.4110 N.am  289  ALA289     -0.1980
    165  CA         9.3290    8.5170   78.3960 C.3   289  ALA289      0.1597
    166  C          8.5010    9.1510   77.3190 C.2   289  ALA289      0.2287
    167  O          8.5260    8.7030   76.1560 O.2   289  ALA289     -0.2864
    168  CB         8.5470    7.3630   79.0060 C.3   289  ALA289      0.0319
    169  N          8.6760   12.4740   76.4370 N.3   291  VAL291     -0.1245
    170  CA         9.2360   13.7330   76.0060 C.3   291  VAL291      0.1561
    171  C          9.2930   13.7780   74.4690 C.2   291  VAL291      0.2260
    172  O          9.6540   12.7780   73.8120 O.2   291  VAL291     -0.2867
    173  CB        10.6680   13.9020   76.6050 C.3   291  VAL291      0.0252
    174  CG1       11.7450   12.9230   75.8760 C.3   291  VAL291      0.0019
    175  CG2       11.0400   15.3910   76.5870 C.3   291  VAL291      0.0019
@<TRIPOS>BOND
     1    40    41    1
     2    50    48    1
     3    41    42    1
     4    41    44    1
     5    68    67    1
     6    47    48    2
     7    47    46    1
     8    59    60    1
     9    48    49    1
    10    43    42    2
    11    69    67    1
    12    42    51   am
    13    46    45    1
    14    44    45    1
    15    67    66    2
    16    72    73    2
    17    72    71    1
    18    60    61    1
    19    60    63    1
    20    53    54    2
    21    53    52    1
    22    51    52    1
    23    61    70   am
    24    61    62    2
    25    70    71    1
    26    66    65    1
    27    71    74    1
    28    52    55    1
    29    65    64    1
    30    64    63    1
    31    55    56    1
    32    74    75    1
    33    56    57    1
    34    56    58    1
    35   172   171    2
    36    75    76   ar
    37    75    77   ar
    38    76    78   ar
    39   171   170    1
    40    31    32    1
    41    77    79   ar
    42    36    35    1
    43    36    37    1
    44    32    35    1
    45    32    33    1
    46    39    38    1
    47    38    37    1
    48    34    33    2
    49    78    80   ar
    50    79    80   ar
    51   174   173    1
    52   170   169    1
    53   170   173    1
    54   167   166    2
    55    88    86    1
    56   175   173    1
    57    22    23    1
    58   166   165    1
    59    86    85    1
    60    86    87    1
    61    25    24    2
    62    24    23    1
    63   159   158    2
    64   105   103   ar
    65   105   104   ar
    66    23    26    1
    67    85    82    1
    68   103   101   ar
    69   165   168    1
    70   165   164    1
    71   104   102   ar
    72   101   102   ar
    73   101   100    1
    74   158   164   am
    75   158   157    1
    76   100    97    1
    77    83    82    1
    78    83    84    2
    79    82    81    1
    80    26    27    1
    81   162   160    1
    82   157   160    1
    83   157   156    1
    84    27    28    1
    85    97    98    1
    86    97    96    1
    87   149   147    1
    88    21    19   ar
    89   148   146    1
    90   160   161    1
    91    98    99    2
    92   147   146    1
    93    96    91   am
    94    28    29    2
    95    28    30   am
    96   136   134    1
    97    20    19   ar
    98    19    18    1
    99   146   143    1
   100   161   163    1
   101   135   134    1
   102   153   152    2
   103   145   144    2
   104   134   133    1
   105   143   144    1
   106   143   142    1
   107    89    90    1
   108    91    90    1
   109    91    92    2
   110    93    90    1
   111    93    94    1
   112    93    95    1
   113   127   126    1
   114    18    17    1
   115   152   151    1
   116   128   126    1
   117   126   125    2
   118   133   130    1
   119   132   131    2
   120   110   107    1
   121   110   111    1
   122   108   109    2
   123   108   107    1
   124    17    14    1
   125   151   154    1
   126   151   150    1
   127   131   130    1
   128   131   137   am
   129   107   106    1
   130   130   129    1
   131   111   117    1
   132   125   124    1
   133   154   155    1
   134   138   137    1
   135   138   139    1
   136   138   141    1
   137   123   124    1
   138   123   122    1
   139    16    15    2
   140   140   139    2
   141    14    15    1
   142    14    13    1
   143     5     6    1
   144     5     2    1
   145     1     2    1
   146     8     6   ar
   147     8    10   ar
   148   122   119    1
   149     6     7   ar
   150   117   116    1
   151   121   120    2
   152   119   120    1
   153   119   118    1
   154     2     3    1
   155     4     3    2
   156    10    11   ar
   157     7     9   ar
   158    11     9   ar
   159    11    12    1
   160   116   113    1
   161   115   114    2
   162   113   114    1
   163   113   112    1
