@<TRIPOS>MOLECULE
tmp/3sqjA07.pdb
 158 152 0 0 0
SMALL
GASTEIGER

@<TRIPOS>ATOM
      1  N         10.3400    2.2130  104.4090 N.3     5  VAL5       -0.1245
      2  CA         8.9230    2.6830  104.4210 C.3     5  VAL5        0.1561
      3  C          8.8280    4.2150  104.6770 C.2     5  VAL5        0.2260
      4  O          8.0760    4.9040  104.0220 O.2     5  VAL5       -0.2867
      5  CB         7.9480    1.8540  105.3560 C.3     5  VAL5        0.0252
      6  CG1        8.0980    2.1360  106.7880 C.3     5  VAL5        0.0019
      7  CG2        6.5060    2.1550  104.9690 C.3     5  VAL5        0.0019
      8  N          1.2080    7.7480   98.4830 N.3    17  PHE17      -0.1241
      9  CA         1.5610    6.5660   99.2770 C.3    17  PHE17       0.1605
     10  C          0.3130    5.6880   99.4680 C.2    17  PHE17       0.2264
     11  O          0.2990    4.4980   99.1380 O.2    17  PHE17      -0.2867
     12  CB         2.1030    6.9620  100.6330 C.3    17  PHE17       0.0534
     13  CG         2.5710    5.8010  101.4760 C.ar   17  PHE17      -0.0203
     14  CD1        3.8670    5.3070  101.3340 C.ar   17  PHE17      -0.0042
     15  CD2        1.7420    5.2570  102.4520 C.ar   17  PHE17      -0.0042
     16  CE1        4.3090    4.2760  102.1480 C.ar   17  PHE17      -0.0003
     17  CE2        2.1670    4.2400  103.2270 C.ar   17  PHE17      -0.0003
     18  CZ         3.4520    3.7390  103.0880 C.ar   17  PHE17      -0.0000
     19  N         -0.3150    1.9880   97.9420 N.3    21  VAL21      -0.1245
     20  CA        -0.4670    0.8280   98.8220 C.3    21  VAL21       0.1561
     21  C         -1.7880    0.0870   98.4640 C.2    21  VAL21       0.2260
     22  O         -1.8360   -1.1580   98.4650 O.2    21  VAL21      -0.2867
     23  CB        -0.3970    1.2270  100.3090 C.3    21  VAL21       0.0252
     24  CG1       -0.8720    0.0590  101.3160 C.3    21  VAL21       0.0019
     25  CG2        1.0490    1.6620  100.6050 C.3    21  VAL21       0.0019
     26  N         -1.2960   -1.9520   95.3150 N.3    24  ALA24      -0.1231
     27  CA        -0.4380   -3.1150   95.5010 C.3    24  ALA24       0.1694
     28  C         -1.1810   -4.2200   96.1970 C.2    24  ALA24       0.2592
     29  O         -1.0960   -5.3870   95.7520 O.2    24  ALA24      -0.2718
     30  CB         0.8780   -2.7780   96.3060 C.3    24  ALA24       0.0304
     31  N         -1.8850   -3.8980   97.2720 N.am   25  PHE25      -0.1976
     32  CA        -2.7180   -4.8950   97.9140 C.3    25  PHE25       0.1639
     33  C         -3.8120   -5.4640   96.9870 C.2    25  PHE25       0.2290
     34  O         -4.1010   -6.6920   96.9950 O.2    25  PHE25      -0.2864
     35  CB        -3.3800   -4.3560   99.1770 C.3    25  PHE25       0.0560
     36  CG        -2.4960   -4.3630  100.3490 C.ar   25  PHE25      -0.0200
     37  CD1       -1.8290   -5.5240  100.7370 C.ar   25  PHE25      -0.0042
     38  CD2       -2.3170   -3.2090  101.0890 C.ar   25  PHE25      -0.0042
     39  CE1       -1.0100   -5.5440  101.8640 C.ar   25  PHE25      -0.0003
     40  CE2       -1.4860   -3.2190  102.1970 C.ar   25  PHE25      -0.0003
     41  CZ        -0.8340   -4.3820  102.5850 C.ar   25  PHE25      -0.0000
     42  N         -2.4240   -8.0760   94.5880 N.3    28  TYR28      -0.1241
     43  CA        -2.0350   -9.3420   95.1730 C.3    28  TYR28       0.1605
     44  C         -3.1650  -10.1070   95.7940 C.2    28  TYR28       0.2264
     45  O         -3.0650  -11.3030   95.8410 O.2    28  TYR28      -0.2867
     46  CB        -0.9410   -9.1500   96.2290 C.3    28  TYR28       0.0534
     47  CG         0.4440   -8.9620   95.6740 C.ar   28  TYR28      -0.0201
     48  CD1        1.3180  -10.0480   95.5070 C.ar   28  TYR28      -0.0009
     49  CD2        0.9150   -7.6990   95.3450 C.ar   28  TYR28      -0.0009
     50  CE1        2.6390   -9.8530   95.0170 C.ar   28  TYR28       0.0417
     51  CE2        2.2350   -7.5080   94.8830 C.ar   28  TYR28       0.0417
     52  CZ         3.0730   -8.5960   94.7130 C.ar   28  TYR28       0.1957
     53  OH         4.3620   -8.3930   94.2300 O.3    28  TYR28      -0.2866
     54  N         -3.9460    0.8010  108.2400 N.3    43  GLU43      -0.1231
     55  CA        -2.8910    0.2200  109.1160 C.3    43  GLU43       0.1699
     56  C         -1.4670    0.4440  108.6170 C.2    43  GLU43       0.2592
     57  O         -0.5670    0.8300  109.3590 O.2    43  GLU43      -0.2718
     58  CB        -3.1560   -1.2930  109.3270 C.3    43  GLU43       0.0402
     59  CG        -4.6340   -1.4900  109.7710 C.3    43  GLU43       0.1161
     60  CD        -5.0800   -2.9550  109.7660 C.2    43  GLU43       0.3649
     61  OE1       -4.4140   -3.7780  109.1670 O.co2  43  GLU43      -0.2457
     62  OE2       -6.1220   -3.2950  110.3350 O.co2  43  GLU43      -0.2457
     63  N         -1.2280    0.1680  107.3440 N.am   44  VAL44      -0.1980
     64  CA         0.0800    0.4090  106.7230 C.3    44  VAL44       0.1595
     65  C          0.4640    1.8860  106.8280 C.2    44  VAL44       0.2287
     66  O          1.6270    2.2290  107.0970 O.2    44  VAL44      -0.2864
     67  CB         0.0440    0.0120  105.2800 C.3    44  VAL44       0.0276
     68  CG1        1.1990    0.6290  104.5060 C.3    44  VAL44       0.0022
     69  CG2        0.0890   -1.5510  105.1480 C.3    44  VAL44       0.0022
     70  N          1.3610    2.8150  110.3310 N.3    47  PHE47      -0.1241
     71  CA         2.6610    2.2980  110.6970 C.3    47  PHE47       0.1605
     72  C          3.7560    3.1190  110.0310 C.2    47  PHE47       0.2264
     73  O          4.6910    3.5190  110.6850 O.2    47  PHE47      -0.2867
     74  CB         2.7900    0.7940  110.4000 C.3    47  PHE47       0.0534
     75  CG         4.2300    0.3050  110.3920 C.ar   47  PHE47      -0.0203
     76  CD1        4.9030    0.0860  111.5810 C.ar   47  PHE47      -0.0042
     77  CD2        4.8990    0.1210  109.1850 C.ar   47  PHE47      -0.0042
     78  CE1        6.2520   -0.3520  111.5590 C.ar   47  PHE47      -0.0003
     79  CE2        6.2150   -0.3340  109.1450 C.ar   47  PHE47      -0.0003
     80  CZ         6.8920   -0.5670  110.3270 C.ar   47  PHE47      -0.0000
     81  N         10.8670   -3.3110  102.6680 N.3    64  LEU64      -0.1231
     82  CA         9.5050   -3.1310  102.2590 C.3    64  LEU64       0.1693
     83  C          8.9880   -4.5100  101.8620 C.2    64  LEU64       0.2592
     84  O          7.7960   -4.8220  102.0820 O.2    64  LEU64      -0.2718
     85  CB         9.4450   -2.1880  101.0730 C.3    64  LEU64       0.0284
     86  CG         9.8170   -0.7380  101.3790 C.3    64  LEU64       0.0019
     87  CD1        9.7930    0.0870  100.1020 C.3    64  LEU64       0.0001
     88  CD2        8.9120   -0.2240  102.3390 C.3    64  LEU64       0.0001
     89  N          9.8550   -5.3010  101.2100 N.am   65  HIS65      -0.1976
     90  CA         9.4440   -6.6610  100.8710 C.3    65  HIS65       0.1656
     91  C          9.0080   -7.4920  102.1000 C.2    65  HIS65       0.2291
     92  O          7.9490   -8.1770  102.0500 O.2    65  HIS65      -0.2864
     93  CB        10.4910   -7.4040  100.0500 C.3    65  HIS65       0.0771
     94  CG        10.4850   -7.0380   98.5940 C.ar   65  HIS65       0.0820
     95  ND1       11.5970   -6.5340   97.9450 N.ar   65  HIS65      -0.2267
     96  CD2        9.4990   -7.0860   97.6630 C.ar   65  HIS65       0.1154
     97  CE1       11.3120   -6.3300   96.6690 C.ar   65  HIS65       0.1986
     98  NE2       10.0490   -6.6660   96.4690 N.ar   65  HIS65      -0.2212
     99  N          8.0530   -6.3730  105.0740 N.3    67  LEU67      -0.1231
    100  CA         6.8340   -5.8160  105.6720 C.3    67  LEU67       0.1693
    101  C          5.5170   -6.1670  104.9080 C.2    67  LEU67       0.2592
    102  O          4.4800   -6.4150  105.5030 O.2    67  LEU67      -0.2718
    103  CB         6.9920   -4.2830  105.7340 C.3    67  LEU67       0.0284
    104  CG         8.0330   -3.7430  106.7270 C.3    67  LEU67       0.0019
    105  CD1        8.3760   -2.2810  106.4120 C.3    67  LEU67       0.0001
    106  CD2        7.5170   -3.9740  108.2420 C.3    67  LEU67       0.0001
    107  N          5.5700   -6.0760  103.5800 N.am   68  PHE68      -0.1976
    108  CA         4.4660   -6.3510  102.7290 C.3    68  PHE68       0.1639
    109  C          4.0290   -7.8490  102.8940 C.2    68  PHE68       0.2290
    110  O          2.8240   -8.1500  103.0340 O.2    68  PHE68      -0.2864
    111  CB         4.8910   -6.0550  101.2690 C.3    68  PHE68       0.0560
    112  CG         3.7820   -6.2060  100.2780 C.ar   68  PHE68      -0.0200
    113  CD1        2.6590   -5.3430  100.3210 C.ar   68  PHE68      -0.0042
    114  CD2        3.8170   -7.2260   99.3080 C.ar   68  PHE68      -0.0042
    115  CE1        1.6100   -5.4710   99.4010 C.ar   68  PHE68      -0.0003
    116  CE2        2.7530   -7.3820   98.3890 C.ar   68  PHE68      -0.0003
    117  CZ         1.6650   -6.4810   98.4340 C.ar   68  PHE68      -0.0000
    118  N          2.5240   -8.6680  106.0270 N.3    71  LYS71      -0.1245
    119  CA         1.1760   -8.1690  106.1420 C.3    71  LYS71       0.1561
    120  C          0.1740   -9.0940  105.4520 C.2    71  LYS71       0.2260
    121  O         -0.8500   -9.4860  106.0520 O.2    71  LYS71      -0.2867
    122  CB         1.0590   -6.7790  105.5390 C.3    71  LYS71       0.0271
    123  CG        -0.2370   -6.1000  105.8890 C.3    71  LYS71       0.0035
    124  CD        -0.4600   -5.9880  107.4250 C.3    71  LYS71       0.0206
    125  CE        -1.7250   -5.1800  107.7040 C.3    71  LYS71       0.1093
    126  NZ        -1.8200   -4.7570  109.1260 N.3    71  LYS71      -0.1314
    127  N          8.4870  -13.5860   98.6840 N.3    97  ASN97      -0.1240
    128  CA         8.0600  -12.5710   97.6980 C.3    97  ASN97       0.1653
    129  C          7.9130  -13.0990   96.2700 C.2    97  ASN97       0.2266
    130  O          6.9050  -12.8470   95.6060 O.2    97  ASN97      -0.2867
    131  CB         9.0530  -11.4170   97.6450 C.3    97  ASN97       0.1155
    132  CG         8.5040  -10.2390   96.8650 C.2    97  ASN97       0.2627
    133  OD1        7.7340   -9.4340   97.4170 O.2    97  ASN97      -0.2716
    134  ND2        8.8760  -10.1300   95.5820 N.am   97  ASN97      -0.0877
    135  N          8.2710   -7.5910   89.6830 N.3   247  ASP247     -0.1225
    136  CA         8.3040   -7.0450   91.0440 C.3   247  ASP247      0.1805
    137  C          8.1270   -5.5220   90.9780 C.2   247  ASP247      0.2598
    138  O          8.9400   -4.8610   90.3490 O.2   247  ASP247     -0.2718
    139  CB         9.5500   -7.4080   91.8210 C.3   247  ASP247      0.1424
    140  CG         9.5790   -6.7050   93.2210 C.2   247  ASP247      0.3668
    141  OD1        8.6020   -6.7800   93.9770 O.co2 247  ASP247     -0.2456
    142  OD2       10.5490   -6.0740   93.5730 O.co2 247  ASP247     -0.2456
    143  N          7.0660   -4.9820   91.6080 N.am  248  LEU248     -0.1966
    144  CA         6.8240   -3.5160   91.6150 C.3   248  LEU248      0.1728
    145  C          8.0480   -2.7070   92.1000 C.2   248  LEU248      0.2616
    146  O          8.4280   -1.7210   91.4900 O.2   248  LEU248     -0.2715
    147  CB         5.5620   -3.1340   92.4310 C.3   248  LEU248      0.0311
    148  CG         5.2710   -1.6200   92.7100 C.3   248  LEU248      0.0022
    149  CD1        5.1810   -0.8310   91.4160 C.3   248  LEU248      0.0001
    150  CD2        3.9440   -1.4360   93.4730 C.3   248  LEU248      0.0001
    151  N          8.6250   -3.1080   93.2340 N.am  249  LEU249     -0.1977
    152  CA         9.6630   -2.3100   93.8320 C.3   249  LEU249      0.1596
    153  C         10.9360   -2.3700   92.9510 C.2   249  LEU249      0.2287
    154  O         11.5990   -1.3350   92.7230 O.2   249  LEU249     -0.2864
    155  CB         9.9160   -2.7430   95.2490 C.3   249  LEU249      0.0297
    156  CG         8.8010   -2.4060   96.2470 C.3   249  LEU249      0.0022
    157  CD1        8.8630   -3.2500   97.5330 C.3   249  LEU249      0.0001
    158  CD2        8.6710   -0.8810   96.5820 C.3   249  LEU249      0.0001
@<TRIPOS>BOND
     1   135   136    1
     2   138   137    2
     3   137   136    1
     4   137   143   am
     5   136   139    1
     6   149   148    1
     7   146   145    2
     8   143   144    1
     9   144   145    1
    10   144   147    1
    11   139   140    1
    12   145   151   am
    13   147   148    1
    14   148   150    1
    15   154   153    2
    16   153   152    1
    17   140   142   ar
    18   140   141   ar
    19   151   152    1
    20   152   155    1
    21    53    52    1
    22    42    43    1
    23    52    51   ar
    24    52    50   ar
    25    51    49   ar
    26    50    48   ar
    27    43    44    1
    28    43    46    1
    29   155   156    1
    30    26    27    1
    31    49    47   ar
    32    27    28    1
    33    27    30    1
    34    48    47   ar
    35   134   132   am
    36   130   129    2
    37    47    46    1
    38    29    28    2
    39    44    45    2
    40    28    31   am
    41   156   158    1
    42   156   157    1
    43   129   128    1
    44    98    97   ar
    45    98    96   ar
    46    97    95   ar
    47   132   133    2
    48   132   131    1
    49    33    34    2
    50    33    32    1
    51    31    32    1
    52   131   128    1
    53    96    94   ar
    54   128   127    1
    55    32    35    1
    56    19    20    1
    57    95    94   ar
    58   116   117   ar
    59   116   114   ar
    60   117   115   ar
    61    21    22    2
    62    21    20    1
    63     8     9    1
    64    94    93    1
    65    20    23    1
    66    11    10    2
    67    35    36    1
    68     9    10    1
    69     9    12    1
    70   114   112   ar
    71   115   113   ar
    72    93    90    1
    73    87    86    1
    74   112   113   ar
    75   112   111    1
    76    23    25    1
    77    23    24    1
    78    36    37   ar
    79    36    38   ar
    80    12    13    1
    81    37    39   ar
    82    90    89    1
    83    90    91    1
    84    85    86    1
    85    85    82    1
    86    38    40   ar
    87    89    83   am
    88   111   108    1
    89    14    13   ar
    90    14    16   ar
    91    86    88    1
    92    13    15   ar
    93    83    84    2
    94    83    82    1
    95    39    41   ar
    96    92    91    2
    97    16    18   ar
    98    40    41   ar
    99    82    81    1
   100    15    17   ar
   101   108   109    1
   102   108   107    1
   103   109   110    2
   104    18    17   ar
   105   107   101   am
   106     4     3    2
   107     1     2    1
   108     2     3    1
   109     2     5    1
   110    68    67    1
   111   101   102    2
   112   101   100    1
   113     7     5    1
   114    99   100    1
   115    69    67    1
   116    67    64    1
   117     5     6    1
   118   120   121    2
   119   120   119    1
   120   122   123    1
   121   122   119    1
   122   100   103    1
   123   103   104    1
   124   123   124    1
   125   118   119    1
   126   105   104    1
   127    64    65    1
   128    64    63    1
   129   104   106    1
   130    65    66    2
   131    63    56   am
   132   124   125    1
   133   125   126    1
   134    54    55    1
   135    56    55    1
   136    56    57    2
   137    55    58    1
   138    79    77   ar
   139    79    80   ar
   140    61    60   ar
   141    77    75   ar
   142    58    59    1
   143    60    59    1
   144    60    62   ar
   145    72    73    2
   146    72    71    1
   147    80    78   ar
   148    70    71    1
   149    75    74    1
   150    75    76   ar
   151    74    71    1
   152    78    76   ar
