@<TRIPOS>MOLECULE
tmp/3sqjB01.pdb
 141 130 0 0 0
SMALL
GASTEIGER

@<TRIPOS>ATOM
      1  N         14.1200    8.5920  -12.7690 N.3     8  ARG8       -0.1245
      2  CA        15.2450    8.6260  -11.7720 C.3     8  ARG8        0.1563
      3  C         16.3020    9.6190  -12.1560 C.2     8  ARG8        0.2260
      4  O         16.8130   10.3750  -11.3440 O.2     8  ARG8       -0.2867
      5  CB        15.8920    7.2190  -11.6140 C.3     8  ARG8        0.0307
      6  CG        14.8870    6.1790  -11.1300 C.3     8  ARG8        0.0489
      7  CD        14.3290    6.6340   -9.7970 C.3     8  ARG8        0.2205
      8  NE        13.4370    5.6520   -9.2170 N.pl3   8  ARG8       -0.0865
      9  CZ        13.2460    5.4950   -7.9020 C.cat   8  ARG8        0.5346
     10  NH1       13.8650    6.2820   -7.0220 N.pl3   8  ARG8        0.1354
     11  NH2       12.4230    4.5540   -7.5040 N.pl3   8  ARG8        0.1354
     12  N         17.1720   12.7050   -9.5880 N.3    12  LEU12      -0.1245
     13  CA        18.3970   12.6210   -8.7890 C.3    12  LEU12       0.1561
     14  C         19.4280   13.6470   -9.2460 C.2    12  LEU12       0.2260
     15  O         20.2420   14.1060   -8.4590 O.2    12  LEU12      -0.2867
     16  CB        18.9930   11.1930   -8.8550 C.3    12  LEU12       0.0270
     17  CG        18.3450   10.0100   -8.1190 C.3    12  LEU12       0.0019
     18  CD1       16.8680   10.0970   -8.0040 C.3    12  LEU12       0.0001
     19  CD2       18.7200    8.5870   -8.7010 C.3    12  LEU12       0.0001
     20  N         22.7820   10.2630   -9.6900 N.3    17  PHE17      -0.1241
     21  CA        22.4720    9.0470  -10.4580 C.3    17  PHE17       0.1605
     22  C         23.7570    8.2240  -10.6610 C.2    17  PHE17       0.2264
     23  O         23.8000    7.0290  -10.3240 O.2    17  PHE17      -0.2867
     24  CB        21.9080    9.4640  -11.8070 C.3    17  PHE17       0.0534
     25  CG        21.5340    8.3170  -12.7110 C.ar   17  PHE17      -0.0203
     26  CD1       20.2470    7.8170  -12.7190 C.ar   17  PHE17      -0.0042
     27  CD2       22.4460    7.8050  -13.6150 C.ar   17  PHE17      -0.0042
     28  CE1       19.8800    6.7410  -13.5910 C.ar   17  PHE17      -0.0003
     29  CE2       22.0850    6.7640  -14.4700 C.ar   17  PHE17      -0.0003
     30  CZ        20.7920    6.2610  -14.4570 C.ar   17  PHE17      -0.0000
     31  N         24.9840    6.5940   -7.4640 N.3    20  LEU20      -0.1231
     32  CA        24.0710    5.4940   -7.0460 C.3    20  LEU20       0.1693
     33  C         24.2030    4.2230   -7.8980 C.2    20  LEU20       0.2591
     34  O         24.1590    3.1280   -7.3780 O.2    20  LEU20      -0.2718
     35  CB        22.6100    5.9860   -6.9830 C.3    20  LEU20       0.0284
     36  CG        22.3610    6.9560   -5.8160 C.3    20  LEU20       0.0019
     37  CD1       21.0640    7.6450   -5.9970 C.3    20  LEU20       0.0001
     38  CD2       22.4190    6.3380   -4.3440 C.3    20  LEU20       0.0001
     39  N         24.3280    4.3760   -9.2020 N.am   21  VAL21      -0.1980
     40  CA        24.5560    3.2090  -10.0710 C.3    21  VAL21       0.1595
     41  C         25.9640    2.5530   -9.7450 C.2    21  VAL21       0.2287
     42  O         26.1240    1.3090   -9.7630 O.2    21  VAL21      -0.2864
     43  CB        24.5250    3.6470  -11.5340 C.3    21  VAL21       0.0276
     44  CG1       24.9620    2.4810  -12.5010 C.3    21  VAL21       0.0022
     45  CG2       23.0620    4.1450  -11.9240 C.3    21  VAL21       0.0022
     46  N         25.3570    0.6180   -6.5920 N.3    24  ALA24      -0.1245
     47  CA        24.4700   -0.5670   -6.7590 C.3    24  ALA24       0.1562
     48  C         25.1940   -1.6910   -7.4700 C.2    24  ALA24       0.2260
     49  O         25.0580   -2.8520   -7.0450 O.2    24  ALA24      -0.2867
     50  CB        23.2420   -0.2120   -7.5200 C.3    24  ALA24       0.0290
     51  N         13.1830   -0.7150  -13.8940 N.3    64  LEU64      -0.1245
     52  CA        14.6000   -0.6080  -13.5040 C.3    64  LEU64       0.1561
     53  C         15.1180   -1.9810  -13.1180 C.2    64  LEU64       0.2260
     54  O         16.3350   -2.2560  -13.3340 O.2    64  LEU64      -0.2867
     55  CB        14.8510    0.3890  -12.3840 C.3    64  LEU64       0.0270
     56  CG        14.4930    1.8410  -12.6650 C.3    64  LEU64       0.0019
     57  CD1       14.6660    2.6080  -11.3290 C.3    64  LEU64       0.0001
     58  CD2       15.3890    2.3530  -13.7960 C.3    64  LEU64       0.0001
     59  N         22.6190    0.8760    2.9430 N.3   148  TYR148     -0.1241
     60  CA        21.6350    1.5430    2.1250 C.3   148  TYR148      0.1605
     61  C         22.3410    2.5550    1.2070 C.2   148  TYR148      0.2264
     62  O         22.9380    3.4870    1.6930 O.2   148  TYR148     -0.2867
     63  CB        20.5800    2.2140    3.0290 C.3   148  TYR148      0.0534
     64  CG        19.4720    2.9260    2.2920 C.ar  148  TYR148     -0.0201
     65  CD1       18.6530    2.2480    1.3960 C.ar  148  TYR148     -0.0009
     66  CD2       19.2140    4.2860    2.5370 C.ar  148  TYR148     -0.0009
     67  CE1       17.6120    2.9810    0.6820 C.ar  148  TYR148      0.0417
     68  CE2       18.1530    4.9820    1.9120 C.ar  148  TYR148      0.0417
     69  CZ        17.3990    4.3300    0.9530 C.ar  148  TYR148      0.1957
     70  OH        16.4090    5.0330    0.3020 O.3   148  TYR148     -0.2866
     71  N         21.7460    5.3000   -0.6860 N.3   150  PRO150     -0.2116
     72  CA        21.7340    6.7680   -0.5060 C.3   150  PRO150      0.1372
     73  C         22.4530    7.2190    0.7800 C.2   150  PRO150      0.2244
     74  O         23.0590    8.3060    0.8340 O.2   150  PRO150     -0.2868
     75  CB        20.2310    7.1160   -0.4630 C.3   150  PRO150      0.0268
     76  CG        19.6330    6.0190   -1.4530 C.3   150  PRO150      0.0207
     77  CD        20.3800    4.7800   -0.9380 C.3   150  PRO150      0.0892
     78  N         16.9810   -2.4740   -2.8950 N.3   248  LEU248     -0.1231
     79  CA        17.2510   -1.0290   -2.8730 C.3   248  LEU248      0.1693
     80  C         16.0060   -0.2410   -3.3700 C.2   248  LEU248      0.2591
     81  O         15.5650    0.7030   -2.7070 O.2   248  LEU248     -0.2718
     82  CB        18.4900   -0.6430   -3.7140 C.3   248  LEU248      0.0284
     83  CG        18.7880    0.8720   -3.9020 C.3   248  LEU248      0.0019
     84  CD1       19.1090    1.5630   -2.5500 C.3   248  LEU248      0.0001
     85  CD2       20.0150    1.1240   -4.8230 C.3   248  LEU248      0.0001
     86  N         15.4820   -0.5900   -4.5480 N.am  249  LEU249     -0.1980
     87  CA        14.4170    0.2350   -5.0820 C.3   249  LEU249      0.1596
     88  C         13.1350    0.1900   -4.1740 C.2   249  LEU249      0.2287
     89  O         12.5140    1.2220   -3.9350 O.2   249  LEU249     -0.2864
     90  CB        14.0810   -0.0630   -6.5360 C.3   249  LEU249      0.0297
     91  CG        15.2950    0.1090   -7.4730 C.3   249  LEU249      0.0022
     92  CD1       15.1180   -0.6240   -8.8050 C.3   249  LEU249      0.0001
     93  CD2       15.7020    1.6310   -7.6450 C.3   249  LEU249      0.0001
     94  N         13.8430    2.3500   -1.2130 N.3   252  ALA252     -0.1245
     95  CA        13.8790    3.7910   -1.5590 C.3   252  ALA252      0.1562
     96  C         12.4800    4.3400   -1.8650 C.2   252  ALA252      0.2260
     97  O         12.1650    5.4340   -1.4410 O.2   252  ALA252     -0.2867
     98  CB        14.7700    4.0700   -2.7440 C.3   252  ALA252      0.0290
     99  N         10.5490    4.6360    1.4680 N.3   255  ARG255     -0.1231
    100  CA        11.0340    5.7790    2.2370 C.3   255  ARG255      0.1694
    101  C         10.6340    7.0890    1.5820 C.2   255  ARG255      0.2591
    102  O         10.3460    8.0590    2.2620 O.2   255  ARG255     -0.2718
    103  CB        12.5550    5.7620    2.3590 C.3   255  ARG255      0.0321
    104  CG        13.0930    4.6930    3.3360 C.3   255  ARG255      0.0489
    105  CD        14.6520    4.7060    3.3390 C.3   255  ARG255      0.2205
    106  NE        15.1830    6.0580    3.6370 N.pl3 255  ARG255     -0.0865
    107  CZ        15.8560    6.3580    4.7530 C.cat 255  ARG255      0.5346
    108  NH1       16.1300    5.3980    5.6350 N.pl3 255  ARG255      0.1354
    109  NH2       16.3370    7.5890    4.9550 N.pl3 255  ARG255      0.1354
    110  N         10.6860    7.1490    0.2540 N.am  256  ALA256     -0.1980
    111  CA        10.2870    8.4070   -0.3810 C.3   256  ALA256      0.1597
    112  C          8.7860    8.6980   -0.1770 C.2   256  ALA256      0.2287
    113  O          8.3860    9.8600    0.0250 O.2   256  ALA256     -0.2864
    114  CB        10.6400    8.3760   -1.8830 C.3   256  ALA256      0.0319
    115  N          8.1360    9.9990    3.3880 N.3   259  ALA259     -0.1245
    116  CA         8.6870   11.3260    3.5130 C.3   259  ALA259      0.1562
    117  C          7.7390   12.3090    2.8460 C.2   259  ALA259      0.2260
    118  O          7.5030   13.3960    3.3330 O.2   259  ALA259     -0.2867
    119  CB        10.0650   11.3780    2.8260 C.3   259  ALA259      0.0290
    120  N         14.2920   15.0080   -3.4850 N.3   281  LEU281     -0.1231
    121  CA        13.9200   13.6780   -3.1210 C.3   281  LEU281      0.1693
    122  C         15.0450   12.9250   -2.3780 C.2   281  LEU281      0.2591
    123  O         14.7750   12.2970   -1.3610 O.2   281  LEU281     -0.2718
    124  CB        13.3950   12.8680   -4.3230 C.3   281  LEU281      0.0284
    125  CG        12.6650   11.5600   -3.8450 C.3   281  LEU281      0.0019
    126  CD1       11.2950   11.2610   -4.4950 C.3   281  LEU281      0.0001
    127  CD2       13.5700   10.3570   -3.9760 C.3   281  LEU281      0.0001
    128  N         16.2890   13.0230   -2.8560 N.am  282  LEU282     -0.1980
    129  CA        17.3580   12.1600   -2.3550 C.3   282  LEU282      0.1596
    130  C         17.4860   12.3160   -0.8550 C.2   282  LEU282      0.2287
    131  O         17.6740   11.3630   -0.1330 O.2   282  LEU282     -0.2864
    132  CB        18.6840   12.5090   -3.0090 C.3   282  LEU282      0.0297
    133  CG        19.9730   11.7220   -2.6610 C.3   282  LEU282      0.0022
    134  CD1       19.8320   10.1850   -2.7960 C.3   282  LEU282      0.0001
    135  CD2       21.1480   12.2310   -3.4850 C.3   282  LEU282      0.0001
    136  N         13.9310   12.1410    3.1630 N.3   285  SER285     -0.1217
    137  CA        13.6420   11.2350    4.3040 C.3   285  SER285      0.1889
    138  C         14.7420   11.2130    5.3610 C.2   285  SER285      0.2288
    139  O         14.4700   11.0830    6.5610 O.2   285  SER285     -0.2866
    140  CB        13.3100    9.8110    3.8550 C.3   285  SER285      0.2089
    141  OG        14.3700    9.2780    3.1270 O.3   285  SER285     -0.2183
@<TRIPOS>BOND
     1    29    30   ar
     2    29    27   ar
     3    30    28   ar
     4    51    52    1
     5    58    56    1
     6    27    25   ar
     7    28    26   ar
     8    52    53    1
     9    52    55    1
    10    54    53    2
    11     1     2    1
    12    26    25   ar
    13    25    24    1
    14    56    55    1
    15    56    57    1
    16    44    43    1
    17     3     2    1
    18     3     4    2
    19    45    43    1
    20    24    21    1
    21     2     5    1
    22     5     6    1
    23    43    40    1
    24     6     7    1
    25    22    21    1
    26    22    23    2
    27    21    20    1
    28    40    41    1
    29    40    39    1
    30     7     8    1
    31    42    41    2
    32    12    13    1
    33    14    13    1
    34    14    15    2
    35     8     9    2
    36    39    33   am
    37    16    13    1
    38    16    17    1
    39    92    91    1
    40    19    17    1
    41    17    18    1
    42     9    11    1
    43     9    10    1
    44    33    34    2
    45    33    32    1
    46    93    91    1
    47    50    47    1
    48    91    90    1
    49    48    49    2
    50    48    47    1
    51    31    32    1
    52    32    35    1
    53    35    36    1
    54    47    46    1
    55    90    87    1
    56    37    36    1
    57    36    38    1
    58    87    86    1
    59    87    88    1
    60    85    83    1
    61    86    80   am
    62   126   125    1
    63   124   125    1
    64   124   121    1
    65    88    89    2
    66   127   125    1
    67    83    82    1
    68    83    84    1
    69    82    79    1
    70   135   133    1
    71   120   121    1
    72    80    79    1
    73    80    81    2
    74   121   122    1
    75   132   133    1
    76   132   129    1
    77    78    79    1
    78   128   122   am
    79   128   129    1
    80   134   133    1
    81    98    95    1
    82   122   123    2
    83   129   130    1
    84   114   111    1
    85    96    95    1
    86    96    97    2
    87    95    94    1
    88    76    77    1
    89    76    75    1
    90    77    71    1
    91   130   131    2
    92    71    72    1
    93    72    75    1
    94    72    73    1
    95   111   112    1
    96   111   110    1
    97   112   113    2
    98   110   101   am
    99    70    69    1
   100    67    69   ar
   101    67    65   ar
   102    73    74    2
   103    69    68   ar
   104    61    62    2
   105    61    60    1
   106    65    64   ar
   107    99   100    1
   108   101   100    1
   109   101   102    2
   110    68    66   ar
   111    60    59    1
   112    60    63    1
   113   100   103    1
   114    64    66   ar
   115    64    63    1
   116   103   104    1
   117   119   116    1
   118   117   118    2
   119   117   116    1
   120   141   140    1
   121   136   137    1
   122   104   105    1
   123   105   106    1
   124   115   116    1
   125   106   107    2
   126   140   137    1
   127   137   138    1
   128   107   109    1
   129   107   108    1
   130   138   139    2
