@<TRIPOS>MOLECULE
tmp/3sqjB06.pdb
 159 149 0 0 0
SMALL
GASTEIGER

@<TRIPOS>ATOM
      1  N         22.6190    0.8760    2.9430 N.3   148  TYR148     -0.1241
      2  CA        21.6350    1.5430    2.1250 C.3   148  TYR148      0.1605
      3  C         22.3410    2.5550    1.2070 C.2   148  TYR148      0.2264
      4  O         22.9380    3.4870    1.6930 O.2   148  TYR148     -0.2867
      5  CB        20.5800    2.2140    3.0290 C.3   148  TYR148      0.0534
      6  CG        19.4720    2.9260    2.2920 C.ar  148  TYR148     -0.0201
      7  CD1       18.6530    2.2480    1.3960 C.ar  148  TYR148     -0.0009
      8  CD2       19.2140    4.2860    2.5370 C.ar  148  TYR148     -0.0009
      9  CE1       17.6120    2.9810    0.6820 C.ar  148  TYR148      0.0417
     10  CE2       18.1530    4.9820    1.9120 C.ar  148  TYR148      0.0417
     11  CZ        17.3990    4.3300    0.9530 C.ar  148  TYR148      0.1957
     12  OH        16.4090    5.0330    0.3020 O.3   148  TYR148     -0.2866
     13  N         22.4270    6.3830    1.7850 N.3   151  GLU151     -0.1245
     14  CA        23.0840    6.7850    3.0140 C.3   151  GLU151      0.1567
     15  C         24.6140    6.7750    2.8500 C.2   151  GLU151      0.2260
     16  O         25.3300    7.6260    3.3860 O.2   151  GLU151     -0.2867
     17  CB        22.6510    5.8570    4.1390 C.3   151  GLU151      0.0388
     18  CG        21.6240    6.5170    4.9960 C.3   151  GLU151      0.1160
     19  CD        22.2290    6.9250    6.3110 C.2   151  GLU151      0.3649
     20  OE1       22.9990    6.1120    6.9080 O.co2 151  GLU151     -0.2457
     21  OE2       21.9290    8.0440    6.7640 O.co2 151  GLU151     -0.2457
     22  N         21.3190   -0.4850   11.7570 N.3   194  GLN194     -0.1245
     23  CA        20.3840   -0.9900   10.7200 C.3   194  GLN194      0.1566
     24  C         20.2360   -2.5320   10.8170 C.2   194  GLN194      0.2260
     25  O         19.0920   -3.0700   10.8640 O.2   194  GLN194     -0.2867
     26  CB        20.8690   -0.5060    9.3400 C.3   194  GLN194      0.0367
     27  CG        20.1930   -1.0730    8.1500 C.3   194  GLN194      0.0905
     28  CD        20.8930   -0.6680    6.8430 C.2   194  GLN194      0.2608
     29  OE1       21.8090    0.1500    6.8420 O.2   194  GLN194     -0.2717
     30  NE2       20.4320   -1.2880    5.7820 N.am  194  GLN194     -0.0878
     31  N          9.0990    6.4990   20.0380 N.3   216  ARG216     -0.1231
     32  CA        10.0470    7.4300   19.3800 C.3   216  ARG216      0.1694
     33  C          9.3210    8.5410   18.6030 C.2   216  ARG216      0.2591
     34  O          9.6850    9.7370   18.6790 O.2   216  ARG216     -0.2718
     35  CB        10.9570    6.6360   18.3900 C.3   216  ARG216      0.0321
     36  CG        12.4720    6.8650   18.5170 C.3   216  ARG216      0.0489
     37  CD        13.0420    8.1880   18.0560 C.3   216  ARG216      0.2205
     38  NE        12.7690    9.2860   18.9830 N.pl3 216  ARG216     -0.0865
     39  CZ        13.2700   10.5280   18.9040 C.cat 216  ARG216      0.5346
     40  NH1       14.1650   10.8800   17.9790 N.pl3 216  ARG216      0.1354
     41  NH2       12.8930   11.4380   19.7850 N.pl3 216  ARG216      0.1354
     42  N          8.2950    8.1730   17.8450 N.am  217  LEU217     -0.1980
     43  CA         7.5650    9.1810   17.0730 C.3   217  LEU217      0.1596
     44  C          6.8130   10.1450   17.9720 C.2   217  LEU217      0.2287
     45  O          6.6690   11.2890   17.6320 O.2   217  LEU217     -0.2864
     46  CB         6.6050    8.5800   16.0630 C.3   217  LEU217      0.0297
     47  CG         7.2720    7.8900   14.8400 C.3   217  LEU217      0.0022
     48  CD1        6.2250    7.0960   14.0210 C.3   217  LEU217      0.0001
     49  CD2        7.9270    8.8540   14.0000 C.3   217  LEU217      0.0001
     50  N          9.2260   12.7120   19.1730 N.3   220  ARG220     -0.1231
     51  CA         9.6010   13.5190   18.0570 C.3   220  ARG220      0.1694
     52  C          8.5290   14.5940   17.6770 C.2   220  ARG220      0.2592
     53  O          8.8110   15.8130   17.4510 O.2   220  ARG220     -0.2718
     54  CB         9.8200   12.5480   16.9010 C.3   220  ARG220      0.0321
     55  CG        10.9780   12.8780   16.0130 C.3   220  ARG220      0.0489
     56  CD        12.3010   12.7180   16.7410 C.3   220  ARG220      0.2205
     57  NE        13.3790   13.0350   15.8200 N.pl3 220  ARG220     -0.0865
     58  CZ        14.1680   12.1440   15.2000 C.cat 220  ARG220      0.5346
     59  NH1       14.0860   10.8330   15.4210 N.pl3 220  ARG220      0.1354
     60  NH2       15.0780   12.5900   14.3790 N.pl3 220  ARG220      0.1354
     61  N          7.2880   14.1360   17.6260 N.am  221  PHE221     -0.1976
     62  CA         6.1630   14.9120   17.1310 C.3   221  PHE221      0.1639
     63  C          5.0920   15.0250   18.2360 C.2   221  PHE221      0.2290
     64  O          3.9500   14.5570   18.0700 O.2   221  PHE221     -0.2864
     65  CB         5.5810   14.1600   15.9310 C.3   221  PHE221      0.0560
     66  CG         6.5950   13.8330   14.8590 C.ar  221  PHE221     -0.0200
     67  CD1        7.5090   14.7800   14.4580 C.ar  221  PHE221     -0.0042
     68  CD2        6.5510   12.6010   14.1880 C.ar  221  PHE221     -0.0042
     69  CE1        8.4020   14.5020   13.4710 C.ar  221  PHE221     -0.0003
     70  CE2        7.4490   12.3280   13.1890 C.ar  221  PHE221     -0.0003
     71  CZ         8.3810   13.2680   12.8310 C.ar  221  PHE221     -0.0000
     72  N          5.8290    3.4440    8.9420 N.3   236  LEU236     -0.1245
     73  CA         7.2450    3.2260    9.2950 C.3   236  LEU236      0.1561
     74  C          7.6230    1.7400    9.4540 C.2   236  LEU236      0.2260
     75  O          8.7000    1.2840    9.0480 O.2   236  LEU236     -0.2867
     76  CB         7.6080    4.0270   10.5450 C.3   236  LEU236      0.0270
     77  CG         9.0870    4.0620   10.9690 C.3   236  LEU236      0.0019
     78  CD1        9.9600    4.5520    9.8100 C.3   236  LEU236      0.0001
     79  CD2        9.2280    4.9930   12.1400 C.3   236  LEU236      0.0001
     80  N          7.8790    0.3470    6.0150 N.3   239  VAL239     -0.1231
     81  CA         9.1540    0.8010    5.4150 C.3   239  VAL239      0.1692
     82  C         10.3330   -0.0580    5.9740 C.2   239  VAL239      0.2592
     83  O         11.1010   -0.5740    5.2040 O.2   239  VAL239     -0.2718
     84  CB         9.4120    2.3040    5.6510 C.3   239  VAL239      0.0266
     85  CG1       10.8990    2.6430    5.3750 C.3   239  VAL239      0.0020
     86  CG2        8.4020    3.2000    4.8410 C.3   239  VAL239      0.0020
     87  N         10.4540   -0.2220    7.2910 N.am  240  HIS240     -0.1976
     88  CA        11.5480   -1.0260    7.8960 C.3   240  HIS240      0.1656
     89  C         11.5070   -2.4840    7.4970 C.2   240  HIS240      0.2291
     90  O         12.5330   -3.0430    7.2240 O.2   240  HIS240     -0.2864
     91  CB        11.5860   -0.9400    9.4290 C.3   240  HIS240      0.0771
     92  CG        12.3690    0.2230    9.9310 C.ar  240  HIS240      0.0820
     93  ND1       13.7470    0.2390    9.9530 N.ar  240  HIS240     -0.2267
     94  CD2       11.9690    1.4120   10.4410 C.ar  240  HIS240      0.1154
     95  CE1       14.1620    1.4030   10.4290 C.ar  240  HIS240      0.1986
     96  NE2       13.1010    2.1210   10.7560 N.ar  240  HIS240     -0.2212
     97  N         12.5990   -2.4800    3.7930 N.3   243  CYS243     -0.1235
     98  CA        14.0100   -2.2620    3.7550 C.3   243  CYS243      0.1677
     99  C         14.8470   -3.4020    4.3510 C.2   243  CYS243      0.2270
    100  O         15.9720   -3.6470    3.8710 O.2   243  CYS243     -0.2867
    101  CB        14.3850   -0.9230    4.4090 C.3   243  CYS243      0.0956
    102  SG        13.6980    0.5650    3.6080 S.3   243  CYS243     -0.0801
    103  N         13.0080   -0.3210   -1.0470 N.3   251  CYS251     -0.1235
    104  CA        13.2940    0.4190    0.1530 C.3   251  CYS251      0.1677
    105  C         13.2050    1.9150   -0.1360 C.2   251  CYS251      0.2270
    106  O         12.5830    2.6760    0.6500 O.2   251  CYS251     -0.2867
    107  CB        14.6590    0.0380    0.7820 C.3   251  CYS251      0.0956
    108  SG        15.1450    1.0410    2.2690 S.3   251  CYS251     -0.0801
    109  N         10.5490    4.6360    1.4680 N.3   255  ARG255     -0.1245
    110  CA        11.0340    5.7790    2.2370 C.3   255  ARG255      0.1563
    111  C         10.6340    7.0890    1.5820 C.2   255  ARG255      0.2260
    112  O         10.3460    8.0590    2.2620 O.2   255  ARG255     -0.2867
    113  CB        12.5550    5.7620    2.3590 C.3   255  ARG255      0.0307
    114  CG        13.0930    4.6930    3.3360 C.3   255  ARG255      0.0489
    115  CD        14.6520    4.7060    3.3390 C.3   255  ARG255      0.2205
    116  NE        15.1830    6.0580    3.6370 N.pl3 255  ARG255     -0.0865
    117  CZ        15.8560    6.3580    4.7530 C.cat 255  ARG255      0.5346
    118  NH1       16.1300    5.3980    5.6350 N.pl3 255  ARG255      0.1354
    119  NH2       16.3370    7.5890    4.9550 N.pl3 255  ARG255      0.1354
    120  N          6.8560    7.8480    2.3830 N.3   258  LEU258     -0.1231
    121  CA         6.5110    8.2370    3.7120 C.3   258  LEU258      0.1693
    122  C          6.9450    9.6690    3.9180 C.2   258  LEU258      0.2591
    123  O          6.1890   10.4680    4.5290 O.2   258  LEU258     -0.2718
    124  CB         7.1770    7.3200    4.7130 C.3   258  LEU258      0.0284
    125  CG         7.0840    7.6410    6.2040 C.3   258  LEU258      0.0019
    126  CD1        5.6180    8.0040    6.6160 C.3   258  LEU258      0.0001
    127  CD2        7.6050    6.4070    7.0140 C.3   258  LEU258      0.0001
    128  N          8.1360    9.9990    3.3880 N.am  259  ALA259     -0.1980
    129  CA         8.6870   11.3260    3.5130 C.3   259  ALA259      0.1597
    130  C          7.7390   12.3090    2.8460 C.2   259  ALA259      0.2287
    131  O          7.5030   13.3960    3.3330 O.2   259  ALA259     -0.2864
    132  CB        10.0650   11.3780    2.8260 C.3   259  ALA259      0.0319
    133  N          4.7090   12.8590    4.9220 N.3   262  ILE262     -0.1245
    134  CA         4.9630   13.6340    6.1070 C.3   262  ILE262      0.1561
    135  C          5.0420   15.1330    5.7210 C.2   262  ILE262      0.2260
    136  O          4.4580   16.0070    6.3750 O.2   262  ILE262     -0.2867
    137  CB         6.2460   13.1890    6.7970 C.3   262  ILE262      0.0252
    138  CG1        6.0300   11.8440    7.4570 C.3   262  ILE262      0.0019
    139  CG2        6.6810   14.2380    7.7860 C.3   262  ILE262      0.0019
    140  CD1        7.3010   11.1580    7.9110 C.3   262  ILE262      0.0001
    141  N         13.9310   12.1410    3.1630 N.3   285  SER285     -0.1217
    142  CA        13.6420   11.2350    4.3040 C.3   285  SER285      0.1889
    143  C         14.7420   11.2130    5.3610 C.2   285  SER285      0.2288
    144  O         14.4700   11.0830    6.5610 O.2   285  SER285     -0.2866
    145  CB        13.3100    9.8110    3.8550 C.3   285  SER285      0.2089
    146  OG        14.3700    9.2780    3.1270 O.3   285  SER285     -0.2183
    147  N         14.3860   14.3120    7.4890 N.3   288  ILE288     -0.1231
    148  CA        13.2680   14.0890    8.4080 C.3   288  ILE288      0.1692
    149  C         13.7100   13.1950    9.5800 C.2   288  ILE288      0.2591
    150  O         13.4120   13.5030   10.7590 O.2   288  ILE288     -0.2718
    151  CB        12.0390   13.4830    7.7090 C.3   288  ILE288      0.0266
    152  CG1       11.4090   14.5080    6.7450 C.3   288  ILE288      0.0019
    153  CG2       10.9740   13.0970    8.7230 C.3   288  ILE288      0.0020
    154  CD1       10.4150   13.9200    5.8160 C.3   288  ILE288      0.0001
    155  N         14.3870   12.1030    9.2510 N.am  289  ALA289     -0.1980
    156  CA        14.8290   11.1420   10.2600 C.3   289  ALA289      0.1597
    157  C         15.6770   11.7360   11.3810 C.2   289  ALA289      0.2287
    158  O         15.6400   11.2370   12.5000 O.2   289  ALA289     -0.2864
    159  CB        15.5730   10.0130    9.6100 C.3   289  ALA289      0.0319
@<TRIPOS>BOND
     1   103   104    1
     2   105   104    1
     3   105   106    2
     4   104   107    1
     5    12    11    1
     6     9    11   ar
     7     9     7   ar
     8   107   108    1
     9    11    10   ar
    10     3     4    2
    11     3     2    1
    12     7     6   ar
    13   109   110    1
    14   111   110    1
    15   111   112    2
    16    13    14    1
    17    10     8   ar
    18     2     1    1
    19     2     5    1
    20   110   113    1
    21   108   102    1
    22     6     8   ar
    23     6     5    1
    24   113   114    1
    25   120   121    1
    26   132   129    1
    27   130   131    2
    28   130   129    1
    29    15    14    1
    30    15    16    2
    31    14    17    1
    32   146   145    1
    33   141   142    1
    34   114   115    1
    35   115   116    1
    36   128   129    1
    37   128   122   am
    38   102   101    1
    39   116   117    2
    40   121   122    1
    41   121   124    1
    42    98    97    1
    43    98    99    1
    44    98   101    1
    45   145   142    1
    46   100    99    2
    47   122   123    2
    48    17    18    1
    49   142   143    1
    50   124   125    1
    51   117   119    1
    52   117   118    1
    53    86    84    1
    54   133   134    1
    55    18    19    1
    56    83    82    2
    57   143   144    2
    58    85    84    1
    59    81    84    1
    60    81    82    1
    61    81    80    1
    62   135   134    1
    63   135   136    2
    64    30    28   am
    65   154   152    1
    66    82    87   am
    67   134   137    1
    68   125   126    1
    69   125   127    1
    70    19    21   ar
    71    19    20   ar
    72   152   151    1
    73   137   138    1
    74   137   139    1
    75    29    28    2
    76    28    27    1
    77    90    89    2
    78    87    88    1
    79   138   140    1
    80   147   148    1
    81    89    88    1
    82   151   148    1
    83   151   153    1
    84    88    91    1
    85    27    26    1
    86   148   149    1
    87    72    73    1
    88    75    74    2
    89   155   149   am
    90   155   156    1
    91    73    74    1
    92    73    76    1
    93    26    23    1
    94    91    92    1
    95   149   150    2
    96   159   156    1
    97    78    77    1
    98    92    93   ar
    99    92    94   ar
   100    93    95   ar
   101   156   157    1
   102    95    96   ar
   103    94    96   ar
   104    76    77    1
   105    23    24    1
   106    23    22    1
   107    24    25    2
   108    77    79    1
   109   157   158    2
   110    71    70   ar
   111    71    69   ar
   112    70    68   ar
   113    69    67   ar
   114    49    47    1
   115    48    47    1
   116    68    66   ar
   117    60    58    1
   118    67    66   ar
   119    47    46    1
   120    66    65    1
   121    58    59    1
   122    58    57    2
   123    57    56    1
   124    65    62    1
   125    55    56    1
   126    55    54    1
   127    46    43    1
   128    54    51    1
   129    43    42    1
   130    43    44    1
   131    62    61    1
   132    62    63    1
   133    53    52    2
   134    61    52   am
   135    45    44    2
   136    52    51    1
   137    42    33   am
   138    40    39    1
   139    37    36    1
   140    37    38    1
   141    51    50    1
   142    64    63    2
   143    35    36    1
   144    35    32    1
   145    33    34    2
   146    33    32    1
   147    39    38    2
   148    39    41    1
   149    32    31    1
