@<TRIPOS>MOLECULE
tmp/3sqjB00.pdb
 143 137 0 0 0
SMALL
GASTEIGER

@<TRIPOS>ATOM
      1  N         40.7140   -2.2670    4.3720 N.3   113  LEU113     -0.1231
      2  CA        40.9730   -1.1340    3.5540 C.3   113  LEU113      0.1693
      3  C         41.8590   -0.2360    4.4210 C.2   113  LEU113      0.2592
      4  O         41.4030    0.2530    5.4480 O.2   113  LEU113     -0.2718
      5  CB        39.6180   -0.4900    3.2470 C.3   113  LEU113      0.0284
      6  CG        39.4680    0.4860    2.0850 C.3   113  LEU113      0.0019
      7  CD1       39.9130   -0.1080    0.7170 C.3   113  LEU113      0.0001
      8  CD2       37.9830    0.9630    2.0810 C.3   113  LEU113      0.0001
      9  N         43.1150   -0.0450    4.0190 N.am  114  VAL114     -0.1966
     10  CA        44.0620    0.7170    4.8430 C.3   114  VAL114      0.1727
     11  C         43.9760    2.2270    4.6220 C.2   114  VAL114      0.2616
     12  O         43.9930    2.6980    3.5150 O.2   114  VAL114     -0.2715
     13  CB        45.5360    0.2520    4.6510 C.3   114  VAL114      0.0290
     14  CG1       45.7020   -1.2340    4.9970 C.3   114  VAL114      0.0023
     15  CG2       45.9900    0.4710    3.2370 C.3   114  VAL114      0.0023
     16  N         43.8990    2.9850    5.6890 N.am  115  ARG115     -0.1964
     17  CA        43.9980    4.4450    5.5370 C.3   115  ARG115      0.1714
     18  C         45.4120    4.8380    5.0870 C.2   115  ARG115      0.2458
     19  O         46.3230    4.6720    5.8500 O.2   115  ARG115     -0.2730
     20  CB        43.6770    5.1070    6.8930 C.3   115  ARG115      0.0347
     21  CG        43.2600    6.5360    6.7380 C.3   115  ARG115      0.0492
     22  CD        43.0840    7.1750    8.0620 C.3   115  ARG115      0.2205
     23  NE        41.8020    6.8200    8.6370 N.pl3 115  ARG115     -0.0865
     24  CZ        41.4150    7.2340    9.8340 C.cat 115  ARG115      0.5346
     25  NH1       42.2240    8.0080   10.5340 N.pl3 115  ARG115      0.1354
     26  NH2       40.2360    6.8820   10.3310 N.pl3 115  ARG115      0.1354
     27  N         45.5980    5.3700    3.8560 N.am  116  PRO116     -0.2727
     28  CA        46.9800    5.7600    3.4810 C.3   116  PRO116      0.1402
     29  C         47.4050    6.9450    4.3700 C.2   116  PRO116      0.2269
     30  O         46.6060    7.4110    5.2040 O.2   116  PRO116     -0.2865
     31  CB        46.8440    6.2010    2.0140 C.3   116  PRO116      0.0296
     32  CG        45.4480    5.6020    1.5580 C.3   116  PRO116      0.0237
     33  CD        44.6330    5.7610    2.8190 C.3   116  PRO116      0.0939
     34  N         46.9600   10.8320    0.6220 N.3   121  MET121     -0.1245
     35  CA        45.5130   10.9890    0.3720 C.3   121  MET121      0.1570
     36  C         45.2360   12.3340   -0.2730 C.2   121  MET121      0.2261
     37  O         44.5390   12.4380   -1.2870 O.2   121  MET121     -0.2867
     38  CB        44.7350   10.8810    1.7120 C.3   121  MET121      0.0387
     39  CG        44.6140    9.4690    2.2160 C.3   121  MET121      0.0595
     40  SD        43.4150    9.3980    3.5490 S.3   121  MET121     -0.1393
     41  CE        44.5120    9.3170    4.9540 C.3   121  MET121      0.0692
     42  N         37.8360    9.7900   -5.1010 N.3   133  LEU133     -0.1245
     43  CA        36.6440    9.6580   -4.2610 C.3   133  LEU133      0.1561
     44  C         35.7200    8.4980   -4.7100 C.2   133  LEU133      0.2260
     45  O         35.1600    7.8150   -3.8790 O.2   133  LEU133     -0.2867
     46  CB        35.8520   10.9510   -4.1950 C.3   133  LEU133      0.0270
     47  CG        36.5510   12.1950   -3.6060 C.3   133  LEU133      0.0019
     48  CD1       35.6190   13.4250   -3.8070 C.3   133  LEU133      0.0001
     49  CD2       36.7920   11.9820   -2.1710 C.3   133  LEU133      0.0001
     50  N         37.1970    5.0820   -3.7240 N.3   136  TYR136     -0.1227
     51  CA        36.8590    4.7770   -2.3390 C.3   136  TYR136      0.1736
     52  C         35.4560    4.3490   -2.0960 C.2   136  TYR136      0.2595
     53  O         35.2340    3.4150   -1.3060 O.2   136  TYR136     -0.2718
     54  CB        37.2030    5.8950   -1.3610 C.3   136  TYR136      0.0548
     55  CG        38.5740    5.6890   -0.8610 C.ar  136  TYR136     -0.0200
     56  CD1       38.8970    4.5640   -0.0780 C.ar  136  TYR136     -0.0009
     57  CD2       39.5830    6.5450   -1.2370 C.ar  136  TYR136     -0.0009
     58  CE1       40.2430    4.3630    0.3520 C.ar  136  TYR136      0.0417
     59  CE2       40.8990    6.3570   -0.8310 C.ar  136  TYR136      0.0417
     60  CZ        41.2300    5.2690   -0.0430 C.ar  136  TYR136      0.1957
     61  OH        42.5470    5.1410    0.3400 O.3   136  TYR136     -0.2866
     62  N         34.5240    5.0290   -2.7630 N.am  137  LEU137     -0.1980
     63  CA        33.0990    4.6990   -2.6910 C.3   137  LEU137      0.1596
     64  C         32.8800    3.2380   -3.1400 C.2   137  LEU137      0.2287
     65  O         32.1920    2.4880   -2.4840 O.2   137  LEU137     -0.2864
     66  CB        32.2850    5.6500   -3.5800 C.3   137  LEU137      0.0297
     67  CG        30.7800    5.6380   -3.5540 C.3   137  LEU137      0.0022
     68  CD1       30.2070    5.8890   -2.1150 C.3   137  LEU137      0.0001
     69  CD2       30.2210    6.6130   -4.5730 C.3   137  LEU137      0.0001
     70  N         34.2610    0.7420   -0.5170 N.3   140  ILE140     -0.1245
     71  CA        33.4010    0.6500    0.6610 C.3   140  ILE140      0.1561
     72  C         32.0780   -0.0820    0.3710 C.2   140  ILE140      0.2260
     73  O         31.7020   -0.9950    1.1140 O.2   140  ILE140     -0.2867
     74  CB        33.1220    2.0550    1.2430 C.3   140  ILE140      0.0252
     75  CG1       34.4460    2.7320    1.6870 C.3   140  ILE140      0.0019
     76  CG2       32.0710    2.0230    2.3430 C.3   140  ILE140      0.0019
     77  CD1       34.9580    2.3290    3.0510 C.3   140  ILE140      0.0001
     78  N         25.0750    5.8230    2.0660 N.3   152  LEU152     -0.1245
     79  CA        26.4620    5.6760    1.7470 C.3   152  LEU152      0.1561
     80  C         26.8900    6.9100    0.9830 C.2   152  LEU152      0.2260
     81  O         27.9860    7.4680    1.2160 O.2   152  LEU152     -0.2867
     82  CB        26.6860    4.4120    0.9400 C.3   152  LEU152      0.0270
     83  CG        28.1350    3.9740    0.7870 C.3   152  LEU152      0.0019
     84  CD1       28.9220    3.9370    2.1020 C.3   152  LEU152      0.0001
     85  CD2       28.1840    2.5920    0.0890 C.3   152  LEU152      0.0001
     86  N         27.3380    9.7920    3.2910 N.3   155  PHE155     -0.1227
     87  CA        28.6950    9.7470    3.8840 C.3   155  PHE155      0.1736
     88  C         29.7930   10.2110    2.9500 C.2   155  PHE155      0.2595
     89  O         30.6580   10.9530    3.3970 O.2   155  PHE155     -0.2718
     90  CB        29.0690    8.3740    4.4420 C.3   155  PHE155      0.0547
     91  CG        28.4770    8.1150    5.7950 C.ar  155  PHE155     -0.0202
     92  CD1       29.0220    8.7030    6.9270 C.ar  155  PHE155     -0.0042
     93  CD2       27.3940    7.2880    5.9350 C.ar  155  PHE155     -0.0042
     94  CE1       28.4960    8.4750    8.1390 C.ar  155  PHE155     -0.0003
     95  CE2       26.8430    7.0660    7.1700 C.ar  155  PHE155     -0.0003
     96  CZ        27.4000    7.6580    8.2670 C.ar  155  PHE155     -0.0000
     97  N         29.7560    9.7620    1.6930 N.am  156  ALA156     -0.1980
     98  CA        30.7100   10.1190    0.6550 C.3   156  ALA156      0.1597
     99  C         30.8530   11.6130    0.4940 C.2   156  ALA156      0.2287
    100  O         31.9700   12.1010    0.2510 O.2   156  ALA156     -0.2864
    101  CB        30.2990    9.5510   -0.6390 C.3   156  ALA156      0.0319
    102  N         32.8320   12.9860    3.3920 N.3   159  TYR159     -0.1241
    103  CA        34.2530   12.7720    3.1820 C.3   159  TYR159      0.1605
    104  C         34.8330   13.8170    2.2730 C.2   159  TYR159      0.2264
    105  O         35.9570   14.3340    2.5290 O.2   159  TYR159     -0.2867
    106  CB        34.5230   11.3850    2.6270 C.3   159  TYR159      0.0534
    107  CG        34.5990   10.3170    3.7220 C.ar  159  TYR159     -0.0201
    108  CD1       35.7550   10.1630    4.5140 C.ar  159  TYR159     -0.0009
    109  CD2       33.5170    9.4810    3.9740 C.ar  159  TYR159     -0.0009
    110  CE1       35.8460    9.1690    5.4810 C.ar  159  TYR159      0.0417
    111  CE2       33.6030    8.4630    4.9350 C.ar  159  TYR159      0.0417
    112  CZ        34.7730    8.3330    5.6950 C.ar  159  TYR159      0.1957
    113  OH        34.8270    7.3500    6.6500 O.3   159  TYR159     -0.2866
    114  N         38.1300   16.3680    3.1030 N.3   163  PHE163     -0.1241
    115  CA        39.3190   16.4910    2.2930 C.3   163  PHE163      0.1605
    116  C         39.5390   17.9190    1.7490 C.2   163  PHE163      0.2264
    117  O         40.6870   18.4450    1.7390 O.2   163  PHE163     -0.2867
    118  CB        39.2800   15.4690    1.1450 C.3   163  PHE163      0.0534
    119  CG        39.5700   14.0580    1.5900 C.ar  163  PHE163     -0.0203
    120  CD1       40.8320   13.6940    1.9750 C.ar  163  PHE163     -0.0042
    121  CD2       38.5930   13.0980    1.6150 C.ar  163  PHE163     -0.0042
    122  CE1       41.0910   12.3750    2.4090 C.ar  163  PHE163     -0.0003
    123  CE2       38.8620   11.8080    1.9940 C.ar  163  PHE163     -0.0003
    124  CZ        40.1150   11.4610    2.3960 C.ar  163  PHE163     -0.0000
    125  N         38.1390   11.9290    9.7810 N.3   180  LEU180     -0.1245
    126  CA        38.1060   10.5600    9.2530 C.3   180  LEU180      0.1561
    127  C         37.7160    9.5320   10.3070 C.2   180  LEU180      0.2260
    128  O         37.0760    8.5440   10.0110 O.2   180  LEU180     -0.2867
    129  CB        39.4570   10.1760    8.6300 C.3   180  LEU180      0.0270
    130  CG        39.8910   10.9650    7.3920 C.3   180  LEU180      0.0019
    131  CD1       41.1630   10.3460    6.7570 C.3   180  LEU180      0.0001
    132  CD2       38.7560   11.0530    6.3840 C.3   180  LEU180      0.0001
    133  N         34.2920    7.2640   10.2090 N.3   184  ARG184     -0.1245
    134  CA        34.3630    5.8210   10.1940 C.3   184  ARG184      0.1563
    135  C         33.5080    5.1920   11.2930 C.2   184  ARG184      0.2260
    136  O         32.8850    4.1580   11.0720 O.2   184  ARG184     -0.2867
    137  CB        35.8300    5.3910   10.2970 C.3   184  ARG184      0.0307
    138  CG        36.1020    3.9170   10.5730 C.3   184  ARG184      0.0489
    139  CD        37.4580    3.7730   11.2380 C.3   184  ARG184      0.2205
    140  NE        37.4930    4.4170   12.5630 N.pl3 184  ARG184     -0.0865
    141  CZ        38.5890    4.6920   13.2770 C.cat 184  ARG184      0.5346
    142  NH1       39.8090    4.3740   12.8410 N.pl3 184  ARG184      0.1354
    143  NH2       38.4620    5.3250   14.4460 N.pl3 184  ARG184      0.1354
@<TRIPOS>BOND
     1    42    43    1
     2    44    43    1
     3    44    45    2
     4    69    67    1
     5    43    46    1
     6    46    47    1
     7    48    47    1
     8    50    51    1
     9    47    49    1
    10    66    67    1
    11    66    63    1
    12    67    68    1
    13    64    63    1
    14    64    65    2
    15    62    63    1
    16    62    52   am
    17    51    52    1
    18    51    54    1
    19    52    53    2
    20    54    55    1
    21    37    36    2
    22    57    55   ar
    23    57    59   ar
    24    55    56   ar
    25    59    60   ar
    26   101    98    1
    27    70    71    1
    28    36    35    1
    29    56    58   ar
    30    60    61    1
    31    60    58   ar
    32    85    83    1
    33   100    99    2
    34    72    71    1
    35    72    73    2
    36    35    34    1
    37    35    38    1
    38    99    98    1
    39    98    97    1
    40    71    74    1
    41     7     6    1
    42    83    82    1
    43    83    84    1
    44    82    79    1
    45    80    81    2
    46    80    79    1
    47   118   119    1
    48   118   115    1
    49    74    75    1
    50    74    76    1
    51    32    31    1
    52    32    33    1
    53   119   121   ar
    54   119   120   ar
    55   121   123   ar
    56    75    77    1
    57    97    88   am
    58    38    39    1
    59   117   116    2
    60    79    78    1
    61   116   115    1
    62   120   122   ar
    63   123   124   ar
    64    31    28    1
    65     8     6    1
    66     6     5    1
    67    39    40    1
    68   104   105    2
    69   104   103    1
    70   115   114    1
    71   124   122   ar
    72   106   103    1
    73   106   107    1
    74    33    27    1
    75    88    89    2
    76    88    87    1
    77   103   102    1
    78    15    13    1
    79     5     2    1
    80    86    87    1
    81    28    27    1
    82    28    29    1
    83    12    11    2
    84    40    41    1
    85     2     1    1
    86     2     3    1
    87   107   109   ar
    88   107   108   ar
    89    27    18   am
    90    87    90    1
    91   109   111   ar
    92     9     3   am
    93     9    10    1
    94    29    30    2
    95     3     4    2
    96    90    91    1
    97   108   110   ar
    98    11    10    1
    99    11    16   am
   100    13    10    1
   101    13    14    1
   102   111   112   ar
   103    18    17    1
   104    18    19    2
   105   110   112   ar
   106    17    16    1
   107    17    20    1
   108   112   113    1
   109    91    93   ar
   110    91    92   ar
   111    93    95   ar
   112   132   130    1
   113    21    20    1
   114    21    22    1
   115   131   130    1
   116    92    94   ar
   117    95    96   ar
   118   130   129    1
   119    22    23    1
   120    94    96   ar
   121   129   126    1
   122    23    24    2
   123   126   125    1
   124   126   127    1
   125    24    26    1
   126    24    25    1
   127   128   127    2
   128   134   133    1
   129   134   137    1
   130   134   135    1
   131   137   138    1
   132   138   139    1
   133   136   135    2
   134   139   140    1
   135   140   141    2
   136   142   141    1
   137   141   143    1
