@<TRIPOS>MOLECULE
tmp/3sqlB00.pdb
 137 135 0 0 0
SMALL
GASTEIGER

@<TRIPOS>ATOM
      1  N         26.3700   54.9430   43.8640 N.3    19  VAL19      -0.1231
      2  CA        27.1580   54.6160   45.0470 C.3    19  VAL19       0.1692
      3  C         27.7690   53.2300   44.8650 C.2    19  VAL19       0.2592
      4  O         27.0570   52.2520   44.6150 O.2    19  VAL19      -0.2718
      5  CB        26.3060   54.6770   46.3180 C.3    19  VAL19       0.0266
      6  CG1       27.0800   54.1260   47.5400 C.3    19  VAL19       0.0020
      7  CG2       25.8470   56.1140   46.5450 C.3    19  VAL19       0.0020
      8  N         29.0900   53.1460   45.0020 N.am   20  VAL20      -0.1966
      9  CA        29.8030   51.9150   44.6760 C.3    20  VAL20       0.1727
     10  C         30.3310   51.2500   45.9360 C.2    20  VAL20       0.2616
     11  O         30.5420   51.8970   46.9460 O.2    20  VAL20      -0.2715
     12  CB        30.9830   52.1660   43.7210 C.3    20  VAL20       0.0290
     13  CG1       30.4860   52.8310   42.4050 C.3    20  VAL20       0.0023
     14  CG2       32.0310   53.0140   44.4120 C.3    20  VAL20       0.0023
     15  N         30.5000   49.9390   45.8660 N.am   21  ARG21      -0.1977
     16  CA        30.9400   49.1450   46.9940 C.3    21  ARG21       0.1597
     17  C         32.4530   49.0520   47.1070 C.2    21  ARG21       0.2287
     18  O         33.1600   48.8760   46.1120 O.2    21  ARG21      -0.2864
     19  CB        30.3480   47.7430   46.8680 C.3    21  ARG21       0.0334
     20  CG        30.9270   46.7250   47.8300 C.3    21  ARG21       0.0492
     21  CD        30.5730   46.9580   49.3060 C.3    21  ARG21       0.2205
     22  NE        31.1240   45.7940   49.9790 N.pl3  21  ARG21      -0.0865
     23  CZ        30.4310   44.7040   50.2710 C.cat  21  ARG21       0.5346
     24  NH1       31.0600   43.6680   50.7920 N.pl3  21  ARG21       0.1354
     25  NH2       29.1200   44.6510   50.0440 N.pl3  21  ARG21       0.1354
     26  N         40.5770   42.1750   50.2580 N.3    31  ARG31      -0.1245
     27  CA        39.1370   42.2040   49.9940 C.3    31  ARG31       0.1563
     28  C         38.5560   40.8000   50.0940 C.2    31  ARG31       0.2260
     29  O         39.0380   39.8760   49.4330 O.2    31  ARG31      -0.2867
     30  CB        38.8400   42.7880   48.6040 C.3    31  ARG31       0.0307
     31  CG        39.3240   44.2260   48.3700 C.3    31  ARG31       0.0489
     32  CD        39.1890   44.5990   46.8820 C.3    31  ARG31       0.2205
     33  NE        40.0860   43.7980   46.0450 N.pl3  31  ARG31      -0.0865
     34  CZ        39.9830   43.6780   44.7240 C.cat  31  ARG31       0.5346
     35  NH1       39.0080   44.3000   44.0650 N.pl3  31  ARG31       0.1354
     36  NH2       40.8480   42.9210   44.0590 N.pl3  31  ARG31       0.1354
     37  N         36.2780   40.2370   46.2120 N.3    34  PRO34      -0.2102
     38  CA        36.8880   41.0340   45.1430 C.3    34  PRO34       0.1504
     39  C         35.9840   41.1570   43.9270 C.2    34  PRO34       0.2576
     40  O         36.2120   42.0390   43.0980 O.2    34  PRO34      -0.2718
     41  CB        38.1780   40.2680   44.8050 C.3    34  PRO34       0.0282
     42  CG        37.9610   38.8730   45.3360 C.3    34  PRO34       0.0208
     43  CD        37.0540   39.0260   46.5310 C.3    34  PRO34       0.0893
     44  N         34.9710   40.2910   43.8280 N.am   35  GLN35      -0.1966
     45  CA        33.9940   40.3720   42.7340 C.3    35  GLN35       0.1733
     46  C         33.0460   41.5560   42.9090 C.2    35  GLN35       0.2616
     47  O         32.5720   42.1270   41.9240 O.2    35  GLN35      -0.2715
     48  CB        33.1880   39.0660   42.5770 C.3    35  GLN35       0.0408
     49  CG        32.1550   38.7620   43.6890 C.3    35  GLN35       0.0908
     50  CD        32.7140   37.8750   44.8110 C.2    35  GLN35       0.2608
     51  OE1       33.8630   38.0300   45.2260 O.2    35  GLN35      -0.2717
     52  NE2       31.9000   36.9230   45.2830 N.am   35  GLN35      -0.0878
     53  N         32.7100   41.8770   44.1560 N.am   36  TRP36      -0.1960
     54  CA        31.8870   43.0660   44.4490 C.3    36  TRP36       0.1771
     55  C         32.5850   44.3430   44.9890 C.2    36  TRP36       0.2620
     56  O         31.9740   45.4160   45.0380 O.2    36  TRP36      -0.2715
     57  CB        30.7440   42.6840   45.4090 C.3    36  TRP36       0.0590
     58  CG        30.0260   41.4100   45.0630 C.ar   36  TRP36       0.0006
     59  CD1       30.0210   40.2360   45.7840 C.ar   36  TRP36       0.0946
     60  CD2       29.2000   41.1780   43.9180 C.ar   36  TRP36       0.0152
     61  NE1       29.2450   39.2980   45.1550 N.ar   36  TRP36      -0.2442
     62  CE2       28.7290   39.8470   44.0050 C.ar   36  TRP36       0.0810
     63  CE3       28.8070   41.9690   42.8260 C.ar   36  TRP36       0.0012
     64  CZ2       27.8870   39.2860   43.0390 C.ar   36  TRP36       0.0191
     65  CZ3       27.9730   41.4100   41.8630 C.ar   36  TRP36       0.0001
     66  CH2       27.5210   40.0830   41.9770 C.ar   36  TRP36       0.0015
     67  N         33.8630   44.2600   45.3300 N.am   37  GLU37      -0.1963
     68  CA        34.5270   45.3910   45.9800 C.3    37  GLU37       0.1733
     69  C         35.6400   45.8970   45.0790 C.2    37  GLU37       0.2616
     70  O         36.5470   45.1360   44.7270 O.2    37  GLU37      -0.2715
     71  CB        35.1000   44.9760   47.3450 C.3    37  GLU37       0.0429
     72  CG        34.0400   44.5930   48.3920 C.3    37  GLU37       0.1163
     73  CD        34.5740   43.6750   49.4970 C.2    37  GLU37       0.3649
     74  OE1       35.6170   43.0040   49.2890 O.co2  37  GLU37      -0.2457
     75  OE2       33.9420   43.6140   50.5740 O.co2  37  GLU37      -0.2457
     76  N         35.5740   47.1710   44.6990 N.am   38  ALA38      -0.1977
     77  CA        36.5080   47.7090   43.7050 C.3    38  ALA38       0.1597
     78  C         37.9140   47.8160   44.2800 C.2    38  ALA38       0.2287
     79  O         38.0740   48.1540   45.4480 O.2    38  ALA38      -0.2864
     80  CB        36.0370   49.0680   43.2130 C.3    38  ALA38       0.0319
     81  N         40.5620   51.3090   40.6440 N.3    42  THR42      -0.1218
     82  CA        39.2270   51.5580   40.1360 C.3    42  THR42       0.1862
     83  C         38.5050   52.6090   40.9930 C.2    42  THR42       0.2287
     84  O         37.9140   53.5580   40.4770 O.2    42  THR42      -0.2866
     85  CB        38.4340   50.2360   40.0450 C.3    42  THR42       0.1770
     86  OG1       39.1360   49.3340   39.1760 O.3    42  THR42      -0.2211
     87  CG2       37.0230   50.4680   39.5020 C.3    42  THR42       0.0375
     88  N         36.9330   56.0930   39.5300 N.3    46  TRP46      -0.1241
     89  CA        35.5220   56.4120   39.6940 C.3    46  TRP46       0.1605
     90  C         35.3380   57.6900   40.4980 C.2    46  TRP46       0.2264
     91  O         34.5860   58.5870   40.1090 O.2    46  TRP46      -0.2867
     92  CB        34.8110   55.2520   40.3850 C.3    46  TRP46       0.0550
     93  CG        34.5290   54.0930   39.4640 C.ar   46  TRP46       0.0003
     94  CD1       34.5500   54.1020   38.1000 C.ar   46  TRP46       0.0946
     95  CD2       34.1780   52.7580   39.8520 C.ar   46  TRP46       0.0152
     96  NE1       34.2310   52.8540   37.6130 N.ar   46  TRP46      -0.2442
     97  CE2       34.0020   52.0140   38.6700 C.ar   46  TRP46       0.0810
     98  CE3       33.9980   52.1230   41.0870 C.ar   46  TRP46       0.0012
     99  CZ2       33.6460   50.6670   38.6900 C.ar   46  TRP46       0.0191
    100  CZ3       33.6560   50.7870   41.1030 C.ar   46  TRP46       0.0001
    101  CH2       33.4860   50.0720   39.9150 C.ar   46  TRP46       0.0015
    102  N         22.8760   44.5440   42.8750 N.3   272  VAL272     -0.1245
    103  CA        23.4640   43.2420   42.5710 C.3   272  VAL272      0.1561
    104  C         22.6930   42.1090   43.2380 C.2   272  VAL272      0.2260
    105  O         23.0960   40.9530   43.1350 O.2   272  VAL272     -0.2867
    106  CB        24.9340   43.1690   43.0130 C.3   272  VAL272      0.0252
    107  CG1       25.7770   44.1340   42.1920 C.3   272  VAL272      0.0019
    108  CG2       25.0480   43.4850   44.4930 C.3   272  VAL272      0.0019
    109  N         22.2970   52.1290   44.0390 N.3   297  LEU297     -0.1245
    110  CA        23.2330   51.5320   44.9860 C.3   297  LEU297      0.1561
    111  C         23.8210   50.2500   44.4190 C.2   297  LEU297      0.2260
    112  O         23.0910   49.2930   44.1380 O.2   297  LEU297     -0.2867
    113  CB        22.5360   51.2490   46.3180 C.3   297  LEU297      0.0270
    114  CG        23.3850   50.5980   47.4220 C.3   297  LEU297      0.0019
    115  CD1       24.5120   51.5220   47.8650 C.3   297  LEU297      0.0001
    116  CD2       22.5230   50.1970   48.6230 C.3   297  LEU297      0.0001
    117  N         25.4170   49.2300   41.4650 N.3   298  PRO298     -0.2103
    118  CA        25.1210   48.6480   40.1580 C.3   298  PRO298      0.1489
    119  C         26.1530   47.5750   39.8350 C.2   298  PRO298      0.2417
    120  O         27.3420   47.7480   40.1190 O.2   298  PRO298     -0.2734
    121  CB        25.2210   49.8450   39.2030 C.3   298  PRO298      0.0282
    122  CG        26.0000   50.8690   39.9270 C.3   298  PRO298      0.0208
    123  CD        25.8040   50.6470   41.3900 C.3   298  PRO298      0.0893
    124  N         25.6970   46.4410   39.2910 N.am  299  PRO299     -0.2729
    125  CA        26.6530   45.3870   38.9560 C.3   299  PRO299      0.1401
    126  C         27.7220   45.8730   37.9760 C.2   299  PRO299      0.2269
    127  O         28.8440   45.3610   38.0320 O.2   299  PRO299     -0.2865
    128  CB        25.7810   44.2850   38.3300 C.3   299  PRO299      0.0296
    129  CG        24.4190   44.8740   38.1910 C.3   299  PRO299      0.0237
    130  CD        24.3020   45.9960   39.1500 C.3   299  PRO299      0.0939
    131  N         29.3060   49.5370   36.7170 N.3   301  VAL301     -0.1245
    132  CA        29.2260   50.9710   36.9250 C.3   301  VAL301      0.1561
    133  C         29.4920   51.7280   35.6300 C.2   301  VAL301      0.2260
    134  O         28.7620   52.6580   35.2750 O.2   301  VAL301     -0.2867
    135  CB        30.1960   51.4260   38.0290 C.3   301  VAL301      0.0252
    136  CG1       30.4200   52.9180   37.9520 C.3   301  VAL301      0.0019
    137  CG2       29.6520   51.0250   39.3860 C.3   301  VAL301      0.0019
@<TRIPOS>BOND
     1   134   133    2
     2   133   132    1
     3   131   132    1
     4   132   135    1
     5    96    94   ar
     6    96    97   ar
     7   136   135    1
     8   126   127    2
     9   126   125    1
    10   135   137    1
    11    94    93   ar
    12   129   128    1
    13   129   130    1
    14   128   125    1
    15    97    99   ar
    16    97    95   ar
    17    99   101   ar
    18   125   124    1
    19   130   124    1
    20    86    85    1
    21   121   122    1
    22   121   118    1
    23   124   119   am
    24    93    95   ar
    25    93    92    1
    26    87    85    1
    27    88    89    1
    28    89    92    1
    29    89    90    1
    30   119   120    2
    31   119   118    1
    32    95    98   ar
    33   101   100   ar
    34   122   123    1
    35    85    82    1
    36    91    90    2
    37    82    81    1
    38    82    83    1
    39   118   117    1
    40    84    83    2
    41    98   100   ar
    42   123   117    1
    43    65    66   ar
    44    65    63   ar
    45    47    46    2
    46    66    64   ar
    47   107   106    1
    48    13    12    1
    49   103   102    1
    50   103   106    1
    51   103   104    1
    52    48    45    1
    53    48    49    1
    54    45    46    1
    55    45    44    1
    56    63    60   ar
    57    46    53   am
    58   106   108    1
    59    64    62   ar
    60    40    39    2
    61   105   104    2
    62    80    77    1
    63    49    50    1
    64    77    78    1
    65    77    76    1
    66    12    14    1
    67    12     9    1
    68    44    39   am
    69     1     2    1
    70    60    62   ar
    71    60    58   ar
    72    39    38    1
    73    62    61   ar
    74   109   110    1
    75    36    34    1
    76    35    34    1
    77   112   111    2
    78    53    54    1
    79    78    79    2
    80   111   110    1
    81    54    55    1
    82    54    57    1
    83     4     3    2
    84     9     8    1
    85     9    10    1
    86    76    69   am
    87    34    33    2
    88    70    69    2
    89    41    38    1
    90    41    42    1
    91    50    51    2
    92    50    52   am
    93     3     8   am
    94     3     2    1
    95   110   113    1
    96    55    56    2
    97    55    67   am
    98     2     5    1
    99    58    57    1
   100    58    59   ar
   101    69    68    1
   102    38    37    1
   103    61    59   ar
   104    67    68    1
   105    42    43    1
   106    15    10   am
   107    15    16    1
   108    10    11    2
   109    68    71    1
   110    33    32    1
   111    18    17    2
   112    37    43    1
   113     5     7    1
   114     5     6    1
   115   113   114    1
   116    19    16    1
   117    19    20    1
   118    32    31    1
   119    16    17    1
   120    71    72    1
   121   114   115    1
   122   114   116    1
   123    20    21    1
   124    31    30    1
   125    72    73    1
   126    30    27    1
   127    74    73   ar
   128    21    22    1
   129    29    28    2
   130    73    75   ar
   131    22    23    2
   132    27    28    1
   133    27    26    1
   134    25    23    1
   135    23    24    1
