@<TRIPOS>MOLECULE
tmp/3sqmD00.pdb
 143 134 0 0 0
SMALL
GASTEIGER

@<TRIPOS>ATOM
      1  N         80.4830  -16.0860   -2.9820 N.3    21  ARG21      -0.1245
      2  CA        79.7590  -15.1370   -2.1640 C.3    21  ARG21       0.1563
      3  C         78.2840  -15.0300   -2.5730 C.2    21  ARG21       0.2260
      4  O         77.9530  -15.0180   -3.7560 O.2    21  ARG21      -0.2867
      5  CB        80.4820  -13.7890   -2.2390 C.3    21  ARG21       0.0307
      6  CG        79.7030  -12.6050   -1.7700 C.3    21  ARG21       0.0489
      7  CD        79.4230  -12.5930   -0.2750 C.3    21  ARG21       0.2205
      8  NE        78.7260  -11.3570    0.0340 N.pl3  21  ARG21      -0.0865
      9  CZ        79.3280  -10.1750    0.1070 C.cat  21  ARG21       0.5346
     10  NH1       78.6220   -9.0830    0.3570 N.pl3  21  ARG21       0.1354
     11  NH2       80.6390  -10.0900   -0.0760 N.pl3  21  ARG21       0.1354
     12  N         79.8570  -18.1940    1.1510 N.3    55  ILE55      -0.1245
     13  CA        79.9770  -17.1880    2.2060 C.3    55  ILE55       0.1561
     14  C         78.8530  -16.1390    2.1150 C.2    55  ILE55       0.2260
     15  O         78.6180  -15.5630    1.0690 O.2    55  ILE55      -0.2867
     16  CB        81.3410  -16.4920    2.1960 C.3    55  ILE55       0.0252
     17  CG1       81.3210  -15.3420    3.1830 C.3    55  ILE55       0.0019
     18  CG2       81.6410  -15.9170    0.8220 C.3    55  ILE55       0.0019
     19  CD1       82.6750  -14.7270    3.4040 C.3    55  ILE55       0.0001
     20  N         81.4320  -13.9230    8.0010 N.3    84  ASP84      -0.1239
     21  CA        82.4330  -13.4490    8.9490 C.3    84  ASP84       0.1674
     22  C         81.7020  -12.7670   10.0790 C.2    84  ASP84       0.2266
     23  O         81.2300  -11.6340    9.9540 O.2    84  ASP84      -0.2867
     24  CB        83.4470  -12.4890    8.2990 C.3    84  ASP84       0.1410
     25  CG        82.9450  -11.8750    7.0090 C.2    84  ASP84       0.3668
     26  OD1       81.7280  -11.8260    6.7800 O.co2  84  ASP84      -0.2456
     27  OD2       83.7880  -11.4260    6.2110 O.co2  84  ASP84      -0.2456
     28  N         82.8610  -11.7030   13.5340 N.3    86  GLU86      -0.1245
     29  CA        83.9460  -11.5680   14.4780 C.3    86  GLU86       0.1567
     30  C         83.3310  -11.2100   15.8240 C.2    86  GLU86       0.2260
     31  O         83.6710  -11.7450   16.8820 O.2    86  GLU86      -0.2867
     32  CB        84.9680  -10.5600   13.9440 C.3    86  GLU86       0.0388
     33  CG        85.5860  -11.0390   12.6070 C.3    86  GLU86       0.1160
     34  CD        86.2520   -9.9390   11.7690 C.2    86  GLU86       0.3649
     35  OE1       86.5740   -8.8700   12.3330 O.co2  86  GLU86      -0.2457
     36  OE2       86.4480  -10.1510   10.5410 O.co2  86  GLU86      -0.2457
     37  N         84.2880  -17.4030   10.4150 N.3   138  LEU138     -0.1245
     38  CA        85.6310  -17.0270   10.0200 C.3   138  LEU138      0.1561
     39  C         86.1020  -16.0750   11.0740 C.2   138  LEU138      0.2260
     40  O         85.9250  -14.8670   10.9680 O.2   138  LEU138     -0.2867
     41  CB        85.5650  -16.2410    8.7120 C.3   138  LEU138      0.0270
     42  CG        84.7770  -16.8360    7.5430 C.3   138  LEU138      0.0019
     43  CD1       84.7220  -15.8830    6.3580 C.3   138  LEU138      0.0001
     44  CD2       85.3720  -18.1810    7.1280 C.3   138  LEU138      0.0001
     45  N         92.2160   -1.3200    8.5450 N.3   152  VAL152     -0.1231
     46  CA        91.4310   -2.5390    8.3350 C.3   152  VAL152      0.1692
     47  C         91.2180   -3.4120    9.5780 C.2   152  VAL152      0.2591
     48  O         90.1570   -3.9900    9.7610 O.2   152  VAL152     -0.2718
     49  CB        91.9450   -3.3700    7.1280 C.3   152  VAL152      0.0266
     50  CG1       93.3130   -3.9770    7.4170 C.3   152  VAL152      0.0020
     51  CG2       90.9370   -4.4410    6.7480 C.3   152  VAL152      0.0020
     52  N         92.2080   -3.5100   10.4440 N.am  153  ILE153     -0.1980
     53  CA        92.0780   -4.3890   11.5890 C.3   153  ILE153      0.1595
     54  C         91.6580   -3.6870   12.8720 C.2   153  ILE153      0.2287
     55  O         90.6460   -4.0090   13.4600 O.2   153  ILE153     -0.2864
     56  CB        93.3890   -5.0960   11.8200 C.3   153  ILE153      0.0276
     57  CG1       93.8960   -5.6800   10.5200 C.3   153  ILE153      0.0022
     58  CG2       93.2130   -6.1980   12.7830 C.3   153  ILE153      0.0022
     59  CD1       93.5910   -7.0700   10.3940 C.3   153  ILE153      0.0001
     60  N         89.1870   -4.8280   15.4730 N.3   156  ARG156     -0.1245
     61  CA        88.8410   -6.1940   15.0890 C.3   156  ARG156      0.1563
     62  C         89.7840   -7.2230   15.7070 C.2   156  ARG156      0.2260
     63  O         89.5450   -8.4290   15.5850 O.2   156  ARG156     -0.2867
     64  CB        88.8330   -6.3580   13.5670 C.3   156  ARG156      0.0307
     65  CG        87.7290   -5.5890   12.8520 C.3   156  ARG156      0.0489
     66  CD        87.8860   -5.6720   11.3390 C.3   156  ARG156      0.2205
     67  NE        87.6750   -7.0250   10.8370 N.pl3 156  ARG156     -0.0865
     68  CZ        88.2970   -7.5470    9.7830 C.cat 156  ARG156      0.5346
     69  NH1       89.1920   -6.8370    9.1040 N.pl3 156  ARG156      0.1354
     70  NH2       88.0270   -8.7900    9.4120 N.pl3 156  ARG156      0.1354
     71  N         92.8460  -15.6250   11.1680 N.3   186  LYS186     -0.1231
     72  CA        93.0940  -14.6350   10.1300 C.3   186  LYS186      0.1693
     73  C         93.9180  -13.5170   10.7470 C.2   186  LYS186      0.2592
     74  O         93.7900  -13.2590   11.9410 O.2   186  LYS186     -0.2718
     75  CB        91.7770  -14.0450    9.6410 C.3   186  LYS186      0.0285
     76  CG        90.6500  -15.0450    9.4910 C.3   186  LYS186      0.0035
     77  CD        89.2820  -14.4300    9.8720 C.3   186  LYS186      0.0206
     78  CE        88.9750  -13.1210    9.1410 C.3   186  LYS186      0.1093
     79  NZ        87.5230  -12.7800    9.1640 N.3   186  LYS186     -0.1314
     80  N         94.7420  -12.8300    9.9540 N.am  187  HIS187     -0.1976
     81  CA        94.9580  -13.1480    8.5540 C.3   187  HIS187      0.1656
     82  C         96.4290  -13.4210    8.4060 C.2   187  HIS187      0.2291
     83  O         97.2340  -12.5160    8.5010 O.2   187  HIS187     -0.2864
     84  CB        94.5940  -11.9600    7.6840 C.3   187  HIS187      0.0771
     85  CG        93.2020  -11.4640    7.8990 C.ar  187  HIS187      0.0820
     86  ND1       92.8750  -10.5930    8.9140 N.ar  187  HIS187     -0.2267
     87  CD2       92.0530  -11.7170    7.2300 C.ar  187  HIS187      0.1154
     88  CE1       91.5800  -10.3290    8.8600 C.ar  187  HIS187      0.1986
     89  NE2       91.0580  -10.9930    7.8470 N.ar  187  HIS187     -0.2212
     90  N         98.1830   -9.2910    9.8100 N.3   191  HIS191     -0.1241
     91  CA        97.9550   -8.0040    9.1820 C.3   191  HIS191      0.1621
     92  C         98.2380   -6.9360   10.2110 C.2   191  HIS191      0.2264
     93  O         97.9800   -5.7510    9.9930 O.2   191  HIS191     -0.2867
     94  CB        96.5030   -7.9310    8.7300 C.3   191  HIS191      0.0745
     95  CG        96.2910   -7.1970    7.4430 C.ar  191  HIS191      0.0817
     96  ND1       96.4870   -5.8390    7.3180 N.ar  191  HIS191     -0.2268
     97  CD2       95.8630   -7.6300    6.2330 C.ar  191  HIS191      0.1154
     98  CE1       96.1970   -5.4670    6.0820 C.ar  191  HIS191      0.1986
     99  NE2       95.8160   -6.5350    5.4050 N.ar  191  HIS191     -0.2212
    100  N         94.2930   -4.1770    2.7240 N.3   198  SER198     -0.1202
    101  CA        94.4820   -5.1670    1.6870 C.3   198  SER198      0.2020
    102  C         93.3760   -5.0520    0.6980 C.2   198  SER198      0.2618
    103  O         93.5320   -5.3410   -0.4430 O.2   198  SER198     -0.2717
    104  CB        94.5410   -6.5520    2.2770 C.3   198  SER198      0.2103
    105  OG        95.6800   -6.6620    3.0920 O.3   198  SER198     -0.2182
    106  N         92.2380   -4.6110    1.1620 N.am  199  HIS199     -0.1975
    107  CA        91.0850   -4.4110    0.3250 C.3   199  HIS199      0.1656
    108  C         91.3080   -3.3970   -0.7610 C.2   199  HIS199      0.2291
    109  O         90.8640   -3.5830   -1.8630 O.2   199  HIS199     -0.2864
    110  CB        89.9440   -3.9580    1.1960 C.3   199  HIS199      0.0771
    111  CG        89.3740   -5.0450    2.0330 C.ar  199  HIS199      0.0820
    112  ND1       89.7990   -5.2920    3.3090 N.ar  199  HIS199     -0.2267
    113  CD2       88.4080   -5.9450    1.7750 C.ar  199  HIS199      0.1154
    114  CE1       89.1180   -6.3030    3.8000 C.ar  199  HIS199      0.1986
    115  NE2       88.2720   -6.7220    2.8870 N.ar  199  HIS199     -0.2212
    116  N         92.5530  -15.0830    1.2020 N.3   269  ASP269     -0.1225
    117  CA        91.6070  -14.0550    1.5770 C.3   269  ASP269      0.1805
    118  C         90.8240  -13.8950    0.2990 C.2   269  ASP269      0.2597
    119  O         91.1920  -14.4850   -0.7110 O.2   269  ASP269     -0.2718
    120  CB        92.3420  -12.7650    1.9240 C.3   269  ASP269      0.1424
    121  CG        91.6800  -11.9940    3.0530 C.2   269  ASP269      0.3668
    122  OD1       90.4690  -11.7030    2.9800 O.co2 269  ASP269     -0.2456
    123  OD2       92.3860  -11.6680    4.0230 O.co2 269  ASP269     -0.2456
    124  N         89.7850  -13.0720    0.3070 N.am  270  ALA270     -0.1979
    125  CA        88.9490  -12.9140   -0.8760 C.3   270  ALA270      0.1597
    126  C         89.8020  -12.4850   -2.0520 C.2   270  ALA270      0.2287
    127  O         90.5180  -11.4800   -1.9700 O.2   270  ALA270     -0.2864
    128  CB        87.8760  -11.8960   -0.6210 C.3   270  ALA270      0.0319
    129  N         88.7430  -18.3710   -1.9770 N.3   297  LEU297     -0.1245
    130  CA        87.6370  -17.6040   -1.4600 C.3   297  LEU297      0.1561
    131  C         87.2550  -16.5010   -2.4250 C.2   297  LEU297      0.2260
    132  O         88.0710  -15.6280   -2.7260 O.2   297  LEU297     -0.2867
    133  CB        88.0170  -17.0210   -0.1010 C.3   297  LEU297      0.0270
    134  CG        86.9050  -16.3530    0.6990 C.3   297  LEU297      0.0019
    135  CD1       85.8470  -17.3660    1.0650 C.3   297  LEU297      0.0001
    136  CD2       87.4840  -15.7280    1.9380 C.3   297  LEU297      0.0001
    137  N         86.8520   -3.2010    7.1070 N.3   441  PRO441     -0.2116
    138  CA        87.1360   -3.4510    5.6930 C.3   441  PRO441      0.1372
    139  C         86.7210   -2.2610    4.8250 C.2   441  PRO441      0.2244
    140  O         85.6530   -1.6840    5.0340 O.2   441  PRO441     -0.2868
    141  CB        86.2590   -4.6580    5.3790 C.3   441  PRO441      0.0268
    142  CG        86.1200   -5.3600    6.6510 C.3   441  PRO441      0.0207
    143  CD        86.1290   -4.3290    7.7240 C.3   441  PRO441      0.0892
@<TRIPOS>BOND
     1     4     3    2
     2     1     2    1
     3   132   131    2
     4     3     2    1
     5   131   130    1
     6     5     2    1
     7     5     6    1
     8   126   127    2
     9   126   125    1
    10   129   130    1
    11   109   108    2
    12     6     7    1
    13   130   133    1
    14   125   128    1
    15   125   124    1
    16   108   107    1
    17   119   118    2
    18   103   102    2
    19     7     8    1
    20   133   134    1
    21    11     9    1
    22     8     9    2
    23     9    10    1
    24   118   124   am
    25   118   117    1
    26   107   106    1
    27   107   110    1
    28   102   106   am
    29   102   101    1
    30   134   135    1
    31   134   136    1
    32    18    16    1
    33    15    14    2
    34    12    13    1
    35   110   111    1
    36   116   117    1
    37   117   120    1
    38   101   104    1
    39   101   100    1
    40   113   111   ar
    41   113   115   ar
    42   120   121    1
    43   111   112   ar
    44    14    13    1
    45    16    13    1
    46    16    17    1
    47   104   105    1
    48   115   114   ar
    49   122   121   ar
    50   121   123   ar
    51    17    19    1
    52   112   114   ar
    53   139   140    2
    54   139   138    1
    55   141   138    1
    56   141   142    1
    57    99    98   ar
    58    99    97   ar
    59   138   137    1
    60    98    96   ar
    61    27    25   ar
    62    97    95   ar
    63    43    42    1
    64   142   143    1
    65    51    49    1
    66    26    25   ar
    67    25    24    1
    68   137   143    1
    69    49    50    1
    70    49    46    1
    71    44    42    1
    72    87    89   ar
    73    87    85   ar
    74    96    95   ar
    75    95    94    1
    76    42    41    1
    77    84    85    1
    78    84    81    1
    79    89    88   ar
    80    85    86   ar
    81    20    21    1
    82    24    21    1
    83    46    45    1
    84    46    47    1
    85    82    83    2
    86    82    81    1
    87    81    80    1
    88    41    38    1
    89    94    91    1
    90    88    86   ar
    91    21    22    1
    92    69    68    1
    93    78    79    1
    94    78    77    1
    95    91    90    1
    96    91    92    1
    97    70    68    1
    98    76    75    1
    99    76    77    1
   100    47    48    2
   101    47    52   am
   102    75    72    1
   103    68    67    2
   104    23    22    2
   105    80    73   am
   106    93    92    2
   107    38    37    1
   108    38    39    1
   109    72    73    1
   110    72    71    1
   111    59    57    1
   112    52    53    1
   113    57    56    1
   114    36    34   ar
   115    73    74    2
   116    67    66    1
   117    40    39    2
   118    66    65    1
   119    53    56    1
   120    53    54    1
   121    34    35   ar
   122    34    33    1
   123    56    58    1
   124    33    32    1
   125    65    64    1
   126    54    55    2
   127    28    29    1
   128    64    61    1
   129    32    29    1
   130    29    30    1
   131    61    60    1
   132    61    62    1
   133    63    62    2
   134    30    31    2
