@<TRIPOS>MOLECULE
tmp/3sqmB01.pdb
 103 98 0 0 0
SMALL
GASTEIGER

@<TRIPOS>ATOM
      1  N         80.7390  -91.9070   43.5620 N.3   103  GLY103     -0.1210
      2  CA        81.5210  -93.1230   43.4490 C.3   103  GLY103      0.1956
      3  C         82.8020  -92.9870   44.2410 C.2   103  GLY103      0.2611
      4  O         83.2440  -93.9380   44.8800 O.2   103  GLY103     -0.2717
      5  N         83.3950  -91.7950   44.1960 N.am  104  GLU104     -0.1979
      6  CA        84.6040  -91.4920   44.9500 C.3   104  GLU104      0.1602
      7  C         84.4100  -91.7780   46.4170 C.2   104  GLU104      0.2287
      8  O         85.2430  -92.4170   47.0390 O.2   104  GLU104     -0.2864
      9  CB        84.9800  -90.0290   44.8070 C.3   104  GLU104      0.0415
     10  CG        86.3040  -89.7170   45.4370 C.3   104  GLU104      0.1163
     11  CD        87.4460  -90.3370   44.6520 C.2   104  GLU104      0.3649
     12  OE1       87.3070  -90.4740   43.4110 O.co2 104  GLU104     -0.2457
     13  OE2       88.4760  -90.6940   45.2700 O.co2 104  GLU104     -0.2457
     14  N         84.2210  -95.4990   47.5950 N.3   107  ARG107     -0.1245
     15  CA        85.4280  -96.3070   47.6940 C.3   107  ARG107      0.1563
     16  C         85.7520  -96.6340   49.1510 C.2   107  ARG107      0.2260
     17  O         85.9410  -97.7990   49.5020 O.2   107  ARG107     -0.2867
     18  CB        86.6070  -95.5740   47.0560 C.3   107  ARG107      0.0307
     19  CG        86.5870  -95.4920   45.5220 C.3   107  ARG107      0.0489
     20  CD        87.7460  -94.6230   45.0050 C.3   107  ARG107      0.2205
     21  NE        88.9530  -94.7880   45.8240 N.pl3 107  ARG107     -0.0865
     22  CZ        89.4670  -93.8590   46.6330 C.cat 107  ARG107      0.5346
     23  NH1       88.8970  -92.6650   46.7350 N.pl3 107  ARG107      0.1354
     24  NH2       90.5630  -94.1250   47.3390 N.pl3 107  ARG107      0.1354
     25  N         80.9540  -94.3380   38.4960 N.3   157  GLY157     -0.1210
     26  CA        82.2420  -94.9250   38.8180 C.3   157  GLY157      0.1956
     27  C         82.8770  -95.8250   37.7790 C.2   157  GLY157      0.2611
     28  O         82.4250  -95.8900   36.6410 O.2   157  GLY157     -0.2717
     29  N         83.9640  -96.4870   38.1700 N.am  158  GLU158     -0.1979
     30  CA        84.7030  -97.3670   37.2690 C.3   158  GLU158      0.1602
     31  C         84.4240  -98.8700   37.3690 C.2   158  GLU158      0.2287
     32  O         85.0650  -99.6590   36.6720 O.2   158  GLU158     -0.2864
     33  CB        86.1880  -97.0940   37.3880 C.3   158  GLU158      0.0415
     34  CG        86.4980  -95.6280   37.2610 C.3   158  GLU158      0.1163
     35  CD        87.8400  -95.2700   37.8450 C.2   158  GLU158      0.3649
     36  OE1       88.6950  -96.1760   37.9870 O.co2 158  GLU158     -0.2457
     37  OE2       88.0360  -94.0800   38.1690 O.co2 158  GLU158     -0.2457
     38  N         80.0410 -100.8080   41.9220 N.3   162  GLN162     -0.1245
     39  CA        79.9990  -99.4060   42.3010 C.3   162  GLN162      0.1566
     40  C         78.7950  -98.7010   41.6270 C.2   162  GLN162      0.2260
     41  O         77.9850  -98.0660   42.2840 O.2   162  GLN162     -0.2867
     42  CB        81.3280  -98.7470   41.9140 C.3   162  GLN162      0.0367
     43  CG        81.5900  -97.4050   42.5440 C.3   162  GLN162      0.0905
     44  CD        82.9630  -96.8540   42.1730 C.2   162  GLN162      0.2608
     45  OE1       83.5820  -97.2960   41.2140 O.2   162  GLN162     -0.2717
     46  NE2       83.4370  -95.8780   42.9370 N.am  162  GLN162     -0.0878
     47  N         90.2390  -84.2610   46.5280 N.3   362  LYS362     -0.1245
     48  CA        91.5920  -84.8170   46.5330 C.3   362  LYS362      0.1561
     49  C         92.6200  -83.6870   46.6000 C.2   362  LYS362      0.2260
     50  O         92.4170  -82.6320   45.9960 O.2   362  LYS362     -0.2867
     51  CB        91.8360  -85.6210   45.2600 C.3   362  LYS362      0.0271
     52  CG        91.0660  -86.9200   45.1360 C.3   362  LYS362      0.0035
     53  CD        91.7670  -87.7970   44.1050 C.3   362  LYS362      0.0206
     54  CE        90.7960  -88.6330   43.2880 C.3   362  LYS362      0.1093
     55  NZ        90.5850  -90.0160   43.8140 N.3   362  LYS362     -0.1314
     56  N         89.0600  -86.2370   37.0380 N.3   468  PRO468     -0.2102
     57  CA        90.1760  -86.7280   37.8610 C.3   468  PRO468      0.1504
     58  C         91.3010  -87.3660   37.0660 C.2   468  PRO468      0.2575
     59  O         92.3780  -87.5660   37.6090 O.2   468  PRO468     -0.2718
     60  CB        89.5190  -87.7900   38.7400 C.3   468  PRO468      0.0282
     61  CG        88.4270  -88.3290   37.8960 C.3   468  PRO468      0.0208
     62  CD        87.9060  -87.1510   37.0840 C.3   468  PRO468      0.0893
     63  N         91.0420  -87.7270   35.8150 N.am  469  TYR469     -0.1977
     64  CA        91.9040  -88.6710   35.1080 C.3   469  TYR469      0.1639
     65  C         93.3100  -88.1910   34.7500 C.2   469  TYR469      0.2290
     66  O         94.1860  -89.0010   34.4450 O.2   469  TYR469     -0.2864
     67  CB        91.1800  -89.2670   33.9170 C.3   469  TYR469      0.0560
     68  CG        90.0840  -90.2000   34.3340 C.ar  469  TYR469     -0.0198
     69  CD1       90.3660  -91.3380   35.0530 C.ar  469  TYR469     -0.0009
     70  CD2       88.7610  -89.9420   34.0120 C.ar  469  TYR469     -0.0009
     71  CE1       89.3640  -92.2110   35.4450 C.ar  469  TYR469      0.0417
     72  CE2       87.7400  -90.8080   34.4010 C.ar  469  TYR469      0.0417
     73  CZ        88.0530  -91.9450   35.1160 C.ar  469  TYR469      0.1957
     74  OH        87.0580  -92.8150   35.5050 O.3   469  TYR469     -0.2866
     75  N         95.2690  -86.4880   37.0140 N.3   471  LEU471     -0.1231
     76  CA        95.9960  -86.2560   38.2740 C.3   471  LEU471      0.1693
     77  C         97.2670  -87.0930   38.4250 C.2   471  LEU471      0.2591
     78  O         98.3140  -86.5770   38.8200 O.2   471  LEU471     -0.2718
     79  CB        95.1020  -86.5180   39.4790 C.3   471  LEU471      0.0284
     80  CG        93.9300  -85.5780   39.7270 C.3   471  LEU471      0.0019
     81  CD1       93.0710  -86.1450   40.8480 C.3   471  LEU471      0.0001
     82  CD2       94.4120  -84.1780   40.0560 C.3   471  LEU471      0.0001
     83  N         97.1710  -88.3860   38.1390 N.am  472  GLU472     -0.1979
     84  CA        98.3520  -89.2410   38.1550 C.3   472  GLU472      0.1602
     85  C         99.4870  -88.6400   37.3330 C.2   472  GLU472      0.2287
     86  O        100.6360  -88.6780   37.7480 O.2   472  GLU472     -0.2864
     87  CB        98.0260  -90.6320   37.6200 C.3   472  GLU472      0.0415
     88  CG        97.5040  -91.6100   38.6510 C.3   472  GLU472      0.1163
     89  CD        97.4570  -93.0310   38.1110 C.2   472  GLU472      0.3649
     90  OE1       98.2510  -93.3510   37.1940 O.co2 472  GLU472     -0.2457
     91  OE2       96.6210  -93.8250   38.5950 O.co2 472  GLU472     -0.2457
     92  N         85.4110  -82.6140   41.9640 N.3   487  TYR487     -0.1241
     93  CA        84.5540  -83.0910   40.8980 C.3   487  TYR487      0.1605
     94  C         83.5910  -82.0210   40.4030 C.2   487  TYR487      0.2264
     95  O         83.1880  -82.0320   39.2270 O.2   487  TYR487     -0.2867
     96  CB        83.7590  -84.2890   41.3900 C.3   487  TYR487      0.0534
     97  CG        84.5300  -85.5830   41.3590 C.ar  487  TYR487     -0.0201
     98  CD1       84.6710  -86.2950   40.1740 C.ar  487  TYR487     -0.0009
     99  CD2       85.1050  -86.1060   42.5090 C.ar  487  TYR487     -0.0009
    100  CE1       85.3520  -87.4870   40.1340 C.ar  487  TYR487      0.0417
    101  CE2       85.7880  -87.3080   42.4780 C.ar  487  TYR487      0.0417
    102  CZ        85.9080  -87.9930   41.2830 C.ar  487  TYR487      0.1957
    103  OH        86.5900  -89.1870   41.2220 O.3   487  TYR487     -0.2866
@<TRIPOS>BOND
     1    67    68    1
     2    67    64    1
     3    70    68   ar
     4    70    72   ar
     5    68    69   ar
     6    72    73   ar
     7    66    65    2
     8    65    64    1
     9    69    71   ar
    10    64    63    1
    11    73    71   ar
    12    73    74    1
    13    63    58   am
    14    28    27    2
    15    32    31    2
    16    75    76    1
    17    56    62    1
    18    56    57    1
    19    58    59    2
    20    58    57    1
    21    62    61    1
    22    90    89   ar
    23    34    33    1
    24    34    35    1
    25    30    31    1
    26    30    33    1
    27    30    29    1
    28    85    86    2
    29    85    84    1
    30    87    84    1
    31    87    88    1
    32    27    29   am
    33    27    26    1
    34    35    36   ar
    35    35    37   ar
    36    57    60    1
    37    61    60    1
    38    89    91   ar
    39    89    88    1
    40    83    84    1
    41    83    77   am
    42    76    77    1
    43    76    79    1
    44    77    78    2
    45    25    26    1
    46    95    94    2
    47    79    80    1
    48    80    82    1
    49    80    81    1
    50   100    98   ar
    51   100   102   ar
    52    98    97   ar
    53    94    93    1
    54    93    96    1
    55    93    92    1
    56    45    44    2
    57   103   102    1
    58   102   101   ar
    59    97    96    1
    60    97    99   ar
    61    40    41    2
    62    40    39    1
    63    42    39    1
    64    42    43    1
    65    38    39    1
    66    44    43    1
    67    44    46   am
    68   101    99   ar
    69    54    55    1
    70    54    53    1
    71    12    11   ar
    72     2     1    1
    73     2     3    1
    74    53    52    1
    75     5     3   am
    76     5     6    1
    77     3     4    2
    78    11    13   ar
    79    11    10    1
    80     9     6    1
    81     9    10    1
    82     6     7    1
    83    20    19    1
    84    20    21    1
    85    52    51    1
    86    51    48    1
    87    19    18    1
    88    21    22    2
    89    50    49    2
    90     7     8    2
    91    47    48    1
    92    48    49    1
    93    22    23    1
    94    22    24    1
    95    18    15    1
    96    14    15    1
    97    15    16    1
    98    16    17    2
