@<TRIPOS>MOLECULE
tmp/3sqrA03.pdb
 180 180 0 0 0
SMALL
GASTEIGER

@<TRIPOS>ATOM
      1  N         -7.9140    3.1140  -45.8470 N.3    30  THR30      -0.1203
      2  CA        -7.3390    1.8670  -45.3490 C.3    30  THR30       0.1994
      3  C         -5.8400    1.9930  -45.1820 C.2    30  THR30       0.2618
      4  O         -5.1390    2.4240  -46.1210 O.2    30  THR30      -0.2717
      5  CB        -7.7080    0.7160  -46.2620 C.3    30  THR30       0.1784
      6  OG1       -9.1190    0.5470  -46.1880 O.3    30  THR30      -0.2211
      7  CG2       -7.0270   -0.5390  -45.8120 C.3    30  THR30       0.0376
      8  N         -5.3260    1.6850  -44.0030 N.am   31  ARG31      -0.1965
      9  CA        -3.8970    1.7310  -43.7760 C.3    31  ARG31       0.1729
     10  C         -3.4270    0.3140  -43.4070 C.2    31  ARG31       0.2616
     11  O         -4.0470   -0.3350  -42.5720 O.2    31  ARG31      -0.2715
     12  CB        -3.6030    2.6690  -42.6540 C.3    31  ARG31       0.0348
     13  CG        -3.8400    4.1670  -43.1190 C.3    31  ARG31       0.0492
     14  CD        -3.3170    5.0880  -42.1480 C.3    31  ARG31       0.2205
     15  NE        -3.9740    6.3920  -42.2910 N.pl3  31  ARG31      -0.0865
     16  CZ        -3.6910    7.3030  -43.2170 C.cat  31  ARG31       0.5346
     17  NH1       -2.7480    7.0870  -44.1420 N.pl3  31  ARG31       0.1354
     18  NH2       -4.3660    8.4380  -43.2130 N.pl3  31  ARG31       0.1354
     19  N         -2.3940   -0.1520  -44.0840 N.am   32  GLU32      -0.1963
     20  CA        -1.9410   -1.5020  -43.9390 C.3    32  GLU32       0.1733
     21  C         -0.5420   -1.5660  -43.3250 C.2    32  GLU32       0.2616
     22  O          0.3670   -0.8310  -43.7150 O.2    32  GLU32      -0.2715
     23  CB        -1.9340   -2.1530  -45.3070 C.3    32  GLU32       0.0429
     24  CG        -1.6010   -3.6420  -45.2780 C.3    32  GLU32       0.1163
     25  CD        -1.9380   -4.3580  -46.6020 C.2    32  GLU32       0.3649
     26  OE1       -1.7660   -3.7270  -47.6580 O.co2  32  GLU32      -0.2457
     27  OE2       -2.3600   -5.5250  -46.5470 O.co2  32  GLU32      -0.2457
     28  N         -0.3190   -2.4880  -42.4220 N.am   33  TYR33      -0.1960
     29  CA         0.9290   -2.5960  -41.7020 C.3    33  TYR33       0.1771
     30  C          1.3290   -4.0450  -41.6350 C.2    33  TYR33       0.2619
     31  O          0.4830   -4.9260  -41.5560 O.2    33  TYR33      -0.2715
     32  CB         0.8100   -2.0170  -40.2710 C.3    33  TYR33       0.0574
     33  CG         0.7330   -0.5400  -40.1660 C.ar   33  TYR33      -0.0198
     34  CD1        1.8830    0.2300  -40.0070 C.ar   33  TYR33      -0.0009
     35  CD2       -0.4740    0.0960  -40.1930 C.ar   33  TYR33      -0.0009
     36  CE1        1.7950    1.6310  -39.8880 C.ar   33  TYR33       0.0417
     37  CE2       -0.5660    1.4470  -40.0880 C.ar   33  TYR33       0.0417
     38  CZ         0.5500    2.2150  -39.9460 C.ar   33  TYR33       0.1957
     39  OH         0.3910    3.5640  -39.8510 O.3    33  TYR33      -0.2866
     40  N          2.6360   -4.3160  -41.6440 N.am   34  TRP34      -0.1974
     41  CA         3.1600   -5.6370  -41.4350 C.3    34  TRP34       0.1640
     42  C          4.0200   -5.5760  -40.1950 C.2    34  TRP34       0.2290
     43  O          4.9200   -4.7660  -40.1250 O.2    34  TRP34      -0.2864
     44  CB         3.9760   -6.1320  -42.6590 C.3    34  TRP34       0.0576
     45  CG         3.1700   -6.6150  -43.7790 C.ar   34  TRP34       0.0006
     46  CD1        2.7960   -7.9230  -44.0340 C.ar   34  TRP34       0.0946
     47  CD2        2.6090   -5.8240  -44.8080 C.ar   34  TRP34       0.0152
     48  NE1        2.0080   -7.9740  -45.1740 N.ar   34  TRP34      -0.2442
     49  CE2        1.8940   -6.6950  -45.6670 C.ar   34  TRP34       0.0810
     50  CE3        2.6330   -4.4490  -45.0970 C.ar   34  TRP34       0.0012
     51  CZ2        1.2070   -6.2310  -46.7480 C.ar   34  TRP34       0.0191
     52  CZ3        1.9750   -4.0020  -46.1970 C.ar   34  TRP34       0.0001
     53  CH2        1.2820   -4.8850  -47.0180 C.ar   34  TRP34       0.0015
     54  N         10.4910    1.2870  -28.2730 N.3    59  PRO59      -0.2102
     55  CA         9.1580    0.8210  -28.6860 C.3    59  PRO59       0.1504
     56  C          9.1120    0.2930  -30.1010 C.2    59  PRO59       0.2576
     57  O          9.9850    0.6400  -30.9210 O.2    59  PRO59      -0.2718
     58  CB         8.2880    2.0780  -28.6020 C.3    59  PRO59       0.0282
     59  CG         9.1010    3.1180  -27.9780 C.3    59  PRO59       0.0208
     60  CD        10.5490    2.7470  -28.1350 C.3    59  PRO59       0.0893
     61  N          8.1080   -0.5220  -30.3930 N.am   60  GLY60      -0.1943
     62  CA         7.8220   -0.9320  -31.7440 C.3    60  GLY60       0.1998
     63  C          7.5300    0.2110  -32.6720 C.2    60  GLY60       0.2481
     64  O          7.4150    1.3700  -32.2300 O.2    60  GLY60      -0.2729
     65  N          7.3330   -0.1150  -33.9660 N.am   61  PRO61      -0.2715
     66  CA         6.9430    0.9050  -34.9550 C.3    61  PRO61       0.1536
     67  C          5.6900    1.6400  -34.5630 C.2    61  PRO61       0.2598
     68  O          4.7790    1.0840  -33.9860 O.2    61  PRO61      -0.2715
     69  CB         6.6160    0.0850  -36.2150 C.3    61  PRO61       0.0310
     70  CG         7.2180   -1.1980  -36.0570 C.3    61  PRO61       0.0237
     71  CD         7.4220   -1.4450  -34.5560 C.3    61  PRO61       0.0939
     72  N          5.6400    2.9270  -34.9020 N.am   62  ALA62      -0.1978
     73  CA         4.4150    3.6870  -34.7150 C.3    62  ALA62       0.1597
     74  C          3.3660    3.2870  -35.7480 C.2    62  ALA62       0.2287
     75  O          3.6460    3.1810  -36.9400 O.2    62  ALA62      -0.2864
     76  CB         4.6940    5.1890  -34.8590 C.3    62  ALA62       0.0319
     77  N          0.2040    5.0140  -37.0510 N.3    64  ILE64      -0.1245
     78  CA        -0.3870    6.3620  -37.0600 C.3    64  ILE64       0.1561
     79  C         -1.5080    6.3170  -38.0910 C.2    64  ILE64       0.2260
     80  O         -1.3030    5.9150  -39.2640 O.2    64  ILE64      -0.2867
     81  CB         0.6410    7.4690  -37.2800 C.3    64  ILE64       0.0252
     82  CG1        1.7320    7.4420  -36.1760 C.3    64  ILE64       0.0019
     83  CG2       -0.0450    8.9050  -37.3280 C.3    64  ILE64       0.0019
     84  CD1        2.9370    8.5140  -36.3150 C.3    64  ILE64       0.0001
     85  N          3.5620    2.5810  -30.1140 N.3   145  PRO145     -0.2116
     86  CA         2.5610    3.6170  -30.0290 C.3   145  PRO145      0.1372
     87  C          1.5100    3.4510  -31.1240 C.2   145  PRO145      0.2244
     88  O          1.8290    3.0820  -32.2480 O.2   145  PRO145     -0.2868
     89  CB         3.3680    4.8870  -30.2500 C.3   145  PRO145      0.0268
     90  CG         4.5240    4.4990  -31.1130 C.3   145  PRO145      0.0207
     91  CD         4.7880    3.0100  -30.7950 C.3   145  PRO145      0.0892
     92  N         -1.2320    6.0660  -32.5610 N.3   147  ILE147     -0.1245
     93  CA        -1.6610    7.4720  -32.5300 C.3   147  ILE147      0.1561
     94  C         -2.6960    7.6260  -33.5890 C.2   147  ILE147      0.2260
     95  O         -2.4440    7.2840  -34.7620 O.2   147  ILE147     -0.2867
     96  CB        -0.4970    8.4100  -32.7820 C.3   147  ILE147      0.0252
     97  CG1        0.4450    8.3400  -31.5940 C.3   147  ILE147      0.0019
     98  CG2       -0.9710    9.8150  -32.8440 C.3   147  ILE147      0.0019
     99  CD1        1.7820    9.1370  -31.7960 C.3   147  ILE147      0.0001
    100  N          3.1850   18.3480  -32.6160 N.3   159  ASP159     -0.1225
    101  CA         2.9900   17.0780  -31.9040 C.3   159  ASP159      0.1805
    102  C          4.3210   16.3690  -31.8680 C.2   159  ASP159      0.2598
    103  O          4.7970   15.9340  -32.8980 O.2   159  ASP159     -0.2718
    104  CB         1.9500   16.2900  -32.6890 C.3   159  ASP159      0.1424
    105  CG         1.6130   14.9510  -32.0720 C.2   159  ASP159      0.3668
    106  OD1        2.0570   14.6560  -30.9320 O.co2 159  ASP159     -0.2456
    107  OD2        0.8290   14.2650  -32.7750 O.co2 159  ASP159     -0.2456
    108  N          4.9080   16.2420  -30.6780 N.am  160  VAL160     -0.1966
    109  CA         6.1810   15.5890  -30.4870 C.3   160  VAL160      0.1727
    110  C          6.0270   14.0650  -30.4280 C.2   160  VAL160      0.2617
    111  O          7.0010   13.3180  -30.4550 O.2   160  VAL160     -0.2715
    112  CB         6.9670   16.1620  -29.2850 C.3   160  VAL160      0.0290
    113  CG1        7.1820   17.7110  -29.5170 C.3   160  VAL160      0.0023
    114  CG2        6.3810   15.8860  -27.8950 C.3   160  VAL160      0.0023
    115  N          4.7810   13.6430  -30.2880 N.am  161  GLY161     -0.1940
    116  CA         4.5510   12.2110  -30.2530 C.3   161  GLY161      0.2014
    117  C          4.6080   11.7030  -28.8250 C.2   161  GLY161      0.2639
    118  O          4.4180   12.4240  -27.8110 O.2   161  GLY161     -0.2714
    119  N          4.7350   10.3980  -28.7490 N.am  162  VAL162     -0.1963
    120  CA         4.5970    9.6860  -27.4650 C.3   162  VAL162      0.1727
    121  C          5.8860    9.7800  -26.6730 C.2   162  VAL162      0.2616
    122  O          7.0230    9.8480  -27.2410 O.2   162  VAL162     -0.2715
    123  CB         4.2280    8.2090  -27.7170 C.3   162  VAL162      0.0290
    124  CG1        4.3100    7.3990  -26.4540 C.3   162  VAL162      0.0023
    125  CG2        2.7630    8.0570  -28.2450 C.3   162  VAL162      0.0023
    126  N          5.7400    9.8190  -25.3830 N.am  163  ILE163     -0.1963
    127  CA         6.8680    9.5910  -24.4520 C.3   163  ILE163      0.1727
    128  C          6.4290    8.4540  -23.5570 C.2   163  ILE163      0.2616
    129  O          5.4940    8.5910  -22.7620 O.2   163  ILE163     -0.2715
    130  CB         7.1580   10.8160  -23.5470 C.3   163  ILE163      0.0290
    131  CG1        7.5070   12.0300  -24.4170 C.3   163  ILE163      0.0022
    132  CG2        8.2600   10.4830  -22.5080 C.3   163  ILE163      0.0023
    133  CD1        7.7470   13.3320  -23.6740 C.3   163  ILE163      0.0001
    134  N          7.0260    7.2770  -23.7750 N.am  164  PHE164     -0.1974
    135  CA         6.8060    6.1320  -22.9560 C.3   164  PHE164      0.1639
    136  C          7.5340    6.2250  -21.6360 C.2   164  PHE164      0.2290
    137  O          8.6540    6.7000  -21.5610 O.2   164  PHE164     -0.2864
    138  CB         7.2380    4.8570  -23.6650 C.3   164  PHE164      0.0560
    139  CG         6.3570    4.4970  -24.8290 C.ar  164  PHE164     -0.0200
    140  CD1        5.1010    3.9550  -24.5940 C.ar  164  PHE164     -0.0042
    141  CD2        6.7670    4.6930  -26.1350 C.ar  164  PHE164     -0.0042
    142  CE1        4.2940    3.6260  -25.6240 C.ar  164  PHE164     -0.0003
    143  CE2        5.9640    4.3260  -27.1890 C.ar  164  PHE164     -0.0003
    144  CZ         4.7360    3.7780  -26.9330 C.ar  164  PHE164     -0.0000
    145  N         10.9580    7.0470  -22.9810 N.3   194  ASN194     -0.1240
    146  CA        10.8990    6.8470  -24.4010 C.3   194  ASN194      0.1653
    147  C         11.9890    5.9480  -24.8990 C.2   194  ASN194      0.2266
    148  O         12.5960    6.2250  -25.9150 O.2   194  ASN194     -0.2867
    149  CB        10.8750    8.1580  -25.1520 C.3   194  ASN194      0.1155
    150  CG         9.9640    8.0770  -26.3460 C.2   194  ASN194      0.2627
    151  OD1        8.8730    7.5100  -26.2820 O.2   194  ASN194     -0.2716
    152  ND2       10.4100    8.6150  -27.4290 N.am  194  ASN194     -0.0877
    153  N         16.8600   10.3530  -22.2730 N.3   216  PHE216     -0.1227
    154  CA        15.8640   10.8440  -23.1880 C.3   216  PHE216      0.1736
    155  C         16.0290   12.3580  -23.3110 C.2   216  PHE216      0.2595
    156  O         16.2600   13.0320  -22.3300 O.2   216  PHE216     -0.2718
    157  CB        14.4740   10.6210  -22.6400 C.3   216  PHE216      0.0547
    158  CG        13.3920   11.3550  -23.3830 C.ar  216  PHE216     -0.0202
    159  CD1       13.0800   10.9910  -24.6930 C.ar  216  PHE216     -0.0042
    160  CD2       12.7110   12.4340  -22.8160 C.ar  216  PHE216     -0.0042
    161  CE1       12.0840   11.6240  -25.4030 C.ar  216  PHE216     -0.0003
    162  CE2       11.7000   13.1130  -23.5350 C.ar  216  PHE216     -0.0003
    163  CZ        11.3960   12.7060  -24.8560 C.ar  216  PHE216     -0.0000
    164  N         15.9200   12.8550  -24.5130 N.am  217  GLU217     -0.1965
    165  CA        16.0300   14.3010  -24.7180 C.3   217  GLU217      0.1733
    166  C         14.9260   14.7770  -25.5840 C.2   217  GLU217      0.2616
    167  O         14.5650   14.0880  -26.5710 O.2   217  GLU217     -0.2715
    168  CB        17.3680   14.6240  -25.3790 C.3   217  GLU217      0.0429
    169  CG        17.7080   16.1100  -25.4440 C.3   217  GLU217      0.1163
    170  CD        17.1200   16.8640  -26.6210 C.2   217  GLU217      0.3649
    171  OE1       16.6930   16.2120  -27.6010 O.co2 217  GLU217     -0.2457
    172  OE2       17.0880   18.1240  -26.5580 O.co2 217  GLU217     -0.2457
    173  N         14.4450   15.9680  -25.2790 N.am  218  LEU218     -0.1977
    174  CA        13.3470   16.6130  -25.9440 C.3   218  LEU218      0.1596
    175  C         13.7740   18.0920  -26.1080 C.2   218  LEU218      0.2287
    176  O         14.1890   18.6770  -25.1280 O.2   218  LEU218     -0.2864
    177  CB        12.0970   16.5630  -25.0500 C.3   218  LEU218      0.0297
    178  CG        10.8640   17.2650  -25.6040 C.3   218  LEU218      0.0022
    179  CD1       10.4930   16.9000  -27.0800 C.3   218  LEU218      0.0001
    180  CD2        9.6740   17.1620  -24.6420 C.3   218  LEU218      0.0001
@<TRIPOS>BOND
     1    26    25   ar
     2    53    51   ar
     3    53    52   ar
     4    51    49   ar
     5    25    27   ar
     6    25    24    1
     7     5     6    1
     8     5     7    1
     9     5     2    1
    10    52    50   ar
    11     4     3    2
    12     1     2    1
    13    49    48   ar
    14    49    47   ar
    15     2     3    1
    16    23    24    1
    17    23    20    1
    18     3     8   am
    19    48    46   ar
    20    50    47   ar
    21    47    45   ar
    22    17    16    1
    23    19    20    1
    24    19    10   am
    25    46    45   ar
    26     8     9    1
    27    20    21    1
    28    45    44    1
    29     9    10    1
    30     9    12    1
    31    22    21    2
    32    10    11    2
    33    21    28   am
    34    16    18    1
    35    16    15    2
    36    13    12    1
    37    13    14    1
    38    44    41    1
    39    28    29    1
    40    15    14    1
    41    29    30    1
    42    29    32    1
    43    40    30   am
    44    40    41    1
    45    30    31    2
    46    41    42    1
    47    32    33    1
    48    42    43    2
    49    35    33   ar
    50    35    37   ar
    51    33    34   ar
    52    37    38   ar
    53    34    36   ar
    54    38    36   ar
    55    38    39    1
    56    80    79    2
    57    79    78    1
    58    83    81    1
    59    81    78    1
    60    81    82    1
    61    78    77    1
    62    75    74    2
    63    84    82    1
    64    69    70    1
    65    69    66    1
    66    70    71    1
    67    74    73    1
    68    66    67    1
    69    66    65    1
    70    72    73    1
    71    72    67   am
    72    76    73    1
    73    95    94    2
    74    67    68    2
    75    71    65    1
    76    65    63   am
    77    94    93    1
    78   103   102    2
    79    98    96    1
    80    96    93    1
    81    96    97    1
    82   107   105   ar
    83   104   105    1
    84   104   101    1
    85    63    64    2
    86    63    62    1
    87   100   101    1
    88    92    93    1
    89    88    87    2
    90   105   106   ar
    91   101   102    1
    92   102   108   am
    93    99    97    1
    94    62    61    1
    95    87    86    1
    96    90    91    1
    97    90    89    1
    98    57    56    2
    99    91    85    1
   100   108   109    1
   101   109   110    1
   102   109   112    1
   103   111   110    2
   104   110   115   am
   105    61    56   am
   106   115   116    1
   107   116   117    1
   108    89    86    1
   109    85    86    1
   110    56    55    1
   111   113   112    1
   112   112   114    1
   113   117   119   am
   114   117   118    2
   115   119   120    1
   116    55    58    1
   117    55    54    1
   118    58    59    1
   119    54    60    1
   120   125   123    1
   121    60    59    1
   122   123   120    1
   123   123   124    1
   124   171   170   ar
   125   120   121    1
   126   152   150   am
   127   122   121    2
   128   143   144   ar
   129   143   141   ar
   130   179   178    1
   131   144   142   ar
   132   121   126   am
   133   170   172   ar
   134   170   169    1
   135   167   166    2
   136   150   151    2
   137   150   149    1
   138   141   139   ar
   139   175   174    1
   140   175   176    2
   141   174   173    1
   142   174   177    1
   143   148   147    2
   144   142   140   ar
   145   178   177    1
   146   178   180    1
   147   166   173   am
   148   166   165    1
   149   169   168    1
   150   161   163   ar
   151   161   159   ar
   152   126   127    1
   153   168   165    1
   154   149   146    1
   155   147   146    1
   156   163   162   ar
   157   139   140   ar
   158   139   138    1
   159   165   164    1
   160   159   158   ar
   161   164   155   am
   162   127   128    1
   163   127   130    1
   164   131   133    1
   165   131   130    1
   166   146   145    1
   167   134   128   am
   168   134   135    1
   169   138   135    1
   170   128   129    2
   171   130   132    1
   172   162   160   ar
   173   158   160   ar
   174   158   157    1
   175   155   154    1
   176   155   156    2
   177   154   157    1
   178   154   153    1
   179   135   136    1
   180   136   137    2
