@<TRIPOS>MOLECULE
tmp/3sqrA02.pdb
 183 183 0 0 0
SMALL
GASTEIGER

@<TRIPOS>ATOM
      1  N         12.3870  -11.8920  -31.6050 N.3    39  ASN39      -0.1240
      2  CA        13.2570  -12.1590  -30.5200 C.3    39  ASN39       0.1653
      3  C         14.5680  -11.4440  -30.7660 C.2    39  ASN39       0.2266
      4  O         15.2910  -11.7740  -31.6990 O.2    39  ASN39      -0.2867
      5  CB        13.3800  -13.6780  -30.4090 C.3    39  ASN39       0.1155
      6  CG        13.9530  -14.1080  -29.1000 C.2    39  ASN39       0.2627
      7  OD1       14.5810  -13.3470  -28.3300 O.2    39  ASN39      -0.2716
      8  ND2       13.7550  -15.3960  -28.8270 N.am   39  ASN39      -0.0877
      9  N         11.6390   -8.9060  -26.6230 N.3    52  MET52      -0.1245
     10  CA        10.6170   -9.3080  -27.5300 C.3    52  MET52       0.1570
     11  C          9.9890   -8.0640  -28.0920 C.2    52  MET52       0.2261
     12  O          9.4310   -7.2390  -27.3400 O.2    52  MET52      -0.2867
     13  CB         9.5670  -10.1510  -26.8320 C.3    52  MET52       0.0387
     14  CG        10.1810  -11.3040  -26.1500 C.3    52  MET52       0.0595
     15  SD         8.9770  -12.5110  -25.5780 S.3    52  MET52      -0.1393
     16  CE        10.0610  -13.6730  -24.6950 C.3    52  MET52       0.0692
     17  N          9.4290  -19.7410  -29.2580 N.3    81  HIS81      -0.1226
     18  CA         9.0110  -20.4830  -28.0410 C.3    81  HIS81       0.1752
     19  C          7.8400  -19.8590  -27.2610 C.2    81  HIS81       0.2596
     20  O          7.6110  -20.2200  -26.1140 O.2    81  HIS81      -0.2718
     21  CB        10.2270  -20.6860  -27.1100 C.3    81  HIS81       0.0759
     22  CG        11.3590  -21.4190  -27.7590 C.ar   81  HIS81       0.0818
     23  ND1       11.1800  -22.6000  -28.4470 N.ar   81  HIS81      -0.2268
     24  CD2       12.6750  -21.1250  -27.8480 C.ar   81  HIS81       0.1154
     25  CE1       12.3460  -23.0020  -28.9350 C.ar   81  HIS81       0.1986
     26  NE2       13.2710  -22.1290  -28.5830 N.ar   81  HIS81      -0.2212
     27  N          7.1660  -18.8590  -27.8470 N.am   82  ASN82      -0.1960
     28  CA         5.9240  -18.3190  -27.2810 C.3    82  ASN82       0.1819
     29  C          4.9250  -18.1530  -28.4090 C.2    82  ASN82       0.2621
     30  O          5.3140  -17.7530  -29.5230 O.2    82  ASN82      -0.2715
     31  CB         6.0720  -16.8760  -26.6980 C.3    82  ASN82       0.1195
     32  CG         6.8060  -16.7520  -25.4130 C.2    82  ASN82       0.2630
     33  OD1        7.0630  -15.6480  -25.0110 O.2    82  ASN82      -0.2716
     34  ND2        7.1430  -17.8500  -24.7330 N.am   82  ASN82      -0.0877
     35  N          3.6510  -18.3910  -28.1320 N.am   83  GLY83      -0.1954
     36  CA         2.5700  -17.7730  -28.8750 C.3    83  GLY83       0.1869
     37  C          2.6760  -16.2490  -28.6710 C.2    83  GLY83       0.2309
     38  O          3.4500  -15.7800  -27.8820 O.2    83  GLY83      -0.2863
     39  N         -0.2540  -11.4100  -24.4070 N.3   134  PHE134     -0.1227
     40  CA         0.0790  -12.8080  -24.1740 C.3   134  PHE134      0.1736
     41  C          1.1020  -12.8340  -23.0550 C.2   134  PHE134      0.2596
     42  O          2.2860  -12.4230  -23.2080 O.2   134  PHE134     -0.2718
     43  CB         0.6310  -13.4200  -25.4380 C.3   134  PHE134      0.0547
     44  CG         1.0320  -14.8530  -25.2970 C.ar  134  PHE134     -0.0202
     45  CD1        2.2690  -15.1630  -24.7820 C.ar  134  PHE134     -0.0042
     46  CD2        0.1960  -15.8350  -25.7230 C.ar  134  PHE134     -0.0042
     47  CE1        2.6740  -16.4820  -24.6760 C.ar  134  PHE134     -0.0003
     48  CE2        0.5680  -17.1860  -25.6270 C.ar  134  PHE134     -0.0003
     49  CZ         1.8100  -17.4900  -25.0800 C.ar  134  PHE134     -0.0000
     50  N          0.6130  -13.1790  -21.8720 N.am  135  SER135     -0.1952
     51  CA         1.4820  -13.3150  -20.7200 C.3   135  SER135      0.1924
     52  C          2.3230  -12.0280  -20.5320 C.2   135  SER135      0.2314
     53  O          1.7670  -10.9160  -20.7020 O.2   135  SER135     -0.2863
     54  CB         2.3090  -14.6550  -20.7970 C.3   135  SER135      0.2116
     55  OG         3.1800  -14.7690  -19.6630 O.3   135  SER135     -0.2180
     56  N         15.1510  -10.8030  -19.1070 N.3   172  SER172     -0.1217
     57  CA        13.7790  -11.0510  -19.5400 C.3   172  SER172      0.1889
     58  C         12.9310  -11.1960  -18.3050 C.2   172  SER172      0.2288
     59  O         13.2860  -11.9040  -17.3720 O.2   172  SER172     -0.2866
     60  CB        13.6720  -12.3360  -20.3290 C.3   172  SER172      0.2089
     61  OG        12.3230  -12.7200  -20.6760 O.3   172  SER172     -0.2183
     62  N         10.5560  -13.0130  -18.1120 N.3   174  PHE174     -0.1227
     63  CA        10.2520  -14.4500  -18.0170 C.3   174  PHE174      0.1736
     64  C         11.2570  -15.2070  -17.1440 C.2   174  PHE174      0.2595
     65  O         10.9430  -16.3220  -16.6640 O.2   174  PHE174     -0.2718
     66  CB        10.1120  -15.1240  -19.3610 C.3   174  PHE174      0.0547
     67  CG         8.9580  -14.6190  -20.1580 C.ar  174  PHE174     -0.0202
     68  CD1        7.6780  -15.0110  -19.8220 C.ar  174  PHE174     -0.0042
     69  CD2        9.1530  -13.7450  -21.1990 C.ar  174  PHE174     -0.0042
     70  CE1        6.6020  -14.5660  -20.5010 C.ar  174  PHE174     -0.0003
     71  CE2        8.0720  -13.2510  -21.9230 C.ar  174  PHE174     -0.0003
     72  CZ         6.7880  -13.6910  -21.5940 C.ar  174  PHE174     -0.0000
     73  N         12.4210  -14.6200  -16.9320 N.am  175  GLU175     -0.1979
     74  CA        13.4060  -15.1980  -16.0010 C.3   175  GLU175      0.1602
     75  C         13.0960  -14.9430  -14.5450 C.2   175  GLU175      0.2287
     76  O         13.5980  -15.6600  -13.6360 O.2   175  GLU175     -0.2864
     77  CB        14.7890  -14.6770  -16.3520 C.3   175  GLU175      0.0415
     78  CG        15.1290  -15.1900  -17.7330 C.3   175  GLU175      0.1163
     79  CD        16.5680  -15.4730  -17.9820 C.2   175  GLU175      0.3649
     80  OE1       17.4120  -14.6320  -17.5870 O.co2 175  GLU175     -0.2457
     81  OE2       16.8270  -16.5030  -18.6690 O.co2 175  GLU175     -0.2457
     82  N          9.7640  -14.3640  -13.3780 N.3   177  TRP177     -0.1227
     83  CA         8.3630  -14.6080  -13.0550 C.3   177  TRP177      0.1737
     84  C          8.2450  -15.6370  -11.9340 C.2   177  TRP177      0.2595
     85  O          7.3950  -15.5250  -11.0460 O.2   177  TRP177     -0.2718
     86  CB         7.6320  -15.0990  -14.3030 C.3   177  TRP177      0.0564
     87  CG         6.3670  -15.8390  -14.1040 C.ar  177  TRP177      0.0003
     88  CD1        6.1420  -17.1320  -14.4640 C.ar  177  TRP177      0.0946
     89  CD2        5.1540  -15.3910  -13.4730 C.ar  177  TRP177      0.0152
     90  NE1        4.9000  -17.5110  -14.1170 N.ar  177  TRP177     -0.2442
     91  CE2        4.2510  -16.4630  -13.5160 C.ar  177  TRP177      0.0810
     92  CE3        4.7430  -14.2070  -12.8950 C.ar  177  TRP177      0.0012
     93  CZ2        2.9680  -16.3800  -12.9880 C.ar  177  TRP177      0.0191
     94  CZ3        3.4770  -14.1440  -12.3400 C.ar  177  TRP177      0.0001
     95  CH2        2.5910  -15.2030  -12.4460 C.ar  177  TRP177      0.0015
     96  N          9.0820  -16.6710  -11.9720 N.am  178  ASP178     -0.1960
     97  CA         8.9760  -17.6690  -10.8910 C.3   178  ASP178      0.1840
     98  C          9.2570  -17.0780   -9.5050 C.2   178  ASP178      0.2622
     99  O          8.5940  -17.4350   -8.5100 O.2   178  ASP178     -0.2715
    100  CB         9.8330  -18.9190  -11.2000 C.3   178  ASP178      0.1450
    101  CG         9.2790  -19.7210  -12.3220 C.2   178  ASP178      0.3671
    102  OD1        8.0540  -19.9520  -12.3630 O.co2 178  ASP178     -0.2456
    103  OD2       10.0620  -20.1580  -13.1930 O.co2 178  ASP178     -0.2456
    104  N         10.1840  -16.1340   -9.4100 N.am  179  THR179     -0.1951
    105  CA        10.3570  -15.3730   -8.1570 C.3   179  THR179      0.1897
    106  C          9.1650  -14.4410   -7.9380 C.2   179  THR179      0.2313
    107  O          8.5910  -14.3940   -6.8440 O.2   179  THR179     -0.2863
    108  CB        11.6150  -14.5480   -8.1630 C.3   179  THR179      0.1794
    109  OG1       12.7210  -15.4190   -8.4220 O.3   179  THR179     -0.2208
    110  CG2       11.7990  -13.8040   -6.8300 C.3   179  THR179      0.0378
    111  N         -5.8080  -21.1770  -23.6150 N.3   378  TRP378     -0.1241
    112  CA        -5.4830  -20.5190  -24.8760 C.3   378  TRP378      0.1605
    113  C         -6.0500  -21.2380  -26.0840 C.2   378  TRP378      0.2264
    114  O         -6.3490  -20.6140  -27.1040 O.2   378  TRP378     -0.2867
    115  CB        -3.9850  -20.4280  -24.9800 C.3   378  TRP378      0.0550
    116  CG        -3.3440  -19.3230  -24.1900 C.ar  378  TRP378      0.0003
    117  CD1       -3.8800  -18.0900  -23.8500 C.ar  378  TRP378      0.0946
    118  CD2       -2.0330  -19.3320  -23.6610 C.ar  378  TRP378      0.0152
    119  NE1       -2.9870  -17.3710  -23.1490 N.ar  378  TRP378     -0.2442
    120  CE2       -1.8260  -18.0850  -23.0220 C.ar  378  TRP378      0.0810
    121  CE3       -0.9810  -20.2560  -23.6860 C.ar  378  TRP378      0.0012
    122  CZ2       -0.6160  -17.7620  -22.3950 C.ar  378  TRP378      0.0191
    123  CZ3        0.1940  -19.9270  -23.0300 C.ar  378  TRP378      0.0001
    124  CH2        0.3810  -18.6900  -22.4310 C.ar  378  TRP378      0.0015
    125  N         -2.3650  -22.9650  -33.6330 N.3   523  TRP523     -0.1241
    126  CA        -1.9700  -23.0320  -32.2460 C.3   523  TRP523      0.1605
    127  C         -1.9630  -24.4910  -31.7060 C.2   523  TRP523      0.2264
    128  O         -1.0660  -24.8980  -31.0190 O.2   523  TRP523     -0.2867
    129  CB        -2.9400  -22.2000  -31.3710 C.3   523  TRP523      0.0550
    130  CG        -2.4910  -22.1770  -29.9460 C.ar  523  TRP523      0.0003
    131  CD1       -3.1770  -22.6400  -28.9010 C.ar  523  TRP523      0.0946
    132  CD2       -1.2520  -21.6880  -29.4320 C.ar  523  TRP523      0.0152
    133  NE1       -2.4840  -22.4780  -27.7650 N.ar  523  TRP523     -0.2442
    134  CE2       -1.2700  -21.9090  -28.0460 C.ar  523  TRP523      0.0810
    135  CE3       -0.1160  -21.1320  -30.0020 C.ar  523  TRP523      0.0012
    136  CZ2       -0.1980  -21.5990  -27.2140 C.ar  523  TRP523      0.0191
    137  CZ3        0.9450  -20.8180  -29.1750 C.ar  523  TRP523      0.0001
    138  CH2        0.9170  -21.0470  -27.8060 C.ar  523  TRP523      0.0015
    139  N          0.8590  -26.4260  -32.6010 N.3   526  TYR526     -0.1241
    140  CA         2.0760  -26.0240  -31.9120 C.3   526  TYR526      0.1605
    141  C          2.2040  -26.5850  -30.5210 C.2   526  TYR526      0.2264
    142  O          3.2910  -26.8850  -30.0850 O.2   526  TYR526     -0.2867
    143  CB         2.1360  -24.4760  -31.7850 C.3   526  TYR526      0.0534
    144  CG         3.2240  -23.9840  -30.9040 C.ar  526  TYR526     -0.0201
    145  CD1        4.5550  -23.9570  -31.3430 C.ar  526  TYR526     -0.0009
    146  CD2        2.9600  -23.4830  -29.6280 C.ar  526  TYR526     -0.0009
    147  CE1        5.5260  -23.5110  -30.5290 C.ar  526  TYR526      0.0417
    148  CE2        3.9570  -23.0320  -28.8180 C.ar  526  TYR526      0.0417
    149  CZ         5.2240  -23.0190  -29.2520 C.ar  526  TYR526      0.1957
    150  OH         6.1710  -22.5400  -28.3710 O.3   526  TYR526     -0.2866
    151  N          7.5380  -24.5390  -23.7600 N.3   532  PHE532     -0.1227
    152  CA         6.9600  -23.9600  -22.5470 C.3   532  PHE532      0.1736
    153  C          5.4620  -23.9680  -22.5590 C.2   532  PHE532      0.2595
    154  O          4.8290  -23.6150  -23.5640 O.2   532  PHE532     -0.2718
    155  CB         7.4450  -22.5440  -22.3880 C.3   532  PHE532      0.0547
    156  CG         8.9080  -22.4210  -22.3910 C.ar  532  PHE532     -0.0202
    157  CD1        9.6580  -22.8400  -21.3050 C.ar  532  PHE532     -0.0042
    158  CD2        9.5620  -21.8810  -23.4840 C.ar  532  PHE532     -0.0042
    159  CE1       11.0450  -22.7110  -21.3300 C.ar  532  PHE532     -0.0003
    160  CE2       10.9280  -21.7590  -23.4970 C.ar  532  PHE532     -0.0003
    161  CZ        11.6590  -22.1800  -22.4380 C.ar  532  PHE532     -0.0000
    162  N          4.8990  -24.4340  -21.4530 N.am  533  ALA533     -0.1966
    163  CA         3.4750  -24.4650  -21.2750 C.3   533  ALA533      0.1728
    164  C          3.1030  -23.1040  -20.6790 C.2   533  ALA533      0.2616
    165  O          3.9560  -22.4050  -20.1160 O.2   533  ALA533     -0.2715
    166  CB         3.0600  -25.5650  -20.2890 C.3   533  ALA533      0.0334
    167  N          1.8260  -22.7960  -20.7800 N.am  534  GLU534     -0.1963
    168  CA         1.1990  -21.7420  -20.0070 C.3   534  GLU534      0.1733
    169  C          1.5440  -21.9060  -18.5330 C.2   534  GLU534      0.2616
    170  O          1.4640  -23.0100  -17.9670 O.2   534  GLU534     -0.2715
    171  CB        -0.3350  -21.7940  -20.1590 C.3   534  GLU534      0.0429
    172  CG        -1.0640  -20.6030  -19.5700 C.3   534  GLU534      0.1163
    173  CD        -2.5850  -20.7080  -19.7250 C.2   534  GLU534      0.3649
    174  OE1       -3.0980  -21.8360  -20.0610 O.co2 534  GLU534     -0.2457
    175  OE2       -3.2860  -19.6960  -19.4790 O.co2 534  GLU534     -0.2457
    176  N          1.9650  -20.8290  -17.8980 N.am  535  ASP535     -0.1971
    177  CA         2.3970  -20.8900  -16.5070 C.3   535  ASP535      0.1709
    178  C          1.9270  -19.6310  -15.7690 C.2   535  ASP535      0.2293
    179  O          2.4710  -19.2450  -14.7750 O.2   535  ASP535     -0.2864
    180  CB         3.9180  -21.2180  -16.3520 C.3   535  ASP535      0.1436
    181  CG         4.7970  -20.0310  -16.5410 C.2   535  ASP535      0.3671
    182  OD1        4.3470  -19.1430  -17.2960 O.co2 535  ASP535     -0.2456
    183  OD2        5.9100  -19.9800  -15.9590 O.co2 535  ASP535     -0.2456
@<TRIPOS>BOND
     1   125   126    1
     2   139   140    1
     3   126   127    1
     4   126   129    1
     5   140   143    1
     6   140   141    1
     7   143   144    1
     8   127   128    2
     9     4     3    2
    10     1     2    1
    11   129   130    1
    12   145   144   ar
    13   145   147   ar
    14   144   146   ar
    15     3     2    1
    16   147   149   ar
    17   141   142    2
    18     2     5    1
    19     5     6    1
    20   135   132   ar
    21   135   137   ar
    22   130   132   ar
    23   130   131   ar
    24   146   148   ar
    25    30    29    2
    26   132   134   ar
    27    17    18    1
    28   149   148   ar
    29   149   150    1
    30   137   138   ar
    31     6     8   am
    32     6     7    2
    33    25    26   ar
    34    25    23   ar
    35   131   133   ar
    36    36    37    1
    37    36    35    1
    38    37    38    2
    39    26    24   ar
    40    23    22   ar
    41    29    35   am
    42    29    28    1
    43    11    10    1
    44    11    12    2
    45   134   133   ar
    46   134   136   ar
    47    18    19    1
    48    18    21    1
    49    24    22   ar
    50    27    28    1
    51    27    19   am
    52   138   136   ar
    53    22    21    1
    54    10    13    1
    55    10     9    1
    56    28    31    1
    57    19    20    2
    58   114   113    2
    59    13    14    1
    60    31    32    1
    61    14    15    1
    62   113   112    1
    63    46    48   ar
    64    46    44   ar
    65    48    49   ar
    66    15    16    1
    67    43    44    1
    68    43    40    1
    69    32    33    2
    70    32    34   am
    71    44    45   ar
    72    49    47   ar
    73   115   112    1
    74   115   116    1
    75   112   111    1
    76    45    47   ar
    77    39    40    1
    78   116   117   ar
    79   116   118   ar
    80    40    41    1
    81   117   119   ar
    82   151   152    1
    83   121   118   ar
    84   121   123   ar
    85   118   120   ar
    86   154   153    2
    87   160   158   ar
    88   160   161   ar
    89   158   156   ar
    90    42    41    2
    91   119   120   ar
    92    41    50   am
    93   123   124   ar
    94   120   122   ar
    95   153   152    1
    96   153   162   am
    97   152   155    1
    98   161   159   ar
    99   124   122   ar
   100   156   155    1
   101   156   157   ar
   102    71    72   ar
   103    71    69   ar
   104    50    51    1
   105    72    70   ar
   106   162   163    1
   107   159   157   ar
   108   163   164    1
   109   163   166    1
   110    69    67   ar
   111    54    51    1
   112    54    55    1
   113   167   164   am
   114   167   168    1
   115    51    52    1
   116    53    52    2
   117   164   165    2
   118    61    60    1
   119    70    68   ar
   120    60    57    1
   121   171   168    1
   122   171   172    1
   123    67    68   ar
   124    67    66    1
   125   174   173   ar
   126   168   169    1
   127   173   172    1
   128   173   175   ar
   129    57    56    1
   130    57    58    1
   131    66    63    1
   132    81    79   ar
   133   169   170    2
   134   169   176   am
   135    58    59    2
   136    62    63    1
   137    63    64    1
   138    79    78    1
   139    79    80   ar
   140   176   177    1
   141    78    77    1
   142   182   181   ar
   143    64    73   am
   144    64    65    2
   145    73    74    1
   146   181   180    1
   147   181   183   ar
   148   177   180    1
   149   177   178    1
   150    77    74    1
   151    74    75    1
   152   178   179    2
   153    75    76    2
   154    88    90   ar
   155    88    87   ar
   156    86    87    1
   157    86    83    1
   158    90    91   ar
   159    87    89   ar
   160    91    89   ar
   161    91    93   ar
   162    89    92   ar
   163    82    83    1
   164   103   101   ar
   165    83    84    1
   166    93    95   ar
   167    92    94   ar
   168    95    94   ar
   169   102   101   ar
   170   101   100    1
   171    96    84   am
   172    96    97    1
   173    84    85    2
   174   100    97    1
   175    97    98    1
   176    98   104   am
   177    98    99    2
   178   104   105    1
   179   109   108    1
   180   108   105    1
   181   108   110    1
   182   105   106    1
   183   106   107    2
