@<TRIPOS>MOLECULE
tmp/3sqyA01.pdb
 128 122 0 0 0
SMALL
GASTEIGER

@<TRIPOS>ATOM
      1  N         -2.5020   25.0810    0.4310 N.3     5  LEU5       -0.1231
      2  CA        -3.7220   25.4150   -0.2800 C.3     5  LEU5        0.1693
      3  C         -3.3130   25.5030   -1.7390 C.2     5  LEU5        0.2592
      4  O         -2.4180   26.2660   -2.0710 O.2     5  LEU5       -0.2718
      5  CB        -4.2360   26.7700    0.2240 C.3     5  LEU5        0.0284
      6  CG        -5.5510   27.3650   -0.2620 C.3     5  LEU5        0.0019
      7  CD1       -6.6940   26.3650   -0.1600 C.3     5  LEU5        0.0001
      8  CD2       -5.8680   28.6060    0.5740 C.3     5  LEU5        0.0001
      9  N         -3.9310   24.7050   -2.6050 N.am    6  VAL6       -0.1966
     10  CA        -3.5600   24.6930   -4.0280 C.3     6  VAL6        0.1727
     11  C         -4.7350   24.2740   -4.9060 C.2     6  VAL6        0.2616
     12  O         -5.5830   23.4940   -4.4780 O.2     6  VAL6       -0.2715
     13  CB        -2.3430   23.7490   -4.2740 C.3     6  VAL6        0.0290
     14  CG1       -2.6550   22.2820   -3.8800 C.3     6  VAL6        0.0023
     15  CG2       -1.8430   23.8360   -5.7150 C.3     6  VAL6        0.0023
     16  N         -4.7610   24.7830   -6.1330 N.am    7  ALA7       -0.1977
     17  CA        -5.6130   24.2380   -7.1760 C.3     7  ALA7        0.1597
     18  C         -4.7030   23.6640   -8.2570 C.2     7  ALA7        0.2287
     19  O         -3.8280   24.3560   -8.7730 O.2     7  ALA7       -0.2864
     20  CB        -6.5070   25.3200   -7.7550 C.3     7  ALA7        0.0319
     21  N          2.5480   33.2270  -15.0930 N.3    18  ASN18      -0.1225
     22  CA         2.3130   33.9550  -13.8380 C.3    18  ASN18       0.1785
     23  C          0.8440   34.2660  -13.5540 C.2    18  ASN18       0.2597
     24  O          0.5150   35.2070  -12.8140 O.2    18  ASN18      -0.2718
     25  CB         3.2010   35.2050  -13.7460 C.3    18  ASN18       0.1169
     26  CG         4.6550   34.8570  -13.4700 C.2    18  ASN18       0.2627
     27  OD1        4.9260   33.9160  -12.7290 O.2    18  ASN18      -0.2716
     28  ND2        5.5860   35.6400  -14.0220 N.am   18  ASN18      -0.0877
     29  N         -0.0300   33.4490  -14.1360 N.am   19  GLN19      -0.1965
     30  CA        -1.4620   33.4870  -13.8340 C.3    19  GLN19       0.1733
     31  C         -2.0020   32.0740  -13.6950 C.2    19  GLN19       0.2616
     32  O         -1.3000   31.0970  -13.9500 O.2    19  GLN19      -0.2715
     33  CB        -2.2460   34.2050  -14.9380 C.3    19  GLN19       0.0408
     34  CG        -2.0850   35.7110  -14.9920 C.3    19  GLN19       0.0908
     35  CD        -3.1240   36.3410  -15.9100 C.2    19  GLN19       0.2608
     36  OE1       -4.2370   36.6790  -15.4780 O.2    19  GLN19      -0.2717
     37  NE2       -2.7730   36.4950  -17.1810 N.am   19  GLN19      -0.0878
     38  N         -3.2570   31.9650  -13.2850 N.am   20  LEU20      -0.1977
     39  CA        -3.9280   30.6640  -13.3100 C.3    20  LEU20       0.1596
     40  C         -4.3740   30.3380  -14.7310 C.2    20  LEU20       0.2287
     41  O         -4.7920   31.2200  -15.4790 O.2    20  LEU20      -0.2864
     42  CB        -5.1560   30.6630  -12.4040 C.3    20  LEU20       0.0297
     43  CG        -4.9940   30.8760  -10.9100 C.3    20  LEU20       0.0022
     44  CD1       -6.3640   30.6880  -10.3000 C.3    20  LEU20       0.0001
     45  CD2       -4.0300   29.8730  -10.3330 C.3    20  LEU20       0.0001
     46  N        -13.5490   28.3400   -6.8370 N.3    27  ASP27      -0.1225
     47  CA       -12.2970   28.0680   -6.1410 C.3    27  ASP27       0.1805
     48  C        -11.8460   29.2810   -5.3210 C.2    27  ASP27       0.2597
     49  O        -11.3380   29.1400   -4.2100 O.2    27  ASP27      -0.2718
     50  CB       -11.2110   27.6330   -7.1230 C.3    27  ASP27       0.1424
     51  CG        -9.8630   27.4600   -6.4550 C.2    27  ASP27       0.3668
     52  OD1       -9.7220   26.5560   -5.6080 O.co2  27  ASP27      -0.2456
     53  OD2       -8.9520   28.2470   -6.7550 O.co2  27  ASP27      -0.2456
     54  N        -12.0430   30.4760   -5.8690 N.am   28  LEU28      -0.1979
     55  CA       -11.7280   31.6860   -5.1270 C.3    28  LEU28       0.1596
     56  C        -12.5840   31.8200   -3.8680 C.2    28  LEU28       0.2287
     57  O        -12.0930   32.2470   -2.8190 O.2    28  LEU28      -0.2864
     58  CB       -11.8390   32.9220   -6.0250 C.3    28  LEU28       0.0297
     59  CG       -10.5330   33.2510   -6.7600 C.3    28  LEU28       0.0022
     60  CD1       -9.3780   33.2680   -5.7560 C.3    28  LEU28       0.0001
     61  CD2      -10.2310   32.3160   -7.9380 C.3    28  LEU28       0.0001
     62  N        -13.7330   29.2670   -2.2040 N.3    30  HIS30      -0.1226
     63  CA       -13.1640   28.2310   -1.3500 C.3    30  HIS30       0.1752
     64  C        -11.9380   28.7590   -0.6010 C.2    30  HIS30       0.2595
     65  O        -11.8260   28.5960    0.6180 O.2    30  HIS30      -0.2718
     66  CB       -12.8430   27.0380   -2.2500 C.3    30  HIS30       0.0759
     67  CG       -12.1660   25.8860   -1.5740 C.ar   30  HIS30       0.0818
     68  ND1      -12.8020   25.0760   -0.6560 N.ar   30  HIS30      -0.2268
     69  CD2      -10.9340   25.3520   -1.7630 C.ar   30  HIS30       0.1154
     70  CE1      -11.9740   24.1120   -0.2840 C.ar   30  HIS30       0.1986
     71  NE2      -10.8370   24.2590   -0.9370 N.ar   30  HIS30      -0.2212
     72  N        -11.0370   29.4180   -1.3310 N.am   31  VAL31      -0.1980
     73  CA        -9.8690   30.0720   -0.7410 C.3    31  VAL31       0.1595
     74  C        -10.2780   31.1160    0.3050 C.2    31  VAL31       0.2287
     75  O         -9.7030   31.1700    1.3930 O.2    31  VAL31      -0.2864
     76  CB        -9.0110   30.7690   -1.8250 C.3    31  VAL31       0.0276
     77  CG1       -7.9980   31.7020   -1.1880 C.3    31  VAL31       0.0022
     78  CG2       -8.2950   29.7530   -2.6590 C.3    31  VAL31       0.0022
     79  N          4.0130   34.8780   -6.9630 N.3    46  THR46      -0.1218
     80  CA         2.5850   34.7790   -6.6490 C.3    46  THR46       0.1862
     81  C          2.0320   36.1110   -6.1250 C.2    46  THR46       0.2287
     82  O          0.9660   36.5690   -6.5580 O.2    46  THR46      -0.2866
     83  CB         2.3230   33.6570   -5.6490 C.3    46  THR46       0.1770
     84  OG1        2.6370   32.4140   -6.2770 O.3    46  THR46      -0.2211
     85  CG2        0.8480   33.6170   -5.2280 C.3    46  THR46       0.0375
     86  N          1.6700   38.5550   -8.9050 N.3    49  SER49      -0.1202
     87  CA         0.5440   38.1020   -9.7320 C.3    49  SER49       0.2020
     88  C         -0.7950   38.5900   -9.1920 C.2    49  SER49       0.2618
     89  O         -1.6300   39.0880   -9.9550 O.2    49  SER49      -0.2717
     90  CB         0.4990   36.5700   -9.8110 C.3    49  SER49       0.2103
     91  OG         1.5910   36.0520  -10.5500 O.3    49  SER49      -0.2182
     92  N         -1.0080   38.4320   -7.8850 N.am   50  ILE50      -0.1979
     93  CA        -2.2620   38.8830   -7.2620 C.3    50  ILE50       0.1595
     94  C         -2.3120   40.4080   -7.1170 C.2    50  ILE50       0.2287
     95  O         -3.3970   40.9970   -7.0920 O.2    50  ILE50      -0.2864
     96  CB        -2.5760   38.1410   -5.9280 C.3    50  ILE50       0.0276
     97  CG1       -1.5500   38.4530   -4.8350 C.3    50  ILE50       0.0022
     98  CG2       -2.6500   36.6390   -6.1600 C.3    50  ILE50       0.0022
     99  CD1       -1.9950   38.0120   -3.4350 C.3    50  ILE50       0.0001
    100  N          0.4950   29.2140    0.1290 N.3    92  PHE92      -0.1241
    101  CA        -0.4540   29.7300   -0.8740 C.3    92  PHE92       0.1605
    102  C          0.1170   29.6330   -2.2880 C.2    92  PHE92       0.2264
    103  O         -0.5870   29.8750   -3.2680 O.2    92  PHE92      -0.2867
    104  CB        -0.7740   31.1910   -0.5260 C.3    92  PHE92       0.0534
    105  CG        -1.9930   31.7710   -1.2080 C.ar   92  PHE92      -0.0203
    106  CD1       -3.2470   31.1810   -1.0550 C.ar   92  PHE92      -0.0042
    107  CD2       -1.8920   32.9660   -1.9290 C.ar   92  PHE92      -0.0042
    108  CE1       -4.3750   31.7410   -1.6510 C.ar   92  PHE92      -0.0003
    109  CE2       -3.0230   33.5530   -2.5120 C.ar   92  PHE92      -0.0003
    110  CZ        -4.2680   32.9270   -2.3710 C.ar   92  PHE92      -0.0000
    111  N          5.5030   25.4570   -2.9390 N.3    98  PHE98      -0.1241
    112  CA         4.9330   24.1160   -2.7930 C.3    98  PHE98       0.1605
    113  C          6.0070   23.0300   -2.7590 C.2    98  PHE98       0.2264
    114  O          5.9220   22.1050   -1.9540 O.2    98  PHE98      -0.2867
    115  CB         3.9280   23.8090   -3.9040 C.3    98  PHE98       0.0534
    116  CG         2.6820   24.6630   -3.8740 C.ar   98  PHE98      -0.0203
    117  CD1        2.1380   25.1330   -5.0720 C.ar   98  PHE98      -0.0042
    118  CD2        2.0270   24.9600   -2.6760 C.ar   98  PHE98      -0.0042
    119  CE1        0.9780   25.9110   -5.0900 C.ar   98  PHE98      -0.0003
    120  CE2        0.8550   25.7300   -2.6760 C.ar   98  PHE98      -0.0003
    121  CZ         0.3210   26.1910   -3.8820 C.ar   98  PHE98      -0.0000
    122  N         -7.8540   21.8160   -4.5950 N.3   111  THR111     -0.1218
    123  CA        -8.9210   21.8070   -5.5840 C.3   111  THR111      0.1862
    124  C         -8.3760   21.1180   -6.8180 C.2   111  THR111      0.2287
    125  O         -7.4800   21.6460   -7.4820 O.2   111  THR111     -0.2866
    126  CB        -9.3500   23.2450   -5.9510 C.3   111  THR111      0.1770
    127  OG1       -9.7010   23.9510   -4.7550 O.3   111  THR111     -0.2211
    128  CG2      -10.5460   23.2390   -6.9130 C.3   111  THR111      0.0375
@<TRIPOS>BOND
     1    37    35   am
     2    35    36    2
     3    35    34    1
     4    41    40    2
     5    21    22    1
     6    34    33    1
     7    33    30    1
     8    40    39    1
     9    29    30    1
    10    29    23   am
    11    28    26   am
    12    32    31    2
    13    22    25    1
    14    22    23    1
    15    30    31    1
    16    25    26    1
    17    31    38   am
    18    23    24    2
    19    26    27    2
    20    39    38    1
    21    39    42    1
    22    42    43    1
    23    43    45    1
    24    43    44    1
    25    91    90    1
    26    89    88    2
    27    90    87    1
    28    87    88    1
    29    87    86    1
    30    88    92   am
    31    19    18    2
    32    18    17    1
    33    61    59    1
    34    92    93    1
    35    20    17    1
    36   125   124    2
    37    93    94    1
    38    93    96    1
    39    17    16    1
    40    50    51    1
    41    50    47    1
    42    94    95    2
    43    79    80    1
    44   128   126    1
    45    46    47    1
    46   124   123    1
    47    59    58    1
    48    59    60    1
    49    53    51   ar
    50    80    81    1
    51    80    83    1
    52    82    81    2
    53    51    52   ar
    54    84    83    1
    55    98    96    1
    56    47    48    1
    57    16    11   am
    58    58    55    1
    59   126   123    1
    60   126   127    1
    61    96    97    1
    62    54    48   am
    63    54    55    1
    64    15    13    1
    65    83    85    1
    66   123   122    1
    67    48    49    2
    68    55    56    1
    69   119   117   ar
    70   119   121   ar
    71   117   116   ar
    72    11    12    2
    73    11    10    1
    74    97    99    1
    75    13    10    1
    76    13    14    1
    77    10     9    1
    78   115   116    1
    79   115   112    1
    80   121   120   ar
    81   116   118   ar
    82    56    57    2
    83   103   102    2
    84   111   112    1
    85   112   113    1
    86   113   114    2
    87   120   118   ar
    88    78    76    1
    89     9     3   am
    90   109   110   ar
    91   109   107   ar
    92   110   108   ar
    93   102   101    1
    94    66    67    1
    95    66    63    1
    96    62    63    1
    97     4     3    2
    98   107   105   ar
    99    76    77    1
   100    76    73    1
   101    69    67   ar
   102    69    71   ar
   103     3     2    1
   104   108   106   ar
   105    67    68   ar
   106    63    64    1
   107    72    73    1
   108    72    64   am
   109   105   106   ar
   110   105   104    1
   111    71    70   ar
   112   101   104    1
   113   101   100    1
   114    73    74    1
   115    68    70   ar
   116    64    65    2
   117     2     5    1
   118     2     1    1
   119     6     7    1
   120     6     5    1
   121     6     8    1
   122    74    75    2
