@<TRIPOS>MOLECULE
tmp/3sr4A00.pdb
 198 193 0 0 0
SMALL
GASTEIGER

@<TRIPOS>ATOM
      1  N         50.9590   49.9070   11.5110 N.3   129  PRO129     -0.2102
      2  CA        50.2620   49.5370   10.2670 C.3   129  PRO129      0.1504
      3  C         48.8360   50.0880   10.2820 C.2   129  PRO129      0.2576
      4  O         48.1460   50.1170    9.2650 O.2   129  PRO129     -0.2718
      5  CB        50.2820   48.0050   10.2990 C.3   129  PRO129      0.0282
      6  CG        51.5210   47.6980   11.0990 C.3   129  PRO129      0.0208
      7  CD        51.4120   48.7000   12.2230 C.3   129  PRO129      0.0893
      8  N         48.4170   50.5250   11.4610 N.am  130  GLU130     -0.1966
      9  CA        47.0890   51.0730   11.6730 C.3   130  GLU130      0.1733
     10  C         46.9460   52.4910   11.1220 C.2   130  GLU130      0.2616
     11  O         45.8510   53.0500   11.1400 O.2   130  GLU130     -0.2715
     12  CB        46.7800   51.0370   13.1730 C.3   130  GLU130      0.0429
     13  CG        45.5200   51.7600   13.6060 C.3   130  GLU130      0.1163
     14  CD        45.2290   51.5620   15.0870 C.2   130  GLU130      0.3649
     15  OE1       46.1860   51.6320   15.8950 O.co2 130  GLU130     -0.2457
     16  OE2       44.0460   51.3410   15.4400 O.co2 130  GLU130     -0.2457
     17  N         48.0390   53.0670   10.6210 N.am  131  VAL131     -0.1963
     18  CA        47.9880   54.4240   10.0760 C.3   131  VAL131      0.1727
     19  C         46.9530   54.5520    8.9580 C.2   131  VAL131      0.2616
     20  O         47.0060   53.8380    7.9480 O.2   131  VAL131     -0.2715
     21  CB        49.3650   54.8830    9.5440 C.3   131  VAL131      0.0290
     22  CG1       49.2180   56.2010    8.7810 C.3   131  VAL131      0.0023
     23  CG2       50.3350   55.0620   10.7140 C.3   131  VAL131      0.0023
     24  N         46.0250   55.4900    9.1510 N.am  132  TYR132     -0.1960
     25  CA        44.9400   55.7390    8.2110 C.3   132  TYR132      0.1771
     26  C         45.2070   56.8320    7.1690 C.2   132  TYR132      0.2620
     27  O         45.6970   57.9190    7.4860 O.2   132  TYR132     -0.2715
     28  CB        43.6760   56.0920    8.9860 C.3   132  TYR132      0.0574
     29  CG        42.4710   56.2960    8.1090 C.ar  132  TYR132     -0.0198
     30  CD1       41.7710   55.2060    7.5830 C.ar  132  TYR132     -0.0009
     31  CD2       42.0290   57.5800    7.7960 C.ar  132  TYR132     -0.0009
     32  CE1       40.6490   55.3950    6.7660 C.ar  132  TYR132      0.0417
     33  CE2       40.9130   57.7790    6.9790 C.ar  132  TYR132      0.0417
     34  CZ        40.2260   56.6860    6.4690 C.ar  132  TYR132      0.1957
     35  OH        39.1170   56.8900    5.6780 O.3   132  TYR132     -0.2866
     36  N         44.8860   56.5260    5.9240 N.am  133  GLY133     -0.1940
     37  CA        45.0280   57.4530    4.8190 C.3   133  GLY133      0.2014
     38  C         44.0290   57.0670    3.7430 C.2   133  GLY133      0.2639
     39  O         43.7640   55.8860    3.5430 O.2   133  GLY133     -0.2714
     40  N         43.4660   58.0420    3.0450 N.am  134  GLU134     -0.1963
     41  CA        42.4850   57.7350    2.0160 C.3   134  GLU134      0.1733
     42  C         43.0100   57.8530    0.5930 C.2   134  GLU134      0.2617
     43  O         43.5880   58.8730    0.2560 O.2   134  GLU134     -0.2715
     44  CB        41.2630   58.6420    2.1740 C.3   134  GLU134      0.0429
     45  CG        40.2310   58.1430    3.1730 C.3   134  GLU134      0.1163
     46  CD        39.2240   59.2140    3.5630 C.2   134  GLU134      0.3649
     47  OE1       38.8560   60.0400    2.6950 O.co2 134  GLU134     -0.2457
     48  OE2       38.7930   59.2230    4.7350 O.co2 134  GLU134     -0.2457
     49  N         42.8150   56.8310   -0.2550 N.am  135  THR135     -0.1951
     50  CA        43.2500   56.9020   -1.6520 C.3   135  THR135      0.1897
     51  C         42.3210   57.8000   -2.4410 C.2   135  THR135      0.2313
     52  O         41.1070   57.6260   -2.3670 O.2   135  THR135     -0.2863
     53  CB        43.2830   55.5010   -2.3190 C.3   135  THR135      0.1794
     54  OG1       44.0910   54.6270   -1.5220 O.3   135  THR135     -0.2208
     55  CG2       43.8510   55.6050   -3.7260 C.3   135  THR135      0.0378
     56  N         39.9070   44.7760   -1.2630 N.3   157  ASP157     -0.1239
     57  CA        40.6780   45.9150   -0.7650 C.3   157  ASP157      0.1674
     58  C         41.1220   45.5040    0.6360 C.2   157  ASP157      0.2266
     59  O         40.3060   45.4710    1.5570 O.2   157  ASP157     -0.2867
     60  CB        39.8200   47.1790   -0.6640 C.3   157  ASP157      0.1410
     61  CG        40.5600   48.3390    0.0190 C.2   157  ASP157      0.3668
     62  OD1       41.6890   48.1290    0.5260 O.co2 157  ASP157     -0.2456
     63  OD2       40.0170   49.4630    0.0550 O.co2 157  ASP157     -0.2456
     64  N         42.4990   46.1650    4.0270 N.3   159  GLY159     -0.1210
     65  CA        42.6960   47.3350    4.8540 C.3   159  GLY159      0.1956
     66  C         41.8710   48.4060    4.1820 C.2   159  GLY159      0.2613
     67  O         42.3840   49.4460    3.7840 O.2   159  GLY159     -0.2717
     68  N         40.5750   48.1300    4.0620 N.am  160  SER160     -0.1938
     69  CA        39.6250   49.0100    3.3930 C.3   160  SER160      0.2055
     70  C         39.1490   50.3020    4.0650 C.2   160  SER160      0.2643
     71  O         38.4470   51.0920    3.4300 O.2   160  SER160     -0.2714
     72  CB        38.4040   48.1890    2.9600 C.3   160  SER160      0.2130
     73  OG        37.8730   47.4280    4.0310 O.3   160  SER160     -0.2179
     74  N         39.5140   50.5300    5.3250 N.am  161  GLY161     -0.1954
     75  CA        39.0950   51.7550    5.9970 C.3   161  GLY161      0.1869
     76  C         37.5840   51.9130    6.0740 C.2   161  GLY161      0.2309
     77  O         36.8840   50.9970    6.5120 O.2   161  GLY161     -0.2863
     78  N         35.4420   53.2370    0.9850 N.3   164  GLN164     -0.1231
     79  CA        35.1080   53.9630   -0.2440 C.3   164  GLN164      0.1698
     80  C         35.7600   53.4620   -1.5360 C.2   164  GLN164      0.2592
     81  O         35.2860   53.7890   -2.6240 O.2   164  GLN164     -0.2718
     82  CB        35.3430   55.4780   -0.0710 C.3   164  GLN164      0.0381
     83  CG        36.7580   55.9820   -0.2860 C.3   164  GLN164      0.0905
     84  CD        37.7500   55.4270    0.7080 C.2   164  GLN164      0.2608
     85  OE1       37.3740   54.8820    1.7500 O.2   164  GLN164     -0.2717
     86  NE2       39.0310   55.5740    0.3980 N.am  164  GLN164     -0.0878
     87  N         36.8270   52.6720   -1.4280 N.am  165  VAL165     -0.1980
     88  CA        37.4800   52.1240   -2.6190 C.3   165  VAL165      0.1595
     89  C         36.5930   50.9940   -3.1560 C.2   165  VAL165      0.2287
     90  O         36.3400   50.8970   -4.3610 O.2   165  VAL165     -0.2864
     91  CB        38.8960   51.5570   -2.3060 C.3   165  VAL165      0.0276
     92  CG1       39.4610   50.8400   -3.5360 C.3   165  VAL165      0.0022
     93  CG2       39.8370   52.6950   -1.8790 C.3   165  VAL165      0.0022
     94  N         38.0830   44.4480    3.6580 N.3   181  VAL181     -0.1231
     95  CA        38.3000   43.9860    5.0260 C.3   181  VAL181      0.1692
     96  C         39.1360   45.0260    5.7540 C.2   181  VAL181      0.2592
     97  O         40.1700   45.4690    5.2420 O.2   181  VAL181     -0.2718
     98  CB        39.0250   42.6220    5.0850 C.3   181  VAL181      0.0266
     99  CG1       40.3320   42.6700    4.2940 C.3   181  VAL181      0.0020
    100  CG2       39.2940   42.2490    6.5490 C.3   181  VAL181      0.0020
    101  N         38.6660   45.4260    6.9370 N.am  182  GLU182     -0.1966
    102  CA        39.3300   46.4300    7.7730 C.3   182  GLU182      0.1733
    103  C         39.4050   45.9290    9.2220 C.2   182  GLU182      0.2616
    104  O         38.4440   45.3730    9.7520 O.2   182  GLU182     -0.2715
    105  CB        38.5610   47.7540    7.6820 C.3   182  GLU182      0.0429
    106  CG        38.9470   48.8190    8.6870 C.3   182  GLU182      0.1163
    107  CD        40.4170   49.1610    8.6690 C.2   182  GLU182      0.3649
    108  OE1       40.9170   49.6650    7.6370 O.co2 182  GLU182     -0.2457
    109  OE2       41.0750   48.9280    9.7040 O.co2 182  GLU182     -0.2457
    110  N         40.5560   46.1360    9.8550 N.am  183  LYS183     -0.1963
    111  CA        40.7980   45.6630   11.2180 C.3   183  LYS183      0.1728
    112  C         40.3970   46.6000   12.3550 C.2   183  LYS183      0.2616
    113  O         39.8370   46.1510   13.3500 O.2   183  LYS183     -0.2715
    114  CB        42.2790   45.3040   11.3680 C.3   183  LYS183      0.0311
    115  CG        42.6800   44.6790   12.6970 C.3   183  LYS183      0.0038
    116  CD        44.1990   44.5240   12.7690 C.3   183  LYS183      0.0206
    117  CE        44.6400   43.8420   14.0560 C.3   183  LYS183      0.1093
    118  NZ        44.1170   42.4460   14.1480 N.3   183  LYS183     -0.1314
    119  N         40.6960   47.8890   12.2200 N.am  184  ALA184     -0.1977
    120  CA        40.3790   48.8610   13.2620 C.3   184  ALA184      0.1597
    121  C         38.8860   49.1140   13.4140 C.2   184  ALA184      0.2287
    122  O         38.1610   49.2500   12.4270 O.2   184  ALA184     -0.2864
    123  CB        41.1020   50.1620   12.9910 C.3   184  ALA184      0.0319
    124  N         37.2350   52.8520   11.7220 N.3   187  PRO187     -0.2116
    125  CA        36.8880   52.8270   10.2920 C.3   187  PRO187      0.1372
    126  C         35.8530   51.7430    9.9740 C.2   187  PRO187      0.2244
    127  O         34.9550   51.9470    9.1500 O.2   187  PRO187     -0.2868
    128  CB        38.2380   52.5970    9.6000 C.3   187  PRO187      0.0268
    129  CG        39.1000   51.9620   10.6730 C.3   187  PRO187      0.0207
    130  CD        38.6910   52.7060   11.9160 C.3   187  PRO187      0.0892
    131  N         37.8740   42.6330   10.1170 N.3   217  GLY217     -0.1210
    132  CA        38.7540   41.4830   10.2010 C.3   217  GLY217      0.1956
    133  C         40.2220   41.7950   10.0480 C.2   217  GLY217      0.2612
    134  O         40.6040   42.9460    9.8520 O.2   217  GLY217     -0.2717
    135  N         41.0440   40.7570   10.1450 N.am  218  ASP218     -0.1959
    136  CA        42.4890   40.8920   10.0250 C.3   218  ASP218      0.1840
    137  C         42.8790   40.1220    8.7680 C.2   218  ASP218      0.2622
    138  O         42.7740   38.8960    8.7450 O.2   218  ASP218     -0.2715
    139  CB        43.1660   40.2720   11.2480 C.3   218  ASP218      0.1450
    140  CG        44.6610   40.5210   11.2800 C.2   218  ASP218      0.3671
    141  OD1       45.3160   40.3980   10.2210 O.co2 218  ASP218     -0.2456
    142  OD2       45.1830   40.8330   12.3750 O.co2 218  ASP218     -0.2456
    143  N         43.3300   40.8210    7.7270 N.am  219  PHE219     -0.1960
    144  CA        43.6720   40.1250    6.4960 C.3   219  PHE219      0.1771
    145  C         44.8830   39.1940    6.5710 C.2   219  PHE219      0.2619
    146  O         45.2330   38.5540    5.5810 O.2   219  PHE219     -0.2715
    147  CB        43.8130   41.1140    5.3220 C.3   219  PHE219      0.0574
    148  CG        44.8610   42.1780    5.5140 C.ar  219  PHE219     -0.0200
    149  CD1       46.1880   41.8420    5.7780 C.ar  219  PHE219     -0.0042
    150  CD2       44.5300   43.5260    5.3600 C.ar  219  PHE219     -0.0042
    151  CE1       47.1690   42.8270    5.8810 C.ar  219  PHE219     -0.0003
    152  CE2       45.5060   44.5200    5.4600 C.ar  219  PHE219     -0.0003
    153  CZ        46.8280   44.1700    5.7210 C.ar  219  PHE219     -0.0000
    154  N         45.5140   39.1050    7.7410 N.am  220  LEU220     -0.1977
    155  CA        46.6640   38.2130    7.9110 C.3   220  LEU220      0.1596
    156  C         46.2450   36.9220    8.6170 C.2   220  LEU220      0.2287
    157  O         47.0560   36.0170    8.7990 O.2   220  LEU220     -0.2864
    158  CB        47.7870   38.8870    8.7130 C.3   220  LEU220      0.0297
    159  CG        48.5970   39.9980    8.0350 C.3   220  LEU220      0.0022
    160  CD1       49.7320   40.4190    8.9500 C.3   220  LEU220      0.0001
    161  CD2       49.1470   39.5210    6.6940 C.3   220  LEU220      0.0001
    162  N         43.6010   45.2540   -4.0780 N.3   235  PHE235     -0.1241
    163  CA        44.0230   46.6360   -3.9230 C.3   235  PHE235      0.1605
    164  C         44.5140   46.7300   -2.4810 C.2   235  PHE235      0.2264
    165  O         43.8370   46.2640   -1.5570 O.2   235  PHE235     -0.2867
    166  CB        42.8680   47.6250   -4.1160 C.3   235  PHE235      0.0534
    167  CG        43.2650   49.0530   -3.8430 C.ar  235  PHE235     -0.0203
    168  CD1       43.9590   49.7930   -4.7960 C.ar  235  PHE235     -0.0042
    169  CD2       43.0400   49.6290   -2.5840 C.ar  235  PHE235     -0.0042
    170  CE1       44.4310   51.0770   -4.5010 C.ar  235  PHE235     -0.0003
    171  CE2       43.5110   50.9140   -2.2810 C.ar  235  PHE235     -0.0003
    172  CZ        44.2070   51.6350   -3.2390 C.ar  235  PHE235     -0.0000
    173  N         46.6460   49.6080    0.1250 N.3   237  ASN237     -0.1240
    174  CA        47.3950   50.8350    0.3580 C.3   237  ASN237      0.1653
    175  C         48.3590   50.5160    1.4960 C.2   237  ASN237      0.2266
    176  O         48.0890   50.8230    2.6530 O.2   237  ASN237     -0.2867
    177  CB        46.4490   51.9660    0.7710 C.3   237  ASN237      0.1155
    178  CG        47.0990   53.3290    0.6700 C.2   237  ASN237      0.2627
    179  OD1       48.2140   53.5260    1.1270 O.2   237  ASN237     -0.2716
    180  ND2       46.4020   54.2770    0.0610 N.am  237  ASN237     -0.0877
    181  N         52.3390   50.2450    5.9870 N.3   241  PHE241     -0.1241
    182  CA        52.2240   48.9310    6.6070 C.3   241  PHE241      0.1605
    183  C         53.4860   48.4390    7.3260 C.2   241  PHE241      0.2264
    184  O         53.3990   47.8260    8.3940 O.2   241  PHE241     -0.2867
    185  CB        51.7990   47.9000    5.5600 C.3   241  PHE241      0.0534
    186  CG        50.3140   47.8500    5.3210 C.ar  241  PHE241     -0.0203
    187  CD1       49.4620   48.7910    5.9050 C.ar  241  PHE241     -0.0042
    188  CD2       49.7670   46.8680    4.4940 C.ar  241  PHE241     -0.0042
    189  CE1       48.0920   48.7520    5.6650 C.ar  241  PHE241     -0.0003
    190  CE2       48.4040   46.8230    4.2510 C.ar  241  PHE241     -0.0003
    191  CZ        47.5600   47.7640    4.8340 C.ar  241  PHE241     -0.0000
    192  N         54.6130   43.4840    7.9570 N.3   245  VAL245     -0.1245
    193  CA        53.3090   43.2080    7.3640 C.3   245  VAL245      0.1561
    194  C         53.4520   42.9450    5.8570 C.2   245  VAL245      0.2260
    195  O         52.7950   42.0480    5.3230 O.2   245  VAL245     -0.2867
    196  CB        52.3090   44.3800    7.5950 C.3   245  VAL245      0.0252
    197  CG1       51.0160   44.1380    6.8030 C.3   245  VAL245      0.0019
    198  CG2       51.9860   44.5020    9.0850 C.3   245  VAL245      0.0019
@<TRIPOS>BOND
     1   168   170   ar
     2   168   167   ar
     3   170   172   ar
     4    90    89    2
     5   166   163    1
     6   166   167    1
     7   162   163    1
     8   163   164    1
     9   167   169   ar
    10    55    53    1
    11    92    91    1
    12   172   171   ar
    13    89    88    1
    14    81    80    2
    15    88    91    1
    16    88    87    1
    17   169   171   ar
    18   164   165    2
    19    51    52    2
    20    51    50    1
    21    53    50    1
    22    53    54    1
    23    91    93    1
    24    50    49    1
    25    80    87   am
    26    80    79    1
    27    56    57    1
    28    57    60    1
    29    57    58    1
    30    60    61    1
    31    83    82    1
    32    83    84    1
    33    49    42   am
    34    79    82    1
    35    79    78    1
    36    61    63   ar
    37    61    62   ar
    38   180   178   am
    39   173   174    1
    40    43    42    2
    41   174   177    1
    42   174   175    1
    43    86    84   am
    44    42    41    1
    45    58    59    2
    46   178   177    1
    47   178   179    2
    48    84    85    2
    49   175   176    2
    50    41    44    1
    51    41    40    1
    52    44    45    1
    53    47    46   ar
    54    72    69    1
    55    72    73    1
    56    40    38   am
    57    45    46    1
    58    69    68    1
    59    69    70    1
    60    71    70    2
    61    39    38    2
    62    46    48   ar
    63    94    95    1
    64    38    37    1
    65    67    66    2
    66    64    65    1
    67    68    66   am
    68    70    74   am
    69    66    65    1
    70   190   188   ar
    71   190   191   ar
    72    99    98    1
    73   188   186   ar
    74    37    36    1
    75   191   189   ar
    76    95    98    1
    77    95    96    1
    78    98   100    1
    79    97    96    2
    80   186   185    1
    81   186   187   ar
    82   147   148    1
    83   147   144    1
    84   195   194    2
    85    74    75    1
    86   150   152   ar
    87   150   148   ar
    88   152   153   ar
    89   148   149   ar
    90   185   182    1
    91   146   145    2
    92   189   187   ar
    93    35    34    1
    94   153   151   ar
    95    96   101   am
    96   149   151   ar
    97   194   193    1
    98    36    26   am
    99   181   182    1
   100    75    76    1
   101    76    77    2
   102    34    32   ar
   103    34    33   ar
   104   144   145    1
   105   144   143    1
   106   145   154   am
   107   182   183    1
   108   161   159    1
   109    32    30   ar
   110   197   196    1
   111   101   102    1
   112    33    31   ar
   113    26    27    2
   114    26    25    1
   115   183   184    2
   116   193   196    1
   117   193   192    1
   118    30    29   ar
   119   196   198    1
   120   108   107   ar
   121   105   102    1
   122   105   106    1
   123   143   137   am
   124   154   155    1
   125   102   103    1
   126    31    29   ar
   127   155   156    1
   128   155   158    1
   129    20    19    2
   130   159   158    1
   131   159   160    1
   132    29    28    1
   133    25    28    1
   134    25    24    1
   135   156   157    2
   136   107   106    1
   137   107   109   ar
   138   138   137    2
   139   137   136    1
   140    22    21    1
   141    19    24   am
   142    19    18    1
   143   127   126    2
   144   103   104    2
   145   103   110   am
   146     4     3    2
   147    21    18    1
   148    21    23    1
   149   128   125    1
   150   128   129    1
   151   134   133    2
   152   110   111    1
   153   126   125    1
   154   136   135    1
   155   136   139    1
   156   133   135   am
   157   133   132    1
   158    18    17    1
   159   131   132    1
   160   141   140   ar
   161     2     3    1
   162     2     5    1
   163     2     1    1
   164     3     8   am
   165   125   124    1
   166     5     6    1
   167    17    10   am
   168   129   130    1
   169     6     7    1
   170    10    11    2
   171    10     9    1
   172   111   114    1
   173   111   112    1
   174   139   140    1
   175   140   142   ar
   176   114   115    1
   177     8     9    1
   178     1     7    1
   179     9    12    1
   180   124   130    1
   181   119   112   am
   182   119   120    1
   183   112   113    2
   184   122   121    2
   185   115   116    1
   186   116   117    1
   187   123   120    1
   188    12    13    1
   189   120   121    1
   190    13    14    1
   191   117   118    1
   192    14    16   ar
   193    14    15   ar
