@<TRIPOS>MOLECULE
tmp/3sr5A01.pdb
 152 146 0 0 0
SMALL
GASTEIGER

@<TRIPOS>ATOM
      1  N          2.5270  -25.0280    0.5710 N.3     5  LEU5       -0.1231
      2  CA         3.7610  -25.3840   -0.1150 C.3     5  LEU5        0.1693
      3  C          3.3950  -25.5210   -1.5760 C.2     5  LEU5        0.2592
      4  O          2.5280  -26.3260   -1.9210 O.2     5  LEU5       -0.2718
      5  CB         4.2850  -26.7270    0.4270 C.3     5  LEU5        0.0284
      6  CG         5.6170  -27.3090   -0.0570 C.3     5  LEU5        0.0019
      7  CD1        6.7710  -26.3000    0.0520 C.3     5  LEU5        0.0001
      8  CD2        5.9810  -28.5720    0.7360 C.3     5  LEU5        0.0001
      9  N          4.0260  -24.7230   -2.4420 N.am    6  VAL6       -0.1966
     10  CA         3.6310  -24.7220   -3.8520 C.3     6  VAL6        0.1727
     11  C          4.7990  -24.2700   -4.7340 C.2     6  VAL6        0.2616
     12  O          5.6460  -23.4900   -4.2740 O.2     6  VAL6       -0.2715
     13  CB         2.4040  -23.7660   -4.0920 C.3     6  VAL6        0.0290
     14  CG1        2.7340  -22.3000   -3.7370 C.3     6  VAL6        0.0023
     15  CG2        1.8600  -23.8420   -5.5640 C.3     6  VAL6        0.0023
     16  N          4.8220  -24.7750   -5.9740 N.am    7  ALA7       -0.1977
     17  CA         5.6640  -24.2360   -7.0320 C.3     7  ALA7        0.1597
     18  C          4.7310  -23.6660   -8.0980 C.2     7  ALA7        0.2287
     19  O          3.8340  -24.3780   -8.5940 O.2     7  ALA7       -0.2864
     20  CB         6.5540  -25.3230   -7.6360 C.3     7  ALA7        0.0319
     21  N          3.2300  -31.7970  -12.9140 N.3    20  LEU20      -0.1245
     22  CA         3.8670  -30.4660  -12.9020 C.3    20  LEU20       0.1561
     23  C          4.4760  -30.2490  -14.2890 C.2    20  LEU20       0.2260
     24  O          5.0040  -31.1850  -14.8890 O.2    20  LEU20      -0.2867
     25  CB         4.9040  -30.3560  -11.7530 C.3    20  LEU20       0.0270
     26  CG         4.2830  -29.9070  -10.4120 C.3    20  LEU20       0.0019
     27  CD1        3.4460  -30.9840   -9.7280 C.3    20  LEU20       0.0001
     28  CD2        5.3480  -29.3720   -9.4390 C.3    20  LEU20       0.0001
     29  N          7.0700  -28.7200  -15.3600 N.3    22  TRP22      -0.1227
     30  CA         8.5220  -28.5140  -15.4410 C.3    22  TRP22       0.1737
     31  C          9.2350  -29.6550  -14.7480 C.2    22  TRP22       0.2595
     32  O          8.6550  -30.3590  -13.9260 O.2    22  TRP22      -0.2718
     33  CB         8.9430  -27.2010  -14.7520 C.3    22  TRP22       0.0564
     34  CG         8.2570  -27.0120  -13.4380 C.ar   22  TRP22       0.0003
     35  CD1        8.5700  -27.5950  -12.2250 C.ar   22  TRP22       0.0946
     36  CD2        7.0950  -26.2070  -13.2110 C.ar   22  TRP22       0.0152
     37  NE1        7.6760  -27.1880  -11.2660 N.ar   22  TRP22      -0.2442
     38  CE2        6.7500  -26.3540  -11.8420 C.ar   22  TRP22       0.0810
     39  CE3        6.3110  -25.3810  -14.0270 C.ar   22  TRP22       0.0012
     40  CZ2        5.6580  -25.6940  -11.2700 C.ar   22  TRP22       0.0191
     41  CZ3        5.2150  -24.7050  -13.4450 C.ar   22  TRP22       0.0001
     42  CH2        4.8930  -24.8930  -12.0910 C.ar   22  TRP22       0.0015
     43  N         10.5080  -29.8090  -15.0800 N.am   23  HIS23      -0.1975
     44  CA        11.3760  -30.7550  -14.3970 C.3    23  HIS23       0.1656
     45  C         12.3980  -29.9510  -13.6110 C.2    23  HIS23       0.2291
     46  O         13.2130  -29.2420  -14.1980 O.2    23  HIS23      -0.2864
     47  CB        12.0590  -31.6480  -15.4320 C.3    23  HIS23       0.0771
     48  CG        13.1490  -32.4960  -14.8570 C.ar   23  HIS23       0.0820
     49  ND1       12.8930  -33.6060  -14.0780 N.ar   23  HIS23      -0.2267
     50  CD2       14.4980  -32.3930  -14.9360 C.ar   23  HIS23       0.1154
     51  CE1       14.0380  -34.1540  -13.7080 C.ar   23  HIS23       0.1986
     52  NE2       15.0270  -33.4430  -14.2200 N.ar   23  HIS23      -0.2212
     53  N         13.6530  -28.3040   -6.7120 N.3    27  ASP27      -0.1225
     54  CA        12.3810  -28.0210   -6.0360 C.3    27  ASP27       0.1805
     55  C         11.9690  -29.2450   -5.2100 C.2    27  ASP27       0.2597
     56  O         11.4390  -29.1170   -4.1120 O.2    27  ASP27      -0.2718
     57  CB        11.2770  -27.6260   -7.0300 C.3    27  ASP27       0.1424
     58  CG         9.9340  -27.4560   -6.3520 C.2    27  ASP27       0.3668
     59  OD1        9.7700  -26.5190   -5.5410 O.co2  27  ASP27      -0.2456
     60  OD2        9.0640  -28.3000   -6.5870 O.co2  27  ASP27      -0.2456
     61  N         12.2330  -30.4430   -5.7280 N.am   28  LEU28      -0.1979
     62  CA        11.9110  -31.6310   -4.9610 C.3    28  LEU28       0.1596
     63  C         12.7650  -31.7190   -3.6960 C.2    28  LEU28       0.2287
     64  O         12.2700  -32.1180   -2.6350 O.2    28  LEU28      -0.2864
     65  CB        12.0350  -32.8880   -5.8320 C.3    28  LEU28       0.0297
     66  CG        10.8680  -33.0670   -6.8280 C.3    28  LEU28       0.0022
     67  CD1        9.5260  -33.0510   -6.1220 C.3    28  LEU28       0.0001
     68  CD2       10.8320  -32.0640   -7.9840 C.3    28  LEU28       0.0001
     69  N         13.8890  -29.2020   -2.0420 N.3    30  HIS30      -0.1226
     70  CA        13.2610  -28.1630   -1.2090 C.3    30  HIS30       0.1752
     71  C         12.0470  -28.7320   -0.4700 C.2    30  HIS30       0.2595
     72  O         11.9110  -28.5670    0.7430 O.2    30  HIS30      -0.2718
     73  CB        12.8920  -26.9970   -2.1330 C.3    30  HIS30       0.0759
     74  CG        12.1990  -25.8480   -1.4740 C.ar   30  HIS30       0.0818
     75  ND1       12.8150  -25.0470   -0.5310 N.ar   30  HIS30      -0.2268
     76  CD2       10.9690  -25.3160   -1.6780 C.ar   30  HIS30       0.1154
     77  CE1       11.9830  -24.0820   -0.1710 C.ar   30  HIS30       0.1986
     78  NE2       10.8610  -24.2180   -0.8560 N.ar   30  HIS30      -0.2212
     79  N         11.1650  -29.4090   -1.2070 N.am   31  VAL31      -0.1980
     80  CA         9.9980  -30.0730   -0.6210 C.3    31  VAL31       0.1595
     81  C         10.4360  -31.0920    0.4390 C.2    31  VAL31       0.2287
     82  O          9.8730  -31.1360    1.5390 O.2    31  VAL31      -0.2864
     83  CB         9.1900  -30.8040   -1.7130 C.3    31  VAL31       0.0276
     84  CG1        8.2130  -31.8060   -1.0940 C.3    31  VAL31       0.0022
     85  CG2        8.4560  -29.7950   -2.5830 C.3    31  VAL31       0.0022
     86  N         -3.9720  -34.8260   -6.8300 N.3    46  THR46      -0.1218
     87  CA        -2.5580  -34.7420   -6.5180 C.3    46  THR46       0.1862
     88  C         -2.0180  -36.0870   -6.0040 C.2    46  THR46       0.2287
     89  O         -0.9610  -36.5650   -6.4430 O.2    46  THR46      -0.2866
     90  CB        -2.2790  -33.5980   -5.5180 C.3    46  THR46       0.1770
     91  OG1       -2.5900  -32.3450   -6.1340 O.3    46  THR46      -0.2211
     92  CG2       -0.7980  -33.5880   -5.0940 C.3    46  THR46       0.0375
     93  N         -1.7420  -38.5750   -8.8500 N.3    49  SER49      -0.1202
     94  CA        -0.6250  -38.1840   -9.7100 C.3    49  SER49       0.2020
     95  C          0.7180  -38.6940   -9.1770 C.2    49  SER49       0.2618
     96  O          1.5640  -39.1370   -9.9580 O.2    49  SER49      -0.2717
     97  CB        -0.5980  -36.6630   -9.9580 C.3    49  SER49       0.2103
     98  OG        -0.1600  -35.9470   -8.8220 O.3    49  SER49      -0.2182
     99  N          0.8980  -38.6720   -7.8560 N.am   50  ILE50      -0.1979
    100  CA         2.1490  -39.1520   -7.2690 C.3    50  ILE50       0.1595
    101  C          2.1100  -40.6770   -7.0800 C.2    50  ILE50       0.2287
    102  O          3.1580  -41.3410   -7.0930 O.2    50  ILE50      -0.2864
    103  CB         2.5510  -38.3860   -5.9620 C.3    50  ILE50       0.0276
    104  CG1        1.5130  -38.5490   -4.8430 C.3    50  ILE50       0.0022
    105  CG2        2.7670  -36.9120   -6.2710 C.3    50  ILE50       0.0022
    106  CD1        2.0290  -38.1320   -3.4340 C.3    50  ILE50       0.0001
    107  N          1.7790  -42.8360   -4.7510 N.3    52  LYS52      -0.1245
    108  CA         2.1250  -43.4310   -3.4490 C.3    52  LYS52       0.1561
    109  C          2.4830  -42.2930   -2.4800 C.2    52  LYS52       0.2260
    110  O          2.9050  -41.2340   -2.9280 O.2    52  LYS52      -0.2867
    111  CB         3.3070  -44.3920   -3.6130 C.3    52  LYS52       0.0271
    112  CG         4.5730  -43.7320   -4.1770 C.3    52  LYS52       0.0035
    113  CD         5.6490  -44.7430   -4.5280 C.3    52  LYS52       0.0206
    114  CE         6.9710  -44.0580   -4.8560 C.3    52  LYS52       0.1093
    115  NZ         6.8810  -43.1100   -6.0040 N.3    52  LYS52      -0.1314
    116  N          4.4860  -39.8600    0.0270 N.3    54  LEU54      -0.1245
    117  CA         5.8750  -39.4530    0.1120 C.3    54  LEU54       0.1561
    118  C          6.4490  -40.0330    1.4010 C.2    54  LEU54       0.2260
    119  O          5.7940  -39.9840    2.4460 O.2    54  LEU54      -0.2867
    120  CB         6.0060  -37.9310    0.1240 C.3    54  LEU54       0.0270
    121  CG         5.9060  -37.2410   -1.2520 C.3    54  LEU54       0.0019
    122  CD1        6.1210  -35.7760   -1.0800 C.3    54  LEU54       0.0001
    123  CD2        6.9530  -37.7930   -2.2000 C.3    54  LEU54       0.0001
    124  N         -0.4380  -29.1510    0.3370 N.3    92  PHE92      -0.1241
    125  CA         0.4760  -29.6690   -0.7030 C.3    92  PHE92       0.1605
    126  C         -0.0910  -29.5930   -2.1330 C.2    92  PHE92       0.2264
    127  O          0.6120  -29.8800   -3.1230 O.2    92  PHE92      -0.2867
    128  CB         0.8170  -31.1170   -0.3300 C.3    92  PHE92       0.0534
    129  CG         2.0060  -31.7130   -1.0600 C.ar   92  PHE92      -0.0203
    130  CD1        3.2780  -31.1320   -0.9710 C.ar   92  PHE92      -0.0042
    131  CD2        1.8710  -32.9270   -1.7400 C.ar   92  PHE92      -0.0042
    132  CE1        4.3850  -31.7210   -1.6020 C.ar   92  PHE92      -0.0003
    133  CE2        2.9640  -33.5330   -2.3620 C.ar   92  PHE92      -0.0003
    134  CZ         4.2310  -32.9290   -2.2870 C.ar   92  PHE92      -0.0000
    135  N         -5.4350  -25.4050   -2.7350 N.3    98  PHE98      -0.1241
    136  CA        -4.8830  -24.0460   -2.6140 C.3    98  PHE98       0.1605
    137  C         -5.9630  -22.9600   -2.5560 C.2    98  PHE98       0.2264
    138  O         -5.8620  -22.0140   -1.7650 O.2    98  PHE98      -0.2867
    139  CB        -3.9030  -23.7640   -3.7390 C.3    98  PHE98       0.0534
    140  CG        -2.6580  -24.6310   -3.7030 C.ar   98  PHE98      -0.0203
    141  CD1       -2.1160  -25.1090   -4.9000 C.ar   98  PHE98      -0.0042
    142  CD2       -2.0050  -24.9310   -2.4850 C.ar   98  PHE98      -0.0042
    143  CE1       -0.9560  -25.9060   -4.9150 C.ar   98  PHE98      -0.0003
    144  CE2       -0.8320  -25.7340   -2.4810 C.ar   98  PHE98      -0.0003
    145  CZ        -0.3030  -26.2060   -3.6880 C.ar   98  PHE98      -0.0000
    146  N          7.8560  -21.8230   -4.4690 N.3   111  THR111     -0.1218
    147  CA         8.9340  -21.8310   -5.4450 C.3   111  THR111      0.1862
    148  C          8.3950  -21.1230   -6.6910 C.2   111  THR111      0.2287
    149  O          7.4930  -21.6350   -7.3850 O.2   111  THR111     -0.2866
    150  CB         9.3970  -23.2730   -5.8140 C.3   111  THR111      0.1770
    151  OG1        9.8090  -23.9810   -4.6360 O.3   111  THR111     -0.2211
    152  CG2       10.5700  -23.2130   -6.8120 C.3   111  THR111      0.0375
@<TRIPOS>BOND
     1    30    29    1
     2    30    33    1
     3    30    31    1
     4    47    48    1
     5    47    44    1
     6    43    31   am
     7    43    44    1
     8    50    48   ar
     9    50    52   ar
    10    24    23    2
    11    48    49   ar
    12    33    34    1
    13    31    32    2
    14    44    45    1
    15    23    22    1
    16    52    51   ar
    17    46    45    2
    18    49    51   ar
    19    39    41   ar
    20    39    36   ar
    21    41    42   ar
    22    34    36   ar
    23    34    35   ar
    24    36    38   ar
    25    21    22    1
    26    22    25    1
    27    35    37   ar
    28    42    40   ar
    29    38    40   ar
    30    38    37   ar
    31    25    26    1
    32    26    27    1
    33    26    28    1
    34    97    94    1
    35    97    98    1
    36    96    95    2
    37    94    95    1
    38    94    93    1
    39    95    99   am
    40    19    18    2
    41    18    17    1
    42    68    66    1
    43    99   100    1
    44    20    17    1
    45   149   148    2
    46   100   101    1
    47   100   103    1
    48   102   101    2
    49    17    16    1
    50    57    58    1
    51    57    54    1
    52    86    87    1
    53    66    67    1
    54    66    65    1
    55   152   150    1
    56    53    54    1
    57   148   147    1
    58    60    58   ar
    59    87    88    1
    60    87    90    1
    61    89    88    2
    62    58    59   ar
    63   105   103    1
    64    91    90    1
    65    54    55    1
    66   115   114    1
    67    16    11   am
    68   103   104    1
    69    65    62    1
    70   150   147    1
    71   150   151    1
    72    61    55   am
    73    61    62    1
    74    15    13    1
    75    90    92    1
    76   147   146    1
    77    55    56    2
    78    62    63    1
    79   143   141   ar
    80   143   145   ar
    81   141   140   ar
    82   114   113    1
    83   104   106    1
    84   107   108    1
    85    11    12    2
    86    11    10    1
    87   113   112    1
    88   112   111    1
    89    13    10    1
    90    13    14    1
    91    10     9    1
    92   139   140    1
    93   139   136    1
    94   140   142   ar
    95    63    64    2
    96   145   144   ar
    97   111   108    1
    98   108   109    1
    99   127   126    2
   100   110   109    2
   101   135   136    1
   102   136   137    1
   103    85    83    1
   104   137   138    2
   105   142   144   ar
   106     9     3   am
   107   133   134   ar
   108   133   131   ar
   109   134   132   ar
   110   123   121    1
   111   126   125    1
   112    73    74    1
   113    73    70    1
   114    69    70    1
   115     4     3    2
   116   131   129   ar
   117    83    84    1
   118    83    80    1
   119    76    74   ar
   120    76    78   ar
   121   132   130   ar
   122     3     2    1
   123    74    75   ar
   124   121   122    1
   125   121   120    1
   126    70    71    1
   127    79    80    1
   128    79    71   am
   129   129   130   ar
   130   129   128    1
   131    78    77   ar
   132   125   128    1
   133   125   124    1
   134    80    81    1
   135    75    77   ar
   136    71    72    2
   137     2     5    1
   138     2     1    1
   139     6     7    1
   140     6     5    1
   141     6     8    1
   142   116   117    1
   143   117   120    1
   144   117   118    1
   145    81    82    2
   146   118   119    2
