@<TRIPOS>MOLECULE
tmp/3sraB00.pdb
 166 165 0 0 0
SMALL
GASTEIGER

@<TRIPOS>ATOM
      1  N         35.8120   59.8480   48.2850 N.3     1  SER1       -0.1217
      2  CA        35.4060   60.3040   49.6460 C.3     1  SER1        0.1889
      3  C         36.0110   61.6690   49.9730 C.2     1  SER1        0.2288
      4  O         37.1360   61.9550   49.5700 O.2     1  SER1       -0.2866
      5  CB        35.8880   59.2990   50.6850 C.3     1  SER1        0.2089
      6  OG        35.2820   58.0540   50.5260 O.3     1  SER1       -0.2183
      7  N         31.7810   60.4550   52.7450 N.3    22  PRO22      -0.2102
      8  CA        32.3000   59.2620   52.0840 C.3    22  PRO22       0.1504
      9  C         31.6140   58.9750   50.7370 C.2    22  PRO22       0.2576
     10  O         30.4190   59.2410   50.5880 O.2    22  PRO22      -0.2718
     11  CB        31.9720   58.1430   53.0880 C.3    22  PRO22       0.0282
     12  CG        30.8740   58.6820   53.9050 C.3    22  PRO22       0.0208
     13  CD        31.1900   60.1200   54.0540 C.3    22  PRO22       0.0893
     14  N         32.3710   58.4270   49.7870 N.am   23  HIS23      -0.1962
     15  CA        31.8550   58.0880   48.4650 C.3    23  HIS23       0.1787
     16  C         31.9730   56.5950   48.2700 C.2    23  HIS23       0.2620
     17  O         33.0640   56.0870   47.9970 O.2    23  HIS23      -0.2715
     18  CB        32.6270   58.8040   47.3330 C.3    23  HIS23       0.0785
     19  CG        32.6360   60.2990   47.4380 C.ar   23  HIS23       0.0821
     20  ND1       33.7120   61.0670   47.0380 N.ar   23  HIS23      -0.2267
     21  CD2       31.6970   61.1700   47.8850 C.ar   23  HIS23       0.1154
     22  CE1       33.4400   62.3440   47.2410 C.ar   23  HIS23       0.1986
     23  NE2       32.2250   62.4340   47.7590 N.ar   23  HIS23      -0.2212
     24  N         30.8400   55.9050   48.3870 N.am   24  PHE24      -0.1974
     25  CA        30.7920   54.4470   48.4280 C.3    24  PHE24       0.1639
     26  C         29.5890   53.9460   47.6260 C.2    24  PHE24       0.2290
     27  O         28.7220   54.7430   47.2620 O.2    24  PHE24      -0.2864
     28  CB        30.7050   53.9840   49.9030 C.3    24  PHE24       0.0560
     29  CG        31.8900   53.1490   50.3770 C.ar   24  PHE24      -0.0200
     30  CD1       33.1680   53.3320   49.8480 C.ar   24  PHE24      -0.0042
     31  CD2       31.7060   52.1730   51.3630 C.ar   24  PHE24      -0.0042
     32  CE1       34.2570   52.5520   50.2910 C.ar   24  PHE24      -0.0003
     33  CE2       32.7750   51.3850   51.8210 C.ar   24  PHE24      -0.0003
     34  CZ        34.0600   51.5650   51.2800 C.ar   24  PHE24      -0.0000
     35  N         26.1980   51.7280   53.1000 N.3    32  PHE32      -0.1241
     36  CA        26.0730   52.2990   54.4590 C.3    32  PHE32       0.1605
     37  C         24.6630   52.1650   55.0760 C.2    32  PHE32       0.2264
     38  O         23.6380   52.2290   54.3760 O.2    32  PHE32      -0.2867
     39  CB        26.5110   53.7770   54.4970 C.3    32  PHE32       0.0534
     40  CG        28.0030   53.9700   54.6430 C.ar   32  PHE32      -0.0203
     41  CD1       28.7570   54.5060   53.5930 C.ar   32  PHE32      -0.0042
     42  CD2       28.6540   53.6080   55.8270 C.ar   32  PHE32      -0.0042
     43  CE1       30.1230   54.6800   53.7150 C.ar   32  PHE32      -0.0003
     44  CE2       30.0280   53.7750   55.9640 C.ar   32  PHE32      -0.0003
     45  CZ        30.7680   54.3140   54.9020 C.ar   32  PHE32      -0.0000
     46  N         28.8440   49.4240   57.6300 N.3    50  LEU50      -0.1245
     47  CA        28.7160   48.5160   56.5060 C.3    50  LEU50       0.1561
     48  C         27.9000   47.3080   56.9270 C.2    50  LEU50       0.2260
     49  O         27.8710   46.9750   58.1110 O.2    50  LEU50      -0.2867
     50  CB        30.0890   48.1100   55.9670 C.3    50  LEU50       0.0270
     51  CG        30.9840   49.2890   55.5530 C.3    50  LEU50       0.0019
     52  CD1       32.2800   48.7920   54.8920 C.3    50  LEU50       0.0001
     53  CD2       30.2290   50.2580   54.6380 C.3    50  LEU50       0.0001
     54  N         28.0840   44.4630   60.1670 N.3    53  LEU53      -0.1245
     55  CA        29.0220   44.8690   61.2230 C.3    53  LEU53       0.1561
     56  C         28.2930   45.5120   62.4150 C.2    53  LEU53       0.2260
     57  O         27.6100   46.5150   62.2500 O.2    53  LEU53      -0.2867
     58  CB        30.1140   45.8090   60.6920 C.3    53  LEU53       0.0270
     59  CG        30.8990   45.4360   59.4260 C.3    53  LEU53       0.0019
     60  CD1       31.9490   46.4830   59.1310 C.3    53  LEU53       0.0001
     61  CD2       31.5660   44.0860   59.5420 C.3    53  LEU53       0.0001
     62  N         30.8570   52.6090   61.8880 N.3    57  ASN57      -0.1225
     63  CA        32.0830   52.8290   61.1180 C.3    57  ASN57       0.1785
     64  C         32.4530   54.2920   60.9710 C.2    57  ASN57       0.2597
     65  O         33.6080   54.6450   61.1280 O.2    57  ASN57      -0.2718
     66  CB        32.0230   52.1530   59.7480 C.3    57  ASN57       0.1169
     67  CG        32.0440   50.6410   59.8400 C.2    57  ASN57       0.2627
     68  OD1       31.1810   49.9810   59.2630 O.2    57  ASN57      -0.2716
     69  ND2       33.0400   50.0790   60.5490 N.am   57  ASN57      -0.0877
     70  N         31.4750   55.1330   60.6690 N.am   58  ILE58      -0.1980
     71  CA        31.6630   56.5800   60.6050 C.3    58  ILE58       0.1595
     72  C         30.5890   57.1800   61.5040 C.2    58  ILE58       0.2287
     73  O         29.4140   56.8630   61.3540 O.2    58  ILE58      -0.2864
     74  CB        31.5090   57.1200   59.1500 C.3    58  ILE58       0.0276
     75  CG1       32.6260   56.5910   58.2400 C.3    58  ILE58       0.0022
     76  CG2       31.4330   58.6840   59.1200 C.3    58  ILE58       0.0022
     77  CD1       32.5030   56.9960   56.7430 C.3    58  ILE58       0.0001
     78  N         36.2030   58.5090   57.6200 N.3    68  HIS68      -0.1226
     79  CA        37.2840   57.7990   56.9460 C.3    68  HIS68       0.1752
     80  C         37.2750   58.0870   55.4580 C.2    68  HIS68       0.2597
     81  O         36.2320   58.4310   54.8990 O.2    68  HIS68      -0.2718
     82  CB        37.1180   56.2960   57.1350 C.3    68  HIS68       0.0759
     83  CG        37.1170   55.8580   58.5630 C.ar   68  HIS68       0.0818
     84  ND1       38.2620   55.8240   59.3340 N.ar   68  HIS68      -0.2268
     85  CD2       36.1110   55.4120   59.3570 C.ar   68  HIS68       0.1154
     86  CE1       37.9620   55.3690   60.5370 C.ar   68  HIS68       0.1986
     87  NE2       36.6650   55.1140   60.5780 N.ar   68  HIS68      -0.2212
     88  N         38.4370   57.9310   54.8250 N.am   69  THR69      -0.1939
     89  CA        38.5660   58.0380   53.3750 C.3    69  THR69       0.2028
     90  C         39.5330   56.9640   52.9250 C.2    69  THR69       0.2642
     91  O         40.5390   56.7100   53.6070 O.2    69  THR69      -0.2714
     92  CB        39.1680   59.4010   52.9540 C.3    69  THR69       0.1808
     93  OG1       40.4540   59.5670   53.5760 O.3    69  THR69      -0.2208
     94  CG2       38.2630   60.5460   53.3370 C.3    69  THR69       0.0379
     95  N         39.2440   56.3320   51.7920 N.am   70  VAL70      -0.1977
     96  CA        40.1710   55.3480   51.2230 C.3    70  VAL70       0.1596
     97  C         41.5090   56.0330   51.0050 C.2    70  VAL70       0.2287
     98  O         41.5610   57.1510   50.4720 O.2    70  VAL70      -0.2864
     99  CB        39.6260   54.6770   49.9370 C.3    70  VAL70       0.0276
    100  CG1       40.7580   53.9500   49.1180 C.3    70  VAL70       0.0022
    101  CG2       38.5130   53.6830   50.3140 C.3    70  VAL70       0.0022
    102  N         40.3100   44.0450   63.3480 N.3   158  VAL158     -0.1231
    103  CA        39.4690   45.0280   62.6700 C.3   158  VAL158      0.1692
    104  C         38.1770   45.3930   63.4280 C.2   158  VAL158      0.2591
    105  O         37.8400   46.5610   63.5280 O.2   158  VAL158     -0.2718
    106  CB        39.1400   44.6230   61.1790 C.3   158  VAL158      0.0266
    107  CG1       38.3520   43.3010   61.0930 C.3   158  VAL158      0.0020
    108  CG2       38.3490   45.7310   60.4950 C.3   158  VAL158      0.0020
    109  N         37.4480   44.4100   63.9350 N.am  159  LEU159     -0.1980
    110  CA        36.1730   44.6940   64.6330 C.3   159  LEU159      0.1596
    111  C         36.3990   45.3570   65.9790 C.2   159  LEU159      0.2287
    112  O         35.7580   46.3630   66.2860 O.2   159  LEU159     -0.2864
    113  CB        35.3270   43.4270   64.7820 C.3   159  LEU159      0.0297
    114  CG        34.8990   42.8210   63.4360 C.3   159  LEU159      0.0022
    115  CD1       34.1250   41.5210   63.6320 C.3   159  LEU159      0.0001
    116  CD2       34.0820   43.8260   62.6210 C.3   159  LEU159      0.0001
    117  N         37.0920   49.1360   65.5290 N.3   162  TRP162     -0.1241
    118  CA        35.9320   50.0300   65.4500 C.3   162  TRP162      0.1605
    119  C         35.1200   50.1020   66.7430 C.2   162  TRP162      0.2264
    120  O         34.7040   51.1890   67.1540 O.2   162  TRP162     -0.2867
    121  CB        35.0650   49.7920   64.1930 C.3   162  TRP162      0.0550
    122  CG        35.4980   50.7320   63.1220 C.ar  162  TRP162      0.0003
    123  CD1       35.1800   52.0730   63.0180 C.ar  162  TRP162      0.0946
    124  CD2       36.4100   50.4560   62.0580 C.ar  162  TRP162      0.0152
    125  NE1       35.8190   52.6270   61.9350 N.ar  162  TRP162     -0.2442
    126  CE2       36.5820   51.6610   61.3290 C.ar  162  TRP162      0.0810
    127  CE3       37.0860   49.3000   61.6320 C.ar  162  TRP162      0.0012
    128  CZ2       37.3980   51.7400   60.1840 C.ar  162  TRP162      0.0191
    129  CZ3       37.9130   49.3810   60.4970 C.ar  162  TRP162      0.0001
    130  CH2       38.0550   50.5970   59.7850 C.ar  162  TRP162      0.0015
    131  N         42.0130   48.6470   58.2240 N.3   185  PRO185     -0.2102
    132  CA        42.5320   47.9820   57.0270 C.3   185  PRO185      0.1504
    133  C         43.0370   48.8900   55.9140 C.2   185  PRO185      0.2576
    134  O         44.1740   48.6970   55.4250 O.2   185  PRO185     -0.2718
    135  CB        41.3390   47.1560   56.5250 C.3   185  PRO185      0.0282
    136  CG        40.3100   47.1970   57.6110 C.3   185  PRO185      0.0208
    137  CD        40.5610   48.4500   58.3790 C.3   185  PRO185      0.0893
    138  N         42.2260   49.8610   55.4920 N.am  186  TRP186     -0.1963
    139  CA        42.5700   50.6000   54.2650 C.3   186  TRP186      0.1771
    140  C         41.9960   52.0070   54.1350 C.2   186  TRP186      0.2619
    141  O         41.7690   52.4980   53.0180 O.2   186  TRP186     -0.2715
    142  CB        42.2460   49.7680   53.0170 C.3   186  TRP186      0.0590
    143  CG        41.0090   48.9010   53.1390 C.ar  186  TRP186      0.0006
    144  CD1       40.9830   47.5600   53.3840 C.ar  186  TRP186      0.0946
    145  CD2       39.6370   49.3080   52.9960 C.ar  186  TRP186      0.0152
    146  NE1       39.6860   47.1080   53.4150 N.ar  186  TRP186     -0.2442
    147  CE2       38.8390   48.1560   53.1770 C.ar  186  TRP186      0.0810
    148  CE3       39.0060   50.5290   52.7330 C.ar  186  TRP186      0.0012
    149  CZ2       37.4390   48.1870   53.1140 C.ar  186  TRP186      0.0191
    150  CZ3       37.5990   50.5640   52.6750 C.ar  186  TRP186      0.0001
    151  CH2       36.8390   49.3940   52.8600 C.ar  186  TRP186      0.0015
    152  N         41.8060   52.6660   55.2770 N.am  187  VAL187     -0.1977
    153  CA        41.3410   54.0440   55.2930 C.3   187  VAL187      0.1596
    154  C         42.1720   54.9580   56.2070 C.2   187  VAL187      0.2287
    155  O         42.7450   54.5220   57.2260 O.2   187  VAL187     -0.2864
    156  CB        39.8360   54.1500   55.6840 C.3   187  VAL187      0.0276
    157  CG1       38.9320   53.5660   54.5840 C.3   187  VAL187      0.0022
    158  CG2       39.5650   53.4850   57.0280 C.3   187  VAL187      0.0022
    159  N         41.1570   61.4450   49.1370 N.3   269  ASN269     -0.1240
    160  CA        41.7300   60.2220   48.5480 C.3   269  ASN269      0.1653
    161  C         43.1010   60.4100   47.8880 C.2   269  ASN269      0.2266
    162  O         43.5780   59.5010   47.2000 O.2   269  ASN269     -0.2867
    163  CB        40.7670   59.5280   47.5570 C.3   269  ASN269      0.1155
    164  CG        39.3720   59.2810   48.1490 C.2   269  ASN269      0.2627
    165  OD1       38.3710   59.7840   47.6360 O.2   269  ASN269     -0.2716
    166  ND2       39.3090   58.4980   49.2220 N.am  269  ASN269     -0.0877
@<TRIPOS>BOND
     1    20    22   ar
     2    20    19   ar
     3   162   161    2
     4    22    23   ar
     5    27    26    2
     6    18    19    1
     7    18    15    1
     8    19    21   ar
     9   163   164    1
    10   163   160    1
    11    26    25    1
    12   165   164    2
    13    23    21   ar
    14   161   160    1
    15    17    16    2
    16   164   166   am
    17    16    24   am
    18    16    15    1
    19     1     2    1
    20    24    25    1
    21    25    28    1
    22    15    14    1
    23   160   159    1
    24   100    99    1
    25     4     3    2
    26     2     3    1
    27     2     5    1
    28    14     9   am
    29    30    32   ar
    30    30    29   ar
    31    28    29    1
    32    99   101    1
    33    99    96    1
    34    32    34   ar
    35    29    31   ar
    36    98    97    2
    37     6     5    1
    38    10     9    2
    39     9     8    1
    40    97    96    1
    41    96    95    1
    42    34    33   ar
    43    31    33   ar
    44    95    90   am
    45     8     7    1
    46     8    11    1
    47   150   148   ar
    48   150   151   ar
    49   148   145   ar
    50     7    13    1
    51   151   149   ar
    52    90    89    1
    53    90    91    2
    54    92    94    1
    55    92    89    1
    56    92    93    1
    57   145   143   ar
    58   145   147   ar
    59   142   143    1
    60   142   139    1
    61   141   140    2
    62    11    12    1
    63    35    36    1
    64   149   147   ar
    65   143   144   ar
    66   147   146   ar
    67    89    88    1
    68   144   146   ar
    69    41    43   ar
    70    41    40   ar
    71    43    45   ar
    72    12    13    1
    73   140   139    1
    74   140   152   am
    75   139   138    1
    76    38    37    2
    77    36    39    1
    78    36    37    1
    79    39    40    1
    80   157   156    1
    81    53    51    1
    82    40    42   ar
    83    88    80   am
    84    52    51    1
    85    81    80    2
    86    45    44   ar
    87   152   153    1
    88   153   156    1
    89   153   154    1
    90   134   133    2
    91    80    79    1
    92   138   133   am
    93    51    50    1
    94   156   158    1
    95    42    44   ar
    96   133   132    1
    97    50    47    1
    98   154   155    2
    99    47    48    1
   100    47    46    1
   101   135   132    1
   102   135   136    1
   103    77    75    1
   104    48    49    2
   105    79    82    1
   106    79    78    1
   107   132   131    1
   108    82    83    1
   109   136   137    1
   110   131   137    1
   111    75    74    1
   112    83    84   ar
   113    83    85   ar
   114    76    74    1
   115    60    59    1
   116    74    71    1
   117    68    67    2
   118    84    86   ar
   119    85    87   ar
   120    59    61    1
   121    59    58    1
   122    66    67    1
   123    66    63    1
   124   130   128   ar
   125   130   129   ar
   126    67    69   am
   127    54    55    1
   128   128   126   ar
   129   108   106    1
   130   129   127   ar
   131    86    87   ar
   132    71    70    1
   133    71    72    1
   134    70    64   am
   135    58    55    1
   136    64    63    1
   137    64    65    2
   138   107   106    1
   139    63    62    1
   140   106   103    1
   141    55    56    1
   142   126   125   ar
   143   126   124   ar
   144    73    72    2
   145   127   124   ar
   146   125   123   ar
   147   124   122   ar
   148    57    56    2
   149   116   114    1
   150   103   102    1
   151   103   104    1
   152   123   122   ar
   153   122   121    1
   154   104   105    2
   155   104   109   am
   156   114   115    1
   157   114   113    1
   158   109   110    1
   159   121   118    1
   160   110   113    1
   161   110   111    1
   162   118   117    1
   163   118   119    1
   164   111   112    2
   165   119   120    2
