@<TRIPOS>MOLECULE
tmp/3srbB00.pdb
 128 126 0 0 0
SMALL
GASTEIGER

@<TRIPOS>ATOM
      1  N         31.0050   55.9610   48.5850 N.3    24  PHE24      -0.1241
      2  CA        30.9160   54.5020   48.6370 C.3    24  PHE24       0.1605
      3  C         29.7750   54.0180   47.7440 C.2    24  PHE24       0.2264
      4  O         28.9330   54.8220   47.3170 O.2    24  PHE24      -0.2867
      5  CB        30.6880   54.0250   50.0930 C.3    24  PHE24       0.0534
      6  CG        31.9610   53.8390   50.8990 C.ar   24  PHE24      -0.0203
      7  CD1       32.3080   52.5800   51.3830 C.ar   24  PHE24      -0.0042
      8  CD2       32.7880   54.9220   51.1970 C.ar   24  PHE24      -0.0042
      9  CE1       33.4770   52.4000   52.1380 C.ar   24  PHE24      -0.0003
     10  CE2       33.9560   54.7580   51.9380 C.ar   24  PHE24      -0.0003
     11  CZ        34.3040   53.4910   52.4110 C.ar   24  PHE24      -0.0000
     12  N         26.3010   51.7980   53.2110 N.3    32  PHE32      -0.1241
     13  CA        26.1570   52.3420   54.5760 C.3    32  PHE32       0.1605
     14  C         24.7360   52.2460   55.1420 C.2    32  PHE32       0.2264
     15  O         23.7440   52.2690   54.4000 O.2    32  PHE32      -0.2867
     16  CB        26.6270   53.7980   54.6560 C.3    32  PHE32       0.0534
     17  CG        28.1150   53.9500   54.8080 C.ar   32  PHE32      -0.0203
     18  CD1       28.8720   54.5170   53.7900 C.ar   32  PHE32      -0.0042
     19  CD2       28.7550   53.5300   55.9760 C.ar   32  PHE32      -0.0042
     20  CE1       30.2550   54.6620   53.9220 C.ar   32  PHE32      -0.0003
     21  CE2       30.1390   53.6710   56.1170 C.ar   32  PHE32      -0.0003
     22  CZ        30.8840   54.2410   55.0830 C.ar   32  PHE32      -0.0000
     23  N         28.6080   49.3310   57.9110 N.3    50  LEU50      -0.1245
     24  CA        28.4300   48.5520   56.6890 C.3    50  LEU50       0.1561
     25  C         27.6810   47.2590   57.0110 C.2    50  LEU50       0.2260
     26  O         27.6400   46.8460   58.1710 O.2    50  LEU50      -0.2867
     27  CB        29.7910   48.2650   56.0350 C.3    50  LEU50       0.0270
     28  CG        30.6850   49.4630   55.6940 C.3    50  LEU50       0.0019
     29  CD1       32.0500   48.9650   55.2420 C.3    50  LEU50       0.0001
     30  CD2       30.0540   50.3450   54.6170 C.3    50  LEU50       0.0001
     31  N         28.0030   44.4230   60.2170 N.3    53  LEU53      -0.1245
     32  CA        28.9530   44.8620   61.2600 C.3    53  LEU53       0.1561
     33  C         28.2360   45.4590   62.4850 C.2    53  LEU53       0.2260
     34  O         27.4350   46.3760   62.3450 O.2    53  LEU53      -0.2867
     35  CB        29.9640   45.8670   60.6780 C.3    53  LEU53       0.0270
     36  CG        30.6830   45.4920   59.3700 C.3    53  LEU53       0.0019
     37  CD1       31.5540   46.6290   58.8440 C.3    53  LEU53       0.0001
     38  CD2       31.5200   44.2290   59.5340 C.3    53  LEU53       0.0001
     39  N         29.1790   47.4570   64.8080 N.3    55  VAL55      -0.1245
     40  CA        29.8210   48.6680   65.3200 C.3    55  VAL55       0.1561
     41  C         29.6220   49.8220   64.3310 C.2    55  VAL55       0.2260
     42  O         29.3780   49.5970   63.1430 O.2    55  VAL55      -0.2867
     43  CB        31.3510   48.4580   65.5620 C.3    55  VAL55       0.0252
     44  CG1       31.6040   47.4950   66.7340 C.3    55  VAL55       0.0019
     45  CG2       32.0290   47.9650   64.2950 C.3    55  VAL55       0.0019
     46  N         30.9730   52.6660   61.9400 N.3    57  ASN57      -0.1225
     47  CA        32.2320   52.8550   61.1970 C.3    57  ASN57       0.1785
     48  C         32.6220   54.3140   60.9850 C.2    57  ASN57       0.2597
     49  O         33.8010   54.6540   61.0120 O.2    57  ASN57      -0.2718
     50  CB        32.1890   52.1280   59.8500 C.3    57  ASN57       0.1169
     51  CG        32.7950   50.7350   59.9150 C.2    57  ASN57       0.2627
     52  OD1       33.3450   50.2480   58.9220 O.2    57  ASN57      -0.2716
     53  ND2       32.6870   50.0760   61.0760 N.am   57  ASN57      -0.0877
     54  N         31.6230   55.1590   60.7560 N.am   58  ILE58      -0.1980
     55  CA        31.8200   56.6030   60.6590 C.3    58  ILE58       0.1595
     56  C         30.7530   57.2290   61.5500 C.2    58  ILE58       0.2287
     57  O         29.5830   56.8930   61.4350 O.2    58  ILE58      -0.2864
     58  CB        31.6620   57.1010   59.1970 C.3    58  ILE58       0.0276
     59  CG1       32.8560   56.6410   58.3420 C.3    58  ILE58       0.0022
     60  CG2       31.5000   58.6250   59.1620 C.3    58  ILE58       0.0022
     61  CD1       32.7130   56.9460   56.8350 C.3    58  ILE58       0.0001
     62  N         36.2850   58.5890   57.6150 N.3    68  HIS68      -0.1241
     63  CA        37.3520   57.8930   56.9080 C.3    68  HIS68       0.1621
     64  C         37.3340   58.2210   55.4250 C.2    68  HIS68       0.2264
     65  O         36.2890   58.5470   54.8680 O.2    68  HIS68      -0.2867
     66  CB        37.2160   56.3740   57.0860 C.3    68  HIS68       0.0745
     67  CG        37.2820   55.9260   58.5120 C.ar   68  HIS68       0.0817
     68  ND1       38.4370   55.9950   59.2620 N.ar   68  HIS68      -0.2268
     69  CD2       36.3330   55.4060   59.3270 C.ar   68  HIS68       0.1154
     70  CE1       38.1940   55.5390   60.4810 C.ar   68  HIS68       0.1986
     71  NE2       36.9270   55.1700   60.5430 N.ar   68  HIS68      -0.2212
     72  N         40.3540   44.0640   63.4180 N.3   158  VAL158     -0.1231
     73  CA        39.5400   45.0790   62.7370 C.3   158  VAL158      0.1692
     74  C         38.2360   45.4410   63.4700 C.2   158  VAL158      0.2591
     75  O         37.9010   46.6310   63.5980 O.2   158  VAL158     -0.2718
     76  CB        39.2710   44.6940   61.2450 C.3   158  VAL158      0.0266
     77  CG1       38.4760   43.3920   61.1240 C.3   158  VAL158      0.0020
     78  CG2       38.5810   45.8430   60.5170 C.3   158  VAL158      0.0020
     79  N         37.5160   44.4300   63.9600 N.am  159  LEU159     -0.1980
     80  CA        36.2460   44.6550   64.6600 C.3   159  LEU159      0.1596
     81  C         36.4850   45.3090   66.0140 C.2   159  LEU159      0.2287
     82  O         35.7950   46.2600   66.3700 O.2   159  LEU159     -0.2864
     83  CB        35.4480   43.3500   64.8230 C.3   159  LEU159      0.0297
     84  CG        34.9510   42.6930   63.5270 C.3   159  LEU159      0.0022
     85  CD1       34.4830   41.2790   63.7910 C.3   159  LEU159      0.0001
     86  CD2       33.8370   43.5110   62.8540 C.3   159  LEU159      0.0001
     87  N         37.1940   49.1430   65.5400 N.3   162  TRP162     -0.1241
     88  CA        36.0680   50.0760   65.4710 C.3   162  TRP162      0.1605
     89  C         35.2190   50.0950   66.7400 C.2   162  TRP162      0.2264
     90  O         34.6470   51.1290   67.0750 O.2   162  TRP162     -0.2867
     91  CB        35.2350   49.9240   64.1920 C.3   162  TRP162      0.0550
     92  CG        35.7260   50.8470   63.1240 C.ar  162  TRP162      0.0003
     93  CD1       35.4870   52.1900   63.0330 C.ar  162  TRP162      0.0946
     94  CD2       36.5840   50.5200   62.0230 C.ar  162  TRP162      0.0152
     95  NE1       36.1310   52.7160   61.9450 N.ar  162  TRP162     -0.2442
     96  CE2       36.8080   51.7170   61.3000 C.ar  162  TRP162      0.0810
     97  CE3       37.1770   49.3360   61.5720 C.ar  162  TRP162      0.0012
     98  CZ2       37.5980   51.7650   60.1390 C.ar  162  TRP162      0.0191
     99  CZ3       37.9610   49.3800   60.4170 C.ar  162  TRP162      0.0001
    100  CH2       38.1680   50.5900   59.7160 C.ar  162  TRP162      0.0015
    101  N         42.0760   48.7070   58.2010 N.3   185  PRO185     -0.2102
    102  CA        42.6480   48.0590   57.0220 C.3   185  PRO185      0.1504
    103  C         43.1480   48.9750   55.9070 C.2   185  PRO185      0.2576
    104  O         44.2880   48.8120   55.4730 O.2   185  PRO185     -0.2718
    105  CB        41.4980   47.1800   56.5060 C.3   185  PRO185      0.0282
    106  CG        40.6290   46.9450   57.7240 C.3   185  PRO185      0.0208
    107  CD        40.6890   48.2680   58.4400 C.3   185  PRO185      0.0893
    108  N         42.3260   49.9110   55.4330 N.am  186  TRP186     -0.1963
    109  CA        42.6970   50.6420   54.2080 C.3   186  TRP186      0.1771
    110  C         42.1570   52.0650   54.0790 C.2   186  TRP186      0.2619
    111  O         42.0350   52.5900   52.9680 O.2   186  TRP186     -0.2715
    112  CB        42.3850   49.8130   52.9410 C.3   186  TRP186      0.0590
    113  CG        41.0710   49.0380   52.9510 C.ar  186  TRP186      0.0006
    114  CD1       40.9170   47.7040   53.2040 C.ar  186  TRP186      0.0946
    115  CD2       39.7590   49.5420   52.6520 C.ar  186  TRP186      0.0152
    116  NE1       39.5920   47.3440   53.1010 N.ar  186  TRP186     -0.2442
    117  CE2       38.8560   48.4510   52.7700 C.ar  186  TRP186      0.0810
    118  CE3       39.2540   50.8040   52.3120 C.ar  186  TRP186      0.0012
    119  CZ2       37.4770   48.5860   52.5550 C.ar  186  TRP186      0.0191
    120  CZ3       37.8800   50.9410   52.1050 C.ar  186  TRP186      0.0001
    121  CH2       37.0060   49.8310   52.2320 C.ar  186  TRP186      0.0015
    122  N         41.8920   52.6940   55.2210 N.am  187  VAL187     -0.1977
    123  CA        41.4020   54.0680   55.2470 C.3   187  VAL187      0.1596
    124  C         42.2220   54.9930   56.1530 C.2   187  VAL187      0.2287
    125  O         42.7940   54.5660   57.1660 O.2   187  VAL187     -0.2864
    126  CB        39.8960   54.1710   55.6470 C.3   187  VAL187      0.0276
    127  CG1       39.0040   53.5680   54.5760 C.3   187  VAL187      0.0022
    128  CG2       39.6130   53.5580   57.0240 C.3   187  VAL187      0.0022
@<TRIPOS>BOND
     1     4     3    2
     2     3     2    1
     3     1     2    1
     4     2     5    1
     5     5     6    1
     6     6     8   ar
     7     6     7   ar
     8     8    10   ar
     9     7     9   ar
    10    10    11   ar
    11   120   121   ar
    12   120   118   ar
    13     9    11   ar
    14   121   119   ar
    15   118   115   ar
    16   119   117   ar
    17   115   117   ar
    18   115   113   ar
    19   117   116   ar
    20   112   113    1
    21   112   109    1
    22   113   114   ar
    23   111   110    2
    24   116   114   ar
    25    12    13    1
    26    18    20   ar
    27    18    17   ar
    28    20    22   ar
    29   110   109    1
    30   110   122   am
    31   109   108    1
    32    15    14    2
    33   127   126    1
    34    13    16    1
    35    13    14    1
    36    30    28    1
    37    16    17    1
    38    17    19   ar
    39    65    64    2
    40    22    21   ar
    41   122   123    1
    42    29    28    1
    43   123   126    1
    44   123   124    1
    45    64    63    1
    46   108   103   am
    47   104   103    2
    48   126   128    1
    49    28    27    1
    50   103   102    1
    51    19    21   ar
    52    27    24    1
    53   124   125    2
    54   105   102    1
    55   105   106    1
    56    24    25    1
    57    24    23    1
    58    61    59    1
    59    63    66    1
    60    63    62    1
    61    25    26    2
    62   102   101    1
    63    66    67    1
    64   106   107    1
    65   101   107    1
    66    59    58    1
    67    67    68   ar
    68    67    69   ar
    69    37    36    1
    70    52    51    2
    71    60    58    1
    72    58    55    1
    73    68    70   ar
    74    69    71   ar
    75    36    38    1
    76    36    35    1
    77   100    98   ar
    78   100    99   ar
    79    50    51    1
    80    50    47    1
    81    51    53   am
    82    98    96   ar
    83    31    32    1
    84    99    97   ar
    85    70    71   ar
    86    78    76    1
    87    55    54    1
    88    55    56    1
    89    35    32    1
    90    54    48   am
    91    48    49    2
    92    48    47    1
    93    77    76    1
    94    47    46    1
    95    76    73    1
    96    32    33    1
    97    96    95   ar
    98    96    94   ar
    99    57    56    2
   100    97    94   ar
   101    95    93   ar
   102    94    92   ar
   103    34    33    2
   104    73    72    1
   105    73    74    1
   106    86    84    1
   107    93    92   ar
   108    92    91    1
   109    42    41    2
   110    74    75    2
   111    74    79   am
   112    84    85    1
   113    84    83    1
   114    79    80    1
   115    91    88    1
   116    45    43    1
   117    41    40    1
   118    80    83    1
   119    80    81    1
   120    39    40    1
   121    40    43    1
   122    88    87    1
   123    88    89    1
   124    43    44    1
   125    81    82    2
   126    89    90    2
