@<TRIPOS>MOLECULE
tmp/3srcB00.pdb
 120 118 0 0 0
SMALL
GASTEIGER

@<TRIPOS>ATOM
      1  N        -29.2600  -27.2880    1.6540 N.3    24  PHE24      -0.1241
      2  CA       -29.3390  -28.7380    1.7530 C.3    24  PHE24       0.1605
      3  C        -30.4770  -29.2470    0.8590 C.2    24  PHE24       0.2264
      4  O        -31.2940  -28.4630    0.4110 O.2    24  PHE24      -0.2867
      5  CB       -29.6240  -29.1300    3.2170 C.3    24  PHE24       0.0534
      6  CG       -28.3830  -29.3850    4.0530 C.ar   24  PHE24      -0.0203
      7  CD1      -28.1210  -30.6610    4.5520 C.ar   24  PHE24      -0.0042
      8  CD2      -27.5020  -28.3470    4.3630 C.ar   24  PHE24      -0.0042
      9  CE1      -26.9790  -30.9110    5.3380 C.ar   24  PHE24      -0.0003
     10  CE2      -26.3560  -28.5790    5.1380 C.ar   24  PHE24      -0.0003
     11  CZ       -26.0920  -29.8650    5.6260 C.ar   24  PHE24      -0.0000
     12  N        -33.9630  -31.3630    6.4330 N.3    32  PHE32      -0.1241
     13  CA       -34.0700  -30.7790    7.7910 C.3    32  PHE32       0.1605
     14  C        -35.4940  -30.8460    8.3660 C.2    32  PHE32       0.2264
     15  O        -36.4930  -30.8140    7.6280 O.2    32  PHE32      -0.2867
     16  CB       -33.5830  -29.3270    7.8080 C.3    32  PHE32       0.0534
     17  CG       -32.0900  -29.1820    7.9500 C.ar   32  PHE32      -0.0203
     18  CD1      -31.3250  -28.6900    6.8980 C.ar   32  PHE32      -0.0042
     19  CD2      -31.4530  -29.5270    9.1390 C.ar   32  PHE32      -0.0042
     20  CE1      -29.9310  -28.5450    7.0220 C.ar   32  PHE32      -0.0003
     21  CE2      -30.0690  -29.4030    9.2770 C.ar   32  PHE32      -0.0003
     22  CZ       -29.3030  -28.8990    8.2070 C.ar   32  PHE32      -0.0000
     23  N        -31.4150  -33.6060   10.8910 N.3    50  LEU50      -0.1245
     24  CA       -31.5760  -34.4770    9.7340 C.3    50  LEU50       0.1561
     25  C        -32.3790  -35.7110   10.1430 C.2    50  LEU50       0.2260
     26  O        -32.4250  -36.0460   11.3350 O.2    50  LEU50      -0.2867
     27  CB       -30.2080  -34.8490    9.1410 C.3    50  LEU50       0.0270
     28  CG       -29.3110  -33.6800    8.6840 C.3    50  LEU50       0.0019
     29  CD1      -27.9930  -34.2220    8.1080 C.3    50  LEU50       0.0001
     30  CD2      -30.0160  -32.7650    7.6520 C.3    50  LEU50       0.0001
     31  N        -32.0900  -38.6840   13.4280 N.3    53  LEU53      -0.1245
     32  CA       -31.1680  -38.2460   14.4770 C.3    53  LEU53       0.1561
     33  C        -31.8870  -37.5810   15.6650 C.2    53  LEU53       0.2260
     34  O        -32.5120  -36.5410   15.5040 O.2    53  LEU53      -0.2867
     35  CB       -30.1360  -37.2610   13.9120 C.3    53  LEU53       0.0270
     36  CG       -29.4190  -37.6400   12.6170 C.3    53  LEU53       0.0019
     37  CD1      -28.4350  -36.5480   12.2030 C.3    53  LEU53       0.0001
     38  CD2      -28.7200  -38.9860   12.7270 C.3    53  LEU53       0.0001
     39  N        -31.0030  -35.6610   17.9580 N.3    55  VAL55      -0.1245
     40  CA       -30.2990  -34.4660   18.4410 C.3    55  VAL55       0.1561
     41  C        -30.6630  -33.2970   17.5460 C.2    55  VAL55       0.2260
     42  O        -31.1680  -33.5070   16.4360 O.2    55  VAL55      -0.2867
     43  CB       -28.7550  -34.6160   18.3880 C.3    55  VAL55       0.0252
     44  CG1      -28.2820  -35.6460   19.3820 C.3    55  VAL55       0.0019
     45  CG2      -28.2730  -34.9440   16.9440 C.3    55  VAL55       0.0019
     46  N        -29.2970  -30.4340   15.1300 N.3    57  ASN57      -0.1240
     47  CA       -28.0860  -30.2240   14.3210 C.3    57  ASN57       0.1653
     48  C        -27.6910  -28.7660   14.1640 C.2    57  ASN57       0.2266
     49  O        -26.5270  -28.4260   14.2740 O.2    57  ASN57      -0.2867
     50  CB       -28.2250  -30.8840   12.9470 C.3    57  ASN57       0.1155
     51  CG       -28.1430  -32.3860   13.0230 C.2    57  ASN57       0.2627
     52  OD1      -28.9760  -33.0950   12.4520 O.2    57  ASN57      -0.2716
     53  ND2      -27.1390  -32.8910   13.7500 N.am   57  ASN57      -0.0877
     54  N        -23.9600  -24.6130   10.7660 N.3    68  HIS68      -0.1241
     55  CA       -22.8900  -25.2950   10.0590 C.3    68  HIS68       0.1621
     56  C        -22.9160  -24.9490    8.5740 C.2    68  HIS68       0.2264
     57  O        -23.9610  -24.5640    8.0420 O.2    68  HIS68      -0.2867
     58  CB       -23.0260  -26.8150   10.2230 C.3    68  HIS68       0.0745
     59  CG       -22.9950  -27.2780   11.6450 C.ar   68  HIS68       0.0817
     60  ND1      -21.8350  -27.3220   12.3890 N.ar   68  HIS68      -0.2268
     61  CD2      -23.9870  -27.7140   12.4640 C.ar   68  HIS68       0.1154
     62  CE1      -22.1120  -27.7720   13.6020 C.ar   68  HIS68       0.1986
     63  NE2      -23.4100  -28.0160   13.6720 N.ar   68  HIS68      -0.2212
     64  N        -19.8640  -39.0580   16.5140 N.3   158  VAL158     -0.1231
     65  CA       -20.6830  -38.0280   15.8610 C.3   158  VAL158      0.1692
     66  C        -21.9540  -37.6420   16.6380 C.2   158  VAL158      0.2591
     67  O        -22.2420  -36.4560   16.7970 O.2   158  VAL158     -0.2718
     68  CB       -20.9920  -38.3940   14.3640 C.3   158  VAL158      0.0266
     69  CG1      -21.6830  -39.7450   14.2410 C.3   158  VAL158      0.0020
     70  CG2      -21.8240  -37.3180   13.6960 C.3   158  VAL158      0.0020
     71  N        -22.7040  -38.6330   17.1060 N.am  159  LEU159     -0.1980
     72  CA       -23.9610  -38.3790   17.8490 C.3   159  LEU159      0.1596
     73  C        -23.6930  -37.7740   19.2260 C.2   159  LEU159      0.2287
     74  O        -24.3410  -36.7990   19.6080 O.2   159  LEU159     -0.2864
     75  CB       -24.8030  -39.6550   17.9810 C.3   159  LEU159      0.0297
     76  CG       -25.3760  -40.2280   16.6810 C.3   159  LEU159      0.0022
     77  CD1      -25.9680  -41.6230   16.9000 C.3   159  LEU159      0.0001
     78  CD2      -26.4130  -39.2920   16.0830 C.3   159  LEU159      0.0001
     79  N        -22.9590  -33.9460   18.7210 N.3   162  TRP162     -0.1241
     80  CA       -24.0790  -33.0200   18.6130 C.3   162  TRP162      0.1605
     81  C        -24.8900  -32.9690   19.9090 C.2   162  TRP162      0.2264
     82  O        -25.3600  -31.9150   20.2990 O.2   162  TRP162     -0.2867
     83  CB       -24.9490  -33.3040   17.3890 C.3   162  TRP162      0.0550
     84  CG       -24.5810  -32.3840   16.2930 C.ar  162  TRP162      0.0003
     85  CD1      -24.9850  -31.0860   16.1410 C.ar  162  TRP162      0.0946
     86  CD2      -23.6770  -32.6520   15.2210 C.ar  162  TRP162      0.0152
     87  NE1      -24.4110  -30.5380   15.0210 N.ar  162  TRP162     -0.2442
     88  CE2      -23.6050  -31.4780   14.4340 C.ar  162  TRP162      0.0810
     89  CE3      -22.9440  -33.7790   14.8280 C.ar  162  TRP162      0.0012
     90  CZ2      -22.8150  -31.3940   13.2750 C.ar  162  TRP162      0.0191
     91  CZ3      -22.1610  -33.6970   13.6740 C.ar  162  TRP162      0.0001
     92  CH2      -22.1050  -32.5130   12.9120 C.ar  162  TRP162      0.0015
     93  N        -18.1530  -34.5090   11.3680 N.3   185  PRO185     -0.2102
     94  CA       -17.6410  -35.1900   10.1740 C.3   185  PRO185      0.1504
     95  C        -17.1390  -34.2870    9.0520 C.2   185  PRO185      0.2576
     96  O        -16.0240  -34.4910    8.5720 O.2   185  PRO185     -0.2718
     97  CB       -18.8490  -36.0160    9.6870 C.3   185  PRO185      0.0282
     98  CG       -19.7250  -36.1410   10.8800 C.3   185  PRO185      0.0208
     99  CD       -19.5700  -34.8250   11.5950 C.3   185  PRO185      0.0893
    100  N        -17.9420  -33.3180    8.6150 N.am  186  TRP186     -0.1963
    101  CA       -17.6070  -32.5970    7.3740 C.3   186  TRP186      0.1771
    102  C        -18.1300  -31.1760    7.2810 C.2   186  TRP186      0.2619
    103  O        -18.2960  -30.6350    6.1860 O.2   186  TRP186     -0.2715
    104  CB       -17.9950  -33.4040    6.1160 C.3   186  TRP186      0.0590
    105  CG       -19.3050  -34.1580    6.1930 C.ar  186  TRP186      0.0006
    106  CD1      -19.4680  -35.4770    6.5070 C.ar  186  TRP186      0.0946
    107  CD2      -20.6180  -33.6450    5.9240 C.ar  186  TRP186      0.0152
    108  NE1      -20.8010  -35.8170    6.4570 N.ar  186  TRP186     -0.2442
    109  CE2      -21.5290  -34.7110    6.1070 C.ar  186  TRP186      0.0810
    110  CE3      -21.1140  -32.3890    5.5380 C.ar  186  TRP186      0.0012
    111  CZ2      -22.9100  -34.5640    5.9170 C.ar  186  TRP186      0.0191
    112  CZ3      -22.4920  -32.2380    5.3570 C.ar  186  TRP186      0.0001
    113  CH2      -23.3740  -33.3240    5.5520 C.ar  186  TRP186      0.0015
    114  N        -18.3870  -30.5660    8.4290 N.am  187  VAL187     -0.1977
    115  CA       -18.8480  -29.1870    8.4160 C.3   187  VAL187      0.1596
    116  C        -18.0080  -28.2410    9.2650 C.2   187  VAL187      0.2287
    117  O        -17.3770  -28.6490   10.2450 O.2   187  VAL187     -0.2864
    118  CB       -20.3350  -29.0670    8.8400 C.3   187  VAL187      0.0276
    119  CG1      -21.2340  -29.6250    7.7640 C.3   187  VAL187      0.0022
    120  CG2      -20.5870  -29.7200   10.2030 C.3   187  VAL187      0.0022
@<TRIPOS>BOND
     1     4     3    2
     2     3     2    1
     3     1     2    1
     4     2     5    1
     5     5     6    1
     6     6     8   ar
     7     6     7   ar
     8     8    10   ar
     9     7     9   ar
    10    10    11   ar
    11     9    11   ar
    12   112   110   ar
    13   112   113   ar
    14   110   107   ar
    15   113   111   ar
    16   111   109   ar
    17   107   109   ar
    18   107   105   ar
    19   109   108   ar
    20   104   105    1
    21   104   101    1
    22   103   102    2
    23   105   106   ar
    24    12    13    1
    25   108   106   ar
    26    18    20   ar
    27    18    17   ar
    28    20    22   ar
    29   102   101    1
    30   102   114   am
    31   101   100    1
    32    15    14    2
    33    30    28    1
    34   119   118    1
    35    13    16    1
    36    13    14    1
    37    16    17    1
    38    17    19   ar
    39    57    56    2
    40    29    28    1
    41    22    21   ar
    42   115   114    1
    43   115   118    1
    44   115   116    1
    45    96    95    2
    46    56    55    1
    47   100    95   am
    48    28    27    1
    49   118   120    1
    50    95    94    1
    51    19    21   ar
    52    27    24    1
    53   116   117    2
    54    97    94    1
    55    97    98    1
    56    24    25    1
    57    24    23    1
    58    55    58    1
    59    55    54    1
    60    25    26    2
    61    94    93    1
    62    58    59    1
    63    98    99    1
    64    93    99    1
    65    59    60   ar
    66    59    61   ar
    67    37    36    1
    68    60    62   ar
    69    52    51    2
    70    61    63   ar
    71    36    38    1
    72    36    35    1
    73    92    90   ar
    74    92    91   ar
    75    50    51    1
    76    50    47    1
    77    51    53   am
    78    90    88   ar
    79    31    32    1
    80    62    63   ar
    81    91    89   ar
    82    70    68    1
    83    35    32    1
    84    48    49    2
    85    48    47    1
    86    69    68    1
    87    47    46    1
    88    68    65    1
    89    88    87   ar
    90    88    86   ar
    91    32    33    1
    92    89    86   ar
    93    87    85   ar
    94    86    84   ar
    95    34    33    2
    96    65    64    1
    97    65    66    1
    98    78    76    1
    99    85    84   ar
   100    84    83    1
   101    42    41    2
   102    66    67    2
   103    66    71   am
   104    76    77    1
   105    76    75    1
   106    45    43    1
   107    71    72    1
   108    83    80    1
   109    41    40    1
   110    72    75    1
   111    72    73    1
   112    39    40    1
   113    43    40    1
   114    43    44    1
   115    80    79    1
   116    80    81    1
   117    73    74    2
   118    81    82    2
