@<TRIPOS>MOLECULE
tmp/3srgA00.pdb
 126 118 0 0 0
SMALL
GASTEIGER

@<TRIPOS>ATOM
      1  N         -9.2670  -30.3970   30.7060 N.3    35  GLU35      -0.1245
      2  CA        -8.5580  -29.3000   30.0250 C.3    35  GLU35       0.1567
      3  C         -7.6040  -29.8140   29.0630 C.2    35  GLU35       0.2260
      4  O         -7.4500  -29.2080   28.0410 O.2    35  GLU35      -0.2867
      5  CB        -7.8800  -28.2630   31.0190 C.3    35  GLU35       0.0388
      6  CG        -7.4930  -26.9750   30.2890 C.3    35  GLU35       0.1160
      7  CD        -6.2070  -27.0340   29.5260 C.2    35  GLU35       0.3649
      8  OE1       -5.4000  -27.9520   29.7750 O.co2  35  GLU35      -0.2457
      9  OE2       -5.9950  -26.1340   28.6930 O.co2  35  GLU35      -0.2457
     10  N         -9.4240  -28.4700   36.9310 N.3    51  LEU51      -0.1245
     11  CA        -8.5880  -27.3470   37.0180 C.3    51  LEU51       0.1561
     12  C         -9.3060  -26.1660   37.7010 C.2    51  LEU51       0.2260
     13  O        -10.4610  -25.8350   37.3490 O.2    51  LEU51      -0.2867
     14  CB        -8.1610  -26.8990   35.6200 C.3    51  LEU51       0.0270
     15  CG        -7.4730  -25.5480   35.4620 C.3    51  LEU51       0.0019
     16  CD1       -6.1000  -25.5400   36.1630 C.3    51  LEU51       0.0001
     17  CD2       -7.2820  -25.2920   33.9040 C.3    51  LEU51       0.0001
     18  N         -8.5030  -22.2280   37.9090 N.3    53  TYR53      -0.1241
     19  CA        -7.6360  -21.2110   37.3170 C.3    53  TYR53       0.1605
     20  C         -8.1980  -19.8870   37.7420 C.2    53  TYR53       0.2264
     21  O         -9.4220  -19.7080   37.6630 O.2    53  TYR53      -0.2867
     22  CB        -7.7090  -21.2910   35.7780 C.3    53  TYR53       0.0534
     23  CG        -6.5870  -20.5780   35.0380 C.ar   53  TYR53      -0.0201
     24  CD1       -5.4170  -21.2470   34.7170 C.ar   53  TYR53      -0.0009
     25  CD2       -6.6920  -19.2050   34.6690 C.ar   53  TYR53      -0.0009
     26  CE1       -4.3660  -20.6070   34.0230 C.ar   53  TYR53       0.0417
     27  CE2       -5.6420  -18.5430   33.9690 C.ar   53  TYR53       0.0417
     28  CZ        -4.4870  -19.2750   33.6430 C.ar   53  TYR53       0.1957
     29  OH        -3.4420  -18.6750   32.9570 O.3    53  TYR53      -0.2866
     30  N        -11.2790  -17.7970   36.5940 N.3    56  ILE56      -0.1245
     31  CA       -12.0580  -18.6940   35.7280 C.3    56  ILE56       0.1561
     32  C        -13.0410  -19.5690   36.5450 C.2    56  ILE56       0.2260
     33  O        -12.7470  -19.9940   37.6720 O.2    56  ILE56      -0.2867
     34  CB       -11.1180  -19.5760   34.7700 C.3    56  ILE56       0.0252
     35  CG1      -10.2060  -18.6780   33.9380 C.3    56  ILE56       0.0019
     36  CG2      -11.9290  -20.7130   33.9390 C.3    56  ILE56       0.0019
     37  CD1      -10.9220  -17.6610   32.9820 C.3    56  ILE56       0.0001
     38  N         -3.3520  -29.3490   34.8840 N.3    97  HIS97      -0.1241
     39  CA        -3.6220  -28.3820   33.7790 C.3    97  HIS97       0.1621
     40  C         -3.1170  -29.1180   32.5090 C.2    97  HIS97       0.2264
     41  O         -3.4940  -30.2630   32.3130 O.2    97  HIS97      -0.2867
     42  CB        -2.9110  -27.0520   34.1370 C.3    97  HIS97       0.0745
     43  CG        -3.2530  -25.9250   33.2140 C.ar   97  HIS97       0.0817
     44  ND1       -2.8230  -24.6260   33.4040 N.ar   97  HIS97      -0.2268
     45  CD2       -4.0370  -25.9060   32.0920 C.ar   97  HIS97       0.1154
     46  CE1       -3.3630  -23.8470   32.4740 C.ar   97  HIS97       0.1986
     47  NE2       -4.0870  -24.6010   31.6520 N.ar   97  HIS97      -0.2212
     48  N          1.3700  -23.5010   31.3860 N.3   150  ASN150     -0.1240
     49  CA         0.0000  -23.7950   30.8360 C.3   150  ASN150      0.1653
     50  C          0.0010  -25.1730   30.2750 C.2   150  ASN150      0.2266
     51  O         -0.7690  -26.0590   30.6700 O.2   150  ASN150     -0.2867
     52  CB        -0.3510  -22.7760   29.7500 C.3   150  ASN150      0.1155
     53  CG        -1.7880  -22.9140   29.2900 C.2   150  ASN150      0.2627
     54  OD1       -2.1070  -23.9240   28.7140 O.2   150  ASN150     -0.2716
     55  ND2       -2.6730  -22.0100   29.6950 N.am  150  ASN150     -0.0877
     56  N         -0.3260  -14.6710   25.7590 N.3   204  PHE204     -0.1241
     57  CA        -0.9160  -15.8740   26.3820 C.3   204  PHE204      0.1605
     58  C         -0.5860  -17.1890   25.5950 C.2   204  PHE204      0.2264
     59  O         -1.4980  -17.7870   24.9580 O.2   204  PHE204     -0.2867
     60  CB        -2.4550  -15.6170   26.5870 C.3   204  PHE204      0.0534
     61  CG        -3.1000  -16.4450   27.6810 C.ar  204  PHE204     -0.0203
     62  CD1       -3.7280  -15.8350   28.7880 C.ar  204  PHE204     -0.0042
     63  CD2       -3.2060  -17.8410   27.5530 C.ar  204  PHE204     -0.0042
     64  CE1       -4.4170  -16.6280   29.7890 C.ar  204  PHE204     -0.0003
     65  CE2       -3.8440  -18.6270   28.5350 C.ar  204  PHE204     -0.0003
     66  CZ        -4.4480  -18.0200   29.6640 C.ar  204  PHE204     -0.0000
     67  N         -0.0580  -20.9770   25.0230 N.3   206  ASN206     -0.1240
     68  CA        -0.9830  -21.8750   25.6760 C.3   206  ASN206      0.1653
     69  C         -0.5960  -23.2740   25.2160 C.2   206  ASN206      0.2266
     70  O          0.3200  -23.9130   25.7800 O.2   206  ASN206     -0.2867
     71  CB        -2.4510  -21.4560   25.2320 C.3   206  ASN206      0.1155
     72  CG        -3.5070  -22.1130   26.0650 C.2   206  ASN206      0.2627
     73  OD1       -3.4180  -23.3370   26.3910 O.2   206  ASN206     -0.2716
     74  ND2       -4.4370  -21.3320   26.5360 N.am  206  ASN206     -0.0877
     75  N         -2.8820  -17.8370   22.4350 N.3   222  LEU222     -0.1245
     76  CA        -4.3310  -17.7300   22.6110 C.3   222  LEU222      0.1561
     77  C         -4.9610  -16.3660   22.2270 C.2   222  LEU222      0.2260
     78  O         -5.9120  -16.3130   21.3950 O.2   222  LEU222     -0.2867
     79  CB        -4.6720  -18.0870   24.0550 C.3   222  LEU222      0.0270
     80  CG        -6.2120  -17.9640   24.3580 C.3   222  LEU222      0.0019
     81  CD1       -6.8060  -19.3610   24.3060 C.3   222  LEU222      0.0001
     82  CD2       -6.4040  -17.4940   25.7450 C.3   222  LEU222      0.0001
     83  N         -6.3310  -22.9150   21.8260 N.3   251  ASP251     -0.1239
     84  CA        -5.9690  -23.3200   23.1880 C.3   251  ASP251      0.1674
     85  C         -4.9300  -24.4750   23.0920 C.2   251  ASP251      0.2266
     86  O         -3.7890  -24.1810   22.7810 O.2   251  ASP251     -0.2867
     87  CB        -7.2160  -23.5980   24.0370 C.3   251  ASP251      0.1410
     88  CG        -6.9330  -23.5380   25.5650 C.2   251  ASP251      0.3668
     89  OD1       -7.7150  -22.9000   26.3280 O.co2 251  ASP251     -0.2456
     90  OD2       -5.9050  -24.1040   26.0270 O.co2 251  ASP251     -0.2456
     91  N        -11.5760  -21.4210   21.5230 N.3   267  HIS267     -0.1241
     92  CA       -12.6580  -20.6560   22.1350 C.3   267  HIS267      0.1621
     93  C        -13.0900  -19.5660   21.1160 C.2   267  HIS267      0.2264
     94  O        -12.3070  -18.6480   20.8310 O.2   267  HIS267     -0.2867
     95  CB       -12.1550  -20.0260   23.4290 C.3   267  HIS267      0.0745
     96  CG       -11.5320  -21.0230   24.3600 C.ar  267  HIS267      0.0817
     97  ND1      -12.2770  -21.8890   25.1170 N.ar  267  HIS267     -0.2268
     98  CD2      -10.2340  -21.2950   24.6470 C.ar  267  HIS267      0.1154
     99  CE1      -11.4870  -22.6650   25.8290 C.ar  267  HIS267      0.1986
    100  NE2      -10.2420  -22.3040   25.5740 N.ar  267  HIS267     -0.2212
    101  N        -15.5440  -17.0780   27.6250 N.3   273  ILE273     -0.1231
    102  CA       -14.7680  -18.1070   28.3590 C.3   273  ILE273      0.1692
    103  C        -14.0280  -17.4070   29.5300 C.2   273  ILE273      0.2592
    104  O        -13.7700  -18.0160   30.5580 O.2   273  ILE273     -0.2718
    105  CB       -13.7760  -18.8830   27.3660 C.3   273  ILE273      0.0266
    106  CG1      -13.0160  -20.0080   28.0940 C.3   273  ILE273      0.0019
    107  CG2      -12.7900  -17.9010   26.7070 C.3   273  ILE273      0.0020
    108  CD1      -13.9960  -21.1170   28.7480 C.3   273  ILE273      0.0001
    109  N        -13.6490  -16.1470   29.3620 N.am  274  PHE274     -0.1976
    110  CA       -12.9550  -15.4490   30.4750 C.3   274  PHE274      0.1639
    111  C        -13.9130  -14.8460   31.5440 C.2   274  PHE274      0.2290
    112  O        -13.5370  -14.6680   32.7080 O.2   274  PHE274     -0.2864
    113  CB       -12.0080  -14.3410   29.9440 C.3   274  PHE274      0.0560
    114  CG       -10.6600  -14.8660   29.4650 C.ar  274  PHE274     -0.0200
    115  CD1       -9.5520  -14.8960   30.3680 C.ar  274  PHE274     -0.0042
    116  CD2      -10.4550  -15.2240   28.1250 C.ar  274  PHE274     -0.0042
    117  CE1       -8.2280  -15.3160   29.9370 C.ar  274  PHE274     -0.0003
    118  CE2       -9.1300  -15.6460   27.6570 C.ar  274  PHE274     -0.0003
    119  CZ        -8.0390  -15.7110   28.5800 C.ar  274  PHE274     -0.0000
    120  N        -12.2340  -26.5250   29.5840 N.3   328  VAL328     -0.1245
    121  CA       -11.6090  -26.0230   30.7930 C.3   328  VAL328      0.1561
    122  C        -12.1480  -26.5280   32.1430 C.2   328  VAL328      0.2260
    123  O        -11.3420  -27.0450   32.9810 O.2   328  VAL328     -0.2867
    124  CB       -11.2560  -24.4710   30.7980 C.3   328  VAL328      0.0252
    125  CG1      -11.3570  -23.6620   29.5530 C.3   328  VAL328      0.0019
    126  CG2      -11.0050  -23.8400   32.0990 C.3   328  VAL328      0.0019
@<TRIPOS>BOND
     1    94    93    2
     2    93    92    1
     3    78    77    2
     4    91    92    1
     5    83    84    1
     6    92    95    1
     7    77    76    1
     8    75    76    1
     9    76    79    1
    10    86    85    2
    11    85    84    1
    12    84    87    1
    13    95    96    1
    14    87    88    1
    15    79    80    1
    16    81    80    1
    17    80    82    1
    18    96    98   ar
    19    96    97   ar
    20    98   100   ar
    21    59    58    2
    22    67    68    1
    23    97    99   ar
    24    69    68    1
    25    69    70    2
    26    71    68    1
    27    71    72    1
    28    88    90   ar
    29    88    89   ar
    30   100    99   ar
    31    58    57    1
    32    56    57    1
    33    72    73    2
    34    72    74   am
    35    57    60    1
    36    60    61    1
    37   107   105    1
    38   105   106    1
    39   105   102    1
    40    63    61   ar
    41    63    65   ar
    42   101   102    1
    43   118   116   ar
    44   118   119   ar
    45    61    62   ar
    46     4     3    2
    47   106   108    1
    48   116   114   ar
    49   102   103    1
    50    65    66   ar
    51   119   117   ar
    52     9     7   ar
    53    54    53    2
    54    62    64   ar
    55     3     2    1
    56    53    55   am
    57    53    52    1
    58   109   103   am
    59   109   110    1
    60   114   113    1
    61   114   115   ar
    62     7     8   ar
    63     7     6    1
    64   103   104    2
    65   125   124    1
    66   120   121    1
    67    66    64   ar
    68    52    49    1
    69   117   115   ar
    70   113   110    1
    71     2     1    1
    72     2     5    1
    73    50    51    2
    74    50    49    1
    75     6     5    1
    76   110   111    1
    77   121   124    1
    78   121   122    1
    79   124   126    1
    80    49    48    1
    81   111   112    2
    82    47    45   ar
    83    47    46   ar
    84    45    43   ar
    85   122   123    2
    86    41    40    2
    87    46    44   ar
    88    40    39    1
    89    29    28    1
    90    37    35    1
    91    43    44   ar
    92    43    42    1
    93    28    27   ar
    94    28    26   ar
    95    39    42    1
    96    39    38    1
    97    17    15    1
    98    35    34    1
    99    36    34    1
   100    27    25   ar
   101    26    24   ar
   102    25    23   ar
   103    24    23   ar
   104    34    31    1
   105    23    22    1
   106    15    14    1
   107    15    16    1
   108    14    11    1
   109    31    32    1
   110    31    30    1
   111    22    19    1
   112    32    33    2
   113    10    11    1
   114    11    12    1
   115    19    20    1
   116    19    18    1
   117    13    12    2
   118    21    20    2
