@<TRIPOS>MOLECULE
tmp/3srjA00.pdb
 100 98 0 0 0
SMALL
GASTEIGER

@<TRIPOS>ATOM
      1  N          6.7870    8.8730   33.4170 N.3    66  THR66      -0.1203
      2  CA         7.7060    7.9370   34.0400 C.3    66  THR66       0.1994
      3  C          7.5700    6.4970   33.5190 C.2    66  THR66       0.2618
      4  O          6.5680    6.1650   32.8930 O.2    66  THR66      -0.2717
      5  CB         7.6170    8.1590   35.5700 C.3    66  THR66       0.1784
      6  OG1        8.9100    8.4490   36.0860 O.3    66  THR66      -0.2211
      7  CG2        6.9220    7.0260   36.3350 C.3    66  THR66       0.0376
      8  N          8.5860    5.6790   33.7760 N.am   67  GLY67      -0.1956
      9  CA         8.6240    4.2720   33.3830 C.3    67  GLY67       0.1869
     10  C          8.4270    3.9970   31.9120 C.2    67  GLY67       0.2309
     11  O          9.1250    4.5670   31.0730 O.2    67  GLY67      -0.2863
     12  N         12.1560   18.2210   33.2460 N.3    78  PHE78      -0.1228
     13  CA        12.7460   17.4060   34.2930 C.3    78  PHE78       0.1721
     14  C         11.6880   16.9130   35.2710 C.2    78  PHE78       0.2437
     15  O         10.7660   17.6790   35.6250 O.2    78  PHE78      -0.2733
     16  CB        13.8490   18.1820   35.0110 C.3    78  PHE78       0.0547
     17  CG        15.1310   17.4110   35.1350 C.ar   78  PHE78      -0.0202
     18  CD1       16.0120   17.3280   34.0720 C.ar   78  PHE78      -0.0042
     19  CD2       15.4590   16.7590   36.3210 C.ar   78  PHE78      -0.0042
     20  CE1       17.2090   16.6150   34.1900 C.ar   78  PHE78      -0.0003
     21  CE2       16.6550   16.0410   36.4410 C.ar   78  PHE78      -0.0003
     22  CZ        17.5280   15.9770   35.3740 C.ar   78  PHE78      -0.0000
     23  N         11.7120   15.5970   35.6090 N.am   79  PRO79      -0.2718
     24  CA        10.7010   15.0810   36.5510 C.3    79  PRO79       0.1520
     25  C         11.0000   15.5700   37.9890 C.2    79  PRO79       0.2440
     26  O         12.1070   16.0610   38.2170 O.2    79  PRO79      -0.2731
     27  CB        10.7950   13.5570   36.3900 C.3    79  PRO79       0.0310
     28  CG        12.1520   13.3030   35.7930 C.3    79  PRO79       0.0237
     29  CD        12.7340   14.5780   35.2820 C.3    79  PRO79       0.0939
     30  N         10.0430   15.5240   38.9540 N.am   80  PRO80      -0.2716
     31  CA        10.3590   16.0300   40.3130 C.3    80  PRO80       0.1536
     32  C         11.4750   15.2420   40.9900 C.2    80  PRO80       0.2599
     33  O         11.5130   14.0140   40.9010 O.2    80  PRO80      -0.2715
     34  CB         9.0380   15.9120   41.0780 C.3    80  PRO80       0.0310
     35  CG         7.9690   15.7050   40.0180 C.3    80  PRO80       0.0237
     36  CD         8.6490   15.0310   38.8630 C.3    80  PRO80       0.0939
     37  N         12.4160   15.9680   41.5960 N.am   81  THR81      -0.1937
     38  CA        13.5790   15.4060   42.2960 C.3    81  THR81       0.2028
     39  C         13.5800   15.7940   43.7850 C.2    81  THR81       0.2645
     40  O         12.7970   16.6530   44.1890 O.2    81  THR81      -0.2714
     41  CB        14.8800   15.9150   41.6540 C.3    81  THR81       0.1808
     42  OG1       14.7930   17.3380   41.5120 O.3    81  THR81      -0.2208
     43  CG2       15.1880   15.2470   40.3140 C.3    81  THR81       0.0379
     44  N         14.4790   15.1690   44.5840 N.am   82  GLU82      -0.1917
     45  CA        14.6500   15.4400   46.0090 C.3    82  GLU82       0.1934
     46  C         16.0980   15.8610   46.3450 C.2    82  GLU82       0.2500
     47  O         16.9990   15.0090   46.3970 O.2    82  GLU82      -0.2726
     48  CB        14.0990   14.2990   46.9130 C.2    82  GLU82       0.0111
     49  CG        14.6520   12.9060   46.6400 C.2    82  GLU82       0.0838
     50  CD        14.0380   11.7430   47.4020 C.2    82  GLU82       0.3877
     51  OE1       14.7610   10.7430   47.6190 O.co2  82  GLU82      -0.2406
     52  OE2       12.8350   11.8110   47.7480 O.co2  82  GLU82      -0.2406
     53  N         16.3730   17.1760   46.5340 N.am   83  PRO83      -0.2724
     54  CA        15.4500   18.3310   46.4920 C.3    83  PRO83       0.1402
     55  C         15.0150   18.6930   45.0690 C.2    83  PRO83       0.2269
     56  O         15.6420   18.2430   44.1050 O.2    83  PRO83      -0.2865
     57  CB        16.2720   19.4410   47.1570 C.3    83  PRO83       0.0296
     58  CG        17.6810   19.1180   46.7640 C.3    83  PRO83       0.0237
     59  CD        17.7550   17.6110   46.8290 C.3    83  PRO83       0.0939
     60  N         14.8110   20.3390   41.7490 N.3    85  MET85      -0.1245
     61  CA        15.7340   21.0590   40.8630 C.3    85  MET85       0.1570
     62  C         15.0580   21.8330   39.7540 C.2    85  MET85       0.2261
     63  O         15.5700   22.8680   39.3180 O.2    85  MET85      -0.2867
     64  CB        16.8170   20.1240   40.3230 C.3    85  MET85       0.0387
     65  CG        17.7750   19.6670   41.3990 C.3    85  MET85       0.0595
     66  SD        18.7430   21.0040   42.1340 S.3    85  MET85      -0.1393
     67  CE        17.8370   21.2900   43.6240 C.3    85  MET85       0.0692
     68  N         23.1270   19.4990   36.3050 N.3   119  MET119     -0.1230
     69  CA        22.5950   18.1480   36.4040 C.3   119  MET119      0.1702
     70  C         23.4120   17.1010   35.6470 C.2   119  MET119      0.2592
     71  O         23.5300   17.1660   34.4310 O.2   119  MET119     -0.2718
     72  CB        21.0900   18.0910   36.0320 C.3   119  MET119      0.0401
     73  CG        20.2530   19.1460   36.7290 C.3   119  MET119      0.0596
     74  SD        20.6240   19.3110   38.5060 S.3   119  MET119     -0.1393
     75  CE        20.6780   21.1380   38.6810 C.3   119  MET119      0.0692
     76  N         23.9590   16.1240   36.3710 N.am  120  ILE120     -0.1980
     77  CA        24.7200   15.0460   35.7460 C.3   120  ILE120      0.1595
     78  C         23.7710   13.8670   35.5170 C.2   120  ILE120      0.2287
     79  O         23.2380   13.3430   36.4960 O.2   120  ILE120     -0.2864
     80  CB        25.9530   14.6100   36.5710 C.3   120  ILE120      0.0276
     81  CG1       26.9060   15.7960   36.8480 C.3   120  ILE120      0.0022
     82  CG2       26.6710   13.4550   35.8550 C.3   120  ILE120      0.0022
     83  CD1       27.8990   15.5380   37.9760 C.3   120  ILE120      0.0001
     84  N         24.1510   10.2980   37.4680 N.3   123  ASN123     -0.1240
     85  CA        25.2630   10.6190   38.3500 C.3   123  ASN123      0.1653
     86  C         26.5830   10.0240   37.7850 C.2   123  ASN123      0.2266
     87  O         27.4960    9.6550   38.5350 O.2   123  ASN123     -0.2867
     88  CB        24.9690   10.2500   39.8210 C.3   123  ASN123      0.1155
     89  CG        25.9440   10.8400   40.8010 C.2   123  ASN123      0.2627
     90  OD1       26.5770   11.8590   40.5520 O.2   123  ASN123     -0.2716
     91  ND2       26.1220   10.1810   41.9180 N.am  123  ASN123     -0.0877
     92  N         29.8930   10.3980   36.7850 N.3   125  LYS125     -0.1245
     93  CA        30.9670   11.3690   37.0260 C.3   125  LYS125      0.1561
     94  C         31.8440   11.6590   35.8080 C.2   125  LYS125      0.2260
     95  O         32.5410   12.6650   35.8000 O.2   125  LYS125     -0.2867
     96  CB        31.8200   10.9990   38.2650 C.3   125  LYS125      0.0271
     97  CG        31.0380   10.8560   39.5900 C.3   125  LYS125      0.0035
     98  CD        30.3920   12.1620   40.0770 C.3   125  LYS125      0.0206
     99  CE        29.7810   12.0290   41.4470 C.3   125  LYS125      0.1093
    100  NZ        30.7790   12.2650   42.5270 N.3   125  LYS125     -0.1314
@<TRIPOS>BOND
     1    11    10    2
     2    10     9    1
     3     4     3    2
     4    12    13    1
     5     9     8    1
     6     1     2    1
     7     3     8   am
     8     3     2    1
     9     2     5    1
    10    18    20   ar
    11    18    17   ar
    12    20    22   ar
    13    13    16    1
    14    13    14    1
    15    71    70    2
    16    16    17    1
    17    17    19   ar
    18    14    23   am
    19    14    15    2
    20    29    23    1
    21    29    28    1
    22    22    21   ar
    23    78    77    1
    24    78    79    2
    25     5     6    1
    26     5     7    1
    27    23    24    1
    28    70    76   am
    29    70    69    1
    30    77    76    1
    31    77    80    1
    32    28    27    1
    33    95    94    2
    34    94    93    1
    35    82    80    1
    36    72    69    1
    37    72    73    1
    38    68    69    1
    39    19    21   ar
    40    27    24    1
    41    24    25    1
    42    80    81    1
    43    73    74    1
    44    92    93    1
    45    81    83    1
    46    93    96    1
    47    84    85    1
    48    86    85    1
    49    86    87    2
    50    25    26    2
    51    25    30   am
    52    96    97    1
    53    85    88    1
    54    74    75    1
    55    36    30    1
    56    36    35    1
    57    30    31    1
    58    63    62    2
    59    97    98    1
    60    62    61    1
    61    88    89    1
    62    35    34    1
    63    98    99    1
    64    31    32    1
    65    31    34    1
    66    43    41    1
    67    64    61    1
    68    64    65    1
    69    90    89    2
    70    89    91   am
    71    61    60    1
    72    33    32    2
    73    32    37   am
    74    65    66    1
    75    99   100    1
    76    42    41    1
    77    37    38    1
    78    41    38    1
    79    66    67    1
    80    38    39    1
    81    39    40    2
    82    39    44   am
    83    56    55    2
    84    44    45    1
    85    55    54    1
    86    45    46    1
    87    45    48    1
    88    46    47    2
    89    46    53   am
    90    54    53    1
    91    54    57    1
    92    53    59    1
    93    49    48    2
    94    49    50    1
    95    58    59    1
    96    58    57    1
    97    50    51   ar
    98    50    52   ar
