@<TRIPOS>MOLECULE
tmp/3srkA00.pdb
 84 83 0 0 0
SMALL
GASTEIGER

@<TRIPOS>ATOM
      1  N         18.2300   28.9260    7.2520 N.3    27  THR27      -0.1203
      2  CA        17.2950   27.8060    7.3520 C.3    27  THR27       0.1994
      3  C         15.8690   28.3430    7.3380 C.2    27  THR27       0.2618
      4  O         15.5440   29.2750    8.0740 O.2    27  THR27      -0.2717
      5  CB        17.5410   26.9550    8.6170 C.3    27  THR27       0.1784
      6  OG1       18.9090   26.5320    8.6470 O.3    27  THR27      -0.2211
      7  CG2       16.6490   25.7250    8.6290 C.3    27  THR27       0.0376
      8  N         15.0290   27.7560    6.4900 N.am   28  ILE28      -0.1965
      9  CA        13.6510   28.2150    6.3250 C.3    28  ILE28       0.1727
     10  C         12.7070   27.4310    7.2330 C.2    28  ILE28       0.2617
     11  O         12.6550   26.2000    7.1820 O.2    28  ILE28      -0.2715
     12  CB        13.1730   28.1320    4.8400 C.3    28  ILE28       0.0290
     13  CG1       14.2280   28.6910    3.8650 C.3    28  ILE28       0.0022
     14  CG2       11.8110   28.8130    4.6580 C.3    28  ILE28       0.0023
     15  CD1       14.6730   30.1410    4.1140 C.3    28  ILE28       0.0001
     16  N         11.9730   28.1580    8.0700 N.am   29  GLY29      -0.1941
     17  CA        11.0010   27.5600    8.9780 C.3    29  GLY29       0.1998
     18  C          9.7150   28.3630    9.0600 C.2    29  GLY29       0.2480
     19  O          9.4130   29.1420    8.1510 O.2    29  GLY29      -0.2729
     20  N          8.9480   28.1780   10.1530 N.am   30  PRO30      -0.2726
     21  CA         7.6640   28.8570   10.3650 C.3    30  PRO30       0.1402
     22  C          7.7260   30.3750   10.1810 C.2    30  PRO30       0.2269
     23  O          6.7750   30.9710    9.6720 O.2    30  PRO30      -0.2865
     24  CB         7.3220   28.5060   11.8160 C.3    30  PRO30       0.0296
     25  CG         7.9580   27.1810   12.0280 C.3    30  PRO30       0.0237
     26  CD         9.2390   27.2150   11.2330 C.3    30  PRO30       0.0939
     27  N         15.6440   21.7610    6.4700 N.3    52  ASN52      -0.1240
     28  CA        15.9730   20.7600    7.4820 C.3    52  ASN52       0.1653
     29  C         14.9820   19.6020    7.4720 C.2    52  ASN52       0.2266
     30  O         13.8180   19.7580    7.8510 O.2    52  ASN52      -0.2867
     31  CB        16.0520   21.3910    8.8780 C.3    52  ASN52       0.1155
     32  CG        16.6430   20.4490    9.9210 C.2    52  ASN52       0.2627
     33  OD1       17.1080   19.3530    9.6050 O.2    52  ASN52      -0.2716
     34  ND2       16.6310   20.8820   11.1740 N.am   52  ASN52      -0.0877
     35  N         12.8650   17.6710   10.5570 N.3    55  HIS55      -0.1226
     36  CA        11.4740   18.0270   10.8350 C.3    55  HIS55       0.1752
     37  C         10.7010   18.2000    9.5270 C.2    55  HIS55       0.2596
     38  O         11.2950   18.2290    8.4460 O.2    55  HIS55      -0.2718
     39  CB        11.4100   19.3330   11.6430 C.3    55  HIS55       0.0759
     40  CG        12.2430   19.3220   12.8890 C.ar   55  HIS55       0.0818
     41  ND1       13.5930   19.6070   12.8860 N.ar   55  HIS55      -0.2268
     42  CD2       11.9160   19.0650   14.1790 C.ar   55  HIS55       0.1154
     43  CE1       14.0620   19.5220   14.1180 C.ar   55  HIS55       0.1986
     44  NE2       13.0650   19.1960   14.9220 N.ar   55  HIS55      -0.2212
     45  N          9.3780   18.3080    9.6320 N.am   56  GLY56      -0.1957
     46  CA         8.5240   18.6400    8.4880 C.3    56  GLY56       0.1869
     47  C          8.2960   17.5230    7.4850 C.2    56  GLY56       0.2309
     48  O          9.1040   16.5960    7.3720 O.2    56  GLY56      -0.2863
     49  N          5.2780   20.1150    3.2170 N.3    60  TYR60      -0.1227
     50  CA         5.7950   21.3170    3.8750 C.3    60  TYR60       0.1736
     51  C          7.0270   21.8710    3.1660 C.2    60  TYR60       0.2595
     52  O          7.1010   23.0670    2.8830 O.2    60  TYR60      -0.2718
     53  CB         6.1170   21.0480    5.3500 C.3    60  TYR60       0.0548
     54  CG         6.7630   22.2250    6.0510 C.ar   60  TYR60      -0.0200
     55  CD1        5.9860   23.2560    6.5820 C.ar   60  TYR60      -0.0009
     56  CD2        8.1520   22.3130    6.1780 C.ar   60  TYR60      -0.0009
     57  CE1        6.5720   24.3430    7.2240 C.ar   60  TYR60       0.0417
     58  CE2        8.7490   23.3980    6.8150 C.ar   60  TYR60       0.0417
     59  CZ         7.9530   24.4080    7.3360 C.ar   60  TYR60       0.1957
     60  OH         8.5340   25.4820    7.9700 O.3    60  TYR60      -0.2866
     61  N          7.9930   20.9980    2.8940 N.am   61  HIS61      -0.1975
     62  CA         9.2160   21.3960    2.2010 C.3    61  HIS61       0.1656
     63  C          8.9670   21.7150    0.7270 C.2    61  HIS61       0.2291
     64  O          9.7310   22.4600    0.1130 O.2    61  HIS61      -0.2864
     65  CB        10.2950   20.3240    2.3540 C.3    61  HIS61       0.0771
     66  CG        10.7570   20.1340    3.7650 C.ar   61  HIS61       0.0820
     67  ND1       11.4140   21.1180    4.4720 N.ar   61  HIS61      -0.2267
     68  CD2       10.6620   19.0710    4.5990 C.ar   61  HIS61       0.1154
     69  CE1       11.6980   20.6720    5.6820 C.ar   61  HIS61       0.1986
     70  NE2       11.2550   19.4320    5.7840 N.ar   61  HIS61      -0.2212
     71  N         14.7660   30.1900   10.9520 N.3   335  ALA335     -0.1231
     72  CA        13.6900   29.2000   10.9410 C.3   335  ALA335      0.1694
     73  C         12.5870   29.5280   11.9450 C.2   335  ALA335      0.2591
     74  O         11.4350   29.7340   11.5620 O.2   335  ALA335     -0.2718
     75  CB        14.2410   27.8000   11.1870 C.3   335  ALA335      0.0304
     76  N         12.9590   29.5910   13.2510 N.am  336  LYS336     -0.1980
     77  CA        11.9860   29.7600   14.3300 C.3   336  LYS336      0.1596
     78  C         12.1590   31.1150   15.0400 C.2   336  LYS336      0.2287
     79  O         11.4590   31.4070   16.0080 O.2   336  LYS336     -0.2864
     80  CB        12.1640   28.6050   15.3330 C.3   336  LYS336      0.0298
     81  CG        11.8190   27.2500   14.6960 C.3   336  LYS336      0.0038
     82  CD        12.1560   26.0770   15.6230 C.3   336  LYS336      0.0206
     83  CE        11.4250   24.7950   15.1940 C.3   336  LYS336      0.1093
     84  NZ        12.2590   24.0620   14.2210 N.3   336  LYS336     -0.1314
@<TRIPOS>BOND
     1    64    63    2
     2    63    62    1
     3    62    65    1
     4    62    61    1
     5    65    66    1
     6    52    51    2
     7    61    51   am
     8    51    50    1
     9    49    50    1
    10    66    67   ar
    11    66    68   ar
    12    13    15    1
    13    13    12    1
    14    50    53    1
    15    67    69   ar
    16    68    70   ar
    17    14    12    1
    18    12     9    1
    19    53    54    1
    20    69    70   ar
    21    54    56   ar
    22    54    55   ar
    23    56    58   ar
    24     9     8    1
    25     9    10    1
    26    27    28    1
    27     8     3   am
    28    55    57   ar
    29    58    59   ar
    30    11    10    2
    31    57    59   ar
    32    10    16   am
    33     1     2    1
    34    59    60    1
    35     3     2    1
    36     3     4    2
    37     2     5    1
    38    48    47    2
    39    29    28    1
    40    29    30    2
    41    28    31    1
    42    47    46    1
    43    16    17    1
    44    19    18    2
    45    38    37    2
    46    46    45    1
    47     5     7    1
    48     5     6    1
    49    31    32    1
    50    17    18    1
    51    18    20   am
    52    37    45   am
    53    37    36    1
    54    33    32    2
    55    23    22    2
    56    32    34   am
    57    20    21    1
    58    20    26    1
    59    22    21    1
    60    21    24    1
    61    35    36    1
    62    36    39    1
    63    72    71    1
    64    72    75    1
    65    72    73    1
    66    26    25    1
    67    74    73    2
    68    39    40    1
    69    24    25    1
    70    73    76   am
    71    41    40   ar
    72    41    43   ar
    73    40    42   ar
    74    76    77    1
    75    43    44   ar
    76    42    44   ar
    77    84    83    1
    78    77    78    1
    79    77    80    1
    80    81    80    1
    81    81    82    1
    82    78    79    2
    83    83    82    1
