@<TRIPOS>MOLECULE
tmp/3srqA01.pdb
 128 120 0 0 0
SMALL
GASTEIGER

@<TRIPOS>ATOM
      1  N         -2.5250  -25.0060   -0.5900 N.3     5  LEU5       -0.1231
      2  CA        -3.7730  -25.3510    0.0990 C.3     5  LEU5        0.1693
      3  C         -3.3910  -25.4680    1.5610 C.2     5  LEU5        0.2592
      4  O         -2.4960  -26.2490    1.8850 O.2     5  LEU5       -0.2718
      5  CB        -4.2570  -26.7200   -0.3960 C.3     5  LEU5        0.0284
      6  CG        -5.5970  -27.2860    0.0730 C.3     5  LEU5        0.0019
      7  CD1       -6.7360  -26.2690   -0.0500 C.3     5  LEU5        0.0001
      8  CD2       -5.9480  -28.5560   -0.7510 C.3     5  LEU5        0.0001
      9  N         -4.0250  -24.6870    2.4410 N.am    6  VAL6       -0.1966
     10  CA        -3.6140  -24.7000    3.8570 C.3     6  VAL6        0.1727
     11  C         -4.7910  -24.2750    4.7460 C.2     6  VAL6        0.2616
     12  O         -5.6700  -23.5000    4.3130 O.2     6  VAL6       -0.2715
     13  CB        -2.3870  -23.7540    4.0940 C.3     6  VAL6        0.0290
     14  CG1       -2.7450  -22.2880    3.7420 C.3     6  VAL6        0.0023
     15  CG2       -1.8630  -23.8150    5.5640 C.3     6  VAL6        0.0023
     16  N         -4.8110  -24.7810    5.9830 N.am    7  ALA7       -0.1977
     17  CA        -5.6830  -24.2510    7.0190 C.3     7  ALA7        0.1597
     18  C         -4.7720  -23.6670    8.1010 C.2     7  ALA7        0.2287
     19  O         -3.8680  -24.3490    8.5950 O.2     7  ALA7       -0.2864
     20  CB        -6.5740  -25.3660    7.6080 C.3     7  ALA7        0.0319
     21  N         -3.2100  -31.8900   12.8530 N.3    20  LEU20      -0.1245
     22  CA        -3.8570  -30.5670   12.8770 C.3    20  LEU20       0.1561
     23  C         -4.4260  -30.3200   14.2900 C.2    20  LEU20       0.2260
     24  O         -4.8890  -31.2550   14.9490 O.2    20  LEU20      -0.2867
     25  CB        -4.9100  -30.4550   11.7520 C.3    20  LEU20       0.0270
     26  CG        -4.2950  -29.9220   10.4280 C.3    20  LEU20       0.0019
     27  CD1       -3.3620  -30.9240    9.7750 C.3    20  LEU20       0.0001
     28  CD2       -5.3340  -29.3950    9.3850 C.3    20  LEU20       0.0001
     29  N        -13.6210  -28.2790    6.6470 N.3    27  ASP27      -0.1225
     30  CA       -12.3670  -28.0070    5.9620 C.3    27  ASP27       0.1805
     31  C        -11.9630  -29.2220    5.1370 C.2    27  ASP27       0.2597
     32  O        -11.4080  -29.0860    4.0490 O.2    27  ASP27      -0.2718
     33  CB       -11.2450  -27.6500    6.9450 C.3    27  ASP27       0.1424
     34  CG        -9.9070  -27.4970    6.2530 C.2    27  ASP27       0.3668
     35  OD1       -9.7340  -26.5370    5.4670 O.co2  27  ASP27      -0.2456
     36  OD2       -9.0380  -28.3570    6.4600 O.co2  27  ASP27      -0.2456
     37  N        -12.2110  -30.4210    5.6610 N.am   28  LEU28      -0.1979
     38  CA       -11.8460  -31.6140    4.9050 C.3    28  LEU28       0.1596
     39  C        -12.6890  -31.7340    3.6420 C.2    28  LEU28       0.2287
     40  O        -12.1800  -32.1530    2.6030 O.2    28  LEU28      -0.2864
     41  CB       -11.9420  -32.8810    5.7700 C.3    28  LEU28       0.0297
     42  CG       -10.6530  -33.2700    6.5260 C.3    28  LEU28       0.0022
     43  CD1       -9.9630  -32.1810    7.3030 C.3    28  LEU28       0.0001
     44  CD2      -10.9230  -34.4980    7.4360 C.3    28  LEU28       0.0001
     45  N        -13.8520  -29.1920    1.9600 N.3    30  HIS30      -0.1226
     46  CA       -13.2250  -28.1530    1.1290 C.3    30  HIS30       0.1752
     47  C        -12.0030  -28.7240    0.3970 C.2    30  HIS30       0.2595
     48  O        -11.8330  -28.5380   -0.8040 O.2    30  HIS30      -0.2718
     49  CB       -12.8570  -26.9770    2.0570 C.3    30  HIS30       0.0759
     50  CG       -12.1660  -25.8250    1.3950 C.ar   30  HIS30       0.0818
     51  ND1      -12.7830  -25.0260    0.4570 N.ar   30  HIS30      -0.2268
     52  CD2      -10.9390  -25.2820    1.6040 C.ar   30  HIS30       0.1154
     53  CE1      -11.9600  -24.0540    0.0960 C.ar   30  HIS30       0.1986
     54  NE2      -10.8370  -24.1820    0.7810 N.ar   30  HIS30      -0.2212
     55  N        -11.1470  -29.4280    1.1300 N.am   31  VAL31      -0.1980
     56  CA        -9.9650  -30.0420    0.5390 C.3    31  VAL31       0.1595
     57  C        -10.3730  -31.0680   -0.5180 C.2    31  VAL31       0.2287
     58  O         -9.8030  -31.1130   -1.6130 O.2    31  VAL31      -0.2864
     59  CB        -9.1280  -30.7400    1.6300 C.3    31  VAL31       0.0276
     60  CG1       -8.1150  -31.7050    1.0060 C.3    31  VAL31       0.0022
     61  CG2       -8.4200  -29.6950    2.4990 C.3    31  VAL31       0.0022
     62  N          3.9680  -34.7900    6.7940 N.3    46  THR46      -0.1218
     63  CA         2.5640  -34.6670    6.4950 C.3    46  THR46       0.1862
     64  C          2.0080  -35.9820    5.9710 C.2    46  THR46       0.2287
     65  O          0.9400  -36.4350    6.3820 O.2    46  THR46      -0.2866
     66  CB         2.3270  -33.5410    5.4960 C.3    46  THR46       0.1770
     67  OG1        2.6410  -32.3020    6.1390 O.3    46  THR46      -0.2211
     68  CG2        0.8610  -33.5090    5.0380 C.3    46  THR46       0.0375
     69  N          1.6350  -38.4560    8.8000 N.3    49  SER49      -0.1202
     70  CA         0.5130  -38.0450    9.6470 C.3    49  SER49       0.2020
     71  C         -0.8280  -38.5580    9.1360 C.2    49  SER49       0.2618
     72  O         -1.7000  -38.9030    9.9350 O.2    49  SER49      -0.2717
     73  CB         0.4530  -36.5050    9.8300 C.3    49  SER49       0.2103
     74  OG        -0.1070  -35.8260    8.7030 O.3    49  SER49      -0.2182
     75  N         -1.0030  -38.6200    7.8180 N.am   50  ILE50      -0.1979
     76  CA        -2.2570  -39.1360    7.2820 C.3    50  ILE50       0.1595
     77  C         -2.1670  -40.6550    7.0720 C.2    50  ILE50       0.2287
     78  O         -3.1840  -41.3580    7.1190 O.2    50  ILE50      -0.2864
     79  CB        -2.6800  -38.4370    5.9790 C.3    50  ILE50       0.0276
     80  CG1       -1.5840  -38.5270    4.9280 C.3    50  ILE50       0.0022
     81  CG2       -3.0180  -36.9700    6.2380 C.3    50  ILE50       0.0022
     82  CD1       -2.0440  -37.9870    3.5640 C.3    50  ILE50       0.0001
     83  N         -1.8330  -42.7890    4.7670 N.3    52  LYS52      -0.1245
     84  CA        -2.0290  -43.3420    3.4220 C.3    52  LYS52       0.1561
     85  C         -2.5010  -42.2520    2.4940 C.2    52  LYS52       0.2260
     86  O         -3.0430  -41.2520    2.9550 O.2    52  LYS52      -0.2867
     87  CB        -3.1030  -44.3980    3.4450 C.3    52  LYS52       0.0271
     88  CG        -4.4700  -43.8040    3.6280 C.3    52  LYS52       0.0035
     89  CD        -4.9030  -43.7780    5.0980 C.3    52  LYS52       0.0206
     90  CE        -6.4070  -43.5250    5.2510 C.3    52  LYS52       0.1093
     91  NZ        -7.2140  -44.7580    4.9900 N.3    52  LYS52      -0.1314
     92  N         -4.5770  -39.8400    0.0080 N.3    54  LEU54      -0.1245
     93  CA        -5.9750  -39.4340   -0.0770 C.3    54  LEU54       0.1561
     94  C         -6.5370  -39.9760   -1.3840 C.2    54  LEU54       0.2260
     95  O         -5.8720  -39.9060   -2.4190 O.2    54  LEU54      -0.2867
     96  CB        -6.0820  -37.9130   -0.0710 C.3    54  LEU54       0.0270
     97  CG        -5.8810  -37.3470    1.3420 C.3    54  LEU54       0.0019
     98  CD1       -5.9660  -35.8450    1.3230 C.3    54  LEU54       0.0001
     99  CD2       -6.9410  -37.9140    2.2560 C.3    54  LEU54       0.0001
    100  N          0.4950  -29.0940   -0.3060 N.3    92  PHE92      -0.1241
    101  CA        -0.4430  -29.5970    0.7140 C.3    92  PHE92       0.1605
    102  C          0.1240  -29.5280    2.1410 C.2    92  PHE92       0.2264
    103  O         -0.5820  -29.8010    3.1290 O.2    92  PHE92      -0.2867
    104  CB        -0.8170  -31.0460    0.3380 C.3    92  PHE92       0.0534
    105  CG        -2.0230  -31.6070    1.0620 C.ar   92  PHE92      -0.0203
    106  CD1       -3.2770  -30.9920    0.9530 C.ar   92  PHE92      -0.0042
    107  CD2       -1.9230  -32.8150    1.7550 C.ar   92  PHE92      -0.0042
    108  CE1       -4.3910  -31.5500    1.5690 C.ar   92  PHE92      -0.0003
    109  CE2       -3.0390  -33.3810    2.3710 C.ar   92  PHE92      -0.0003
    110  CZ        -4.2640  -32.7380    2.2870 C.ar   92  PHE92      -0.0000
    111  N          5.4850  -25.3810    2.7950 N.3    98  PHE98      -0.1241
    112  CA         4.9010  -24.0410    2.6430 C.3    98  PHE98       0.1605
    113  C          5.9820  -22.9520    2.5750 C.2    98  PHE98       0.2264
    114  O          5.8930  -22.0150    1.7660 O.2    98  PHE98      -0.2867
    115  CB         3.9070  -23.7340    3.7670 C.3    98  PHE98       0.0534
    116  CG         2.6530  -24.5690    3.7180 C.ar   98  PHE98      -0.0203
    117  CD1        2.0970  -25.0590    4.8980 C.ar   98  PHE98      -0.0042
    118  CD2        2.0200  -24.8630    2.4920 C.ar   98  PHE98      -0.0042
    119  CE1        0.9420  -25.8450    4.8990 C.ar   98  PHE98      -0.0003
    120  CE2        0.8530  -25.6490    2.4770 C.ar   98  PHE98      -0.0003
    121  CZ         0.2980  -26.1230    3.6840 C.ar   98  PHE98      -0.0000
    122  N         -7.8640  -21.8280    4.4740 N.3   111  THR111     -0.1218
    123  CA        -8.9490  -21.8190    5.4400 C.3   111  THR111      0.1862
    124  C         -8.4120  -21.1050    6.6770 C.2   111  THR111      0.2287
    125  O         -7.5050  -21.6140    7.3620 O.2   111  THR111     -0.2866
    126  CB        -9.4010  -23.2500    5.8330 C.3   111  THR111      0.1770
    127  OG1       -9.8020  -23.9830    4.6650 O.3   111  THR111     -0.2211
    128  CG2      -10.5880  -23.1920    6.8110 C.3   111  THR111      0.0375
@<TRIPOS>BOND
     1    95    94    2
     2    58    57    2
     3    94    93    1
     4    48    47    2
     5     8     6    1
     6     1     2    1
     7    57    56    1
     8     5     6    1
     9     5     2    1
    10   100   101    1
    11    93    96    1
    12    93    92    1
    13    96    97    1
    14     7     6    1
    15    53    51   ar
    16    53    54   ar
    17     2     3    1
    18   104   101    1
    19   104   105    1
    20    47    46    1
    21    47    55   am
    22    51    50   ar
    23    56    55    1
    24    56    59    1
    25   101   102    1
    26    54    52   ar
    27   106   105   ar
    28   106   108   ar
    29    60    59    1
    30   105   107   ar
    31    46    45    1
    32    46    49    1
    33    98    97    1
    34    97    99    1
    35    50    52   ar
    36    50    49    1
    37     3     4    2
    38     3     9   am
    39   108   110   ar
    40    59    61    1
    41   107   109   ar
    42   114   113    2
    43   102   103    2
    44   110   109   ar
    45     9    10    1
    46   120   118   ar
    47   120   121   ar
    48   118   116   ar
    49    85    86    2
    50    85    84    1
    51   113   112    1
    52    40    39    2
    53   112   111    1
    54   112   115    1
    55    84    87    1
    56    84    83    1
    57    87    88    1
    58    82    80    1
    59    88    89    1
    60    39    38    1
    61   121   119   ar
    62   116   115    1
    63   116   117   ar
    64    14    13    1
    65    10    13    1
    66    10    11    1
    67    32    31    2
    68    13    15    1
    69    12    11    2
    70   122   123    1
    71   127   126    1
    72    11    16   am
    73   117   119   ar
    74    38    37    1
    75    38    41    1
    76    80    79    1
    77    91    90    1
    78    68    66    1
    79    89    90    1
    80    31    37   am
    81    31    30    1
    82   123   126    1
    83   123   124    1
    84    35    34   ar
    85    66    67    1
    86    66    63    1
    87    41    42    1
    88   126   128    1
    89    30    29    1
    90    30    33    1
    91    64    65    2
    92    64    63    1
    93    79    81    1
    94    79    76    1
    95    16    17    1
    96    34    36   ar
    97    34    33    1
    98    63    62    1
    99    42    43    1
   100    42    44    1
   101   124   125    2
   102    17    20    1
   103    17    18    1
   104    77    78    2
   105    77    76    1
   106    76    75    1
   107    75    71   am
   108    18    19    2
   109    74    73    1
   110    69    70    1
   111    71    70    1
   112    71    72    2
   113    28    26    1
   114    70    73    1
   115    27    26    1
   116    26    25    1
   117    25    22    1
   118    21    22    1
   119    22    23    1
   120    23    24    2
