@<TRIPOS>MOLECULE
tmp/3srrA00.pdb
 136 129 0 0 0
SMALL
GASTEIGER

@<TRIPOS>ATOM
      1  N          2.4750  -25.0680    0.5300 N.3     5  LEU5       -0.1231
      2  CA         3.7050  -25.3930   -0.1750 C.3     5  LEU5        0.1693
      3  C          3.3060  -25.4770   -1.6360 C.2     5  LEU5        0.2592
      4  O          2.3830  -26.2250   -1.9730 O.2     5  LEU5       -0.2718
      5  CB         4.2320  -26.7470    0.3180 C.3     5  LEU5        0.0284
      6  CG         5.5770  -27.2930   -0.1350 C.3     5  LEU5        0.0019
      7  CD1        6.6920  -26.2750    0.0690 C.3     5  LEU5        0.0001
      8  CD2        5.9080  -28.5800    0.6310 C.3     5  LEU5        0.0001
      9  N          3.9670  -24.7090   -2.5030 N.am    6  VAL6       -0.1966
     10  CA         3.5700  -24.7080   -3.9160 C.3     6  VAL6        0.1727
     11  C          4.7490  -24.2920   -4.8250 C.2     6  VAL6        0.2616
     12  O          5.6230  -23.5370   -4.3920 O.2     6  VAL6       -0.2715
     13  CB         2.3320  -23.7680   -4.1610 C.3     6  VAL6        0.0290
     14  CG1        2.6920  -22.3090   -3.8460 C.3     6  VAL6        0.0023
     15  CG2        1.7810  -23.8840   -5.6060 C.3     6  VAL6        0.0023
     16  N          4.7700  -24.8170   -6.0530 N.am    7  ALA7       -0.1977
     17  CA         5.6080  -24.2790   -7.1220 C.3     7  ALA7        0.1597
     18  C          4.6640  -23.7140   -8.1740 C.2     7  ALA7        0.2287
     19  O          3.7510  -24.4250   -8.6560 O.2     7  ALA7       -0.2864
     20  CB         6.5020  -25.3580   -7.7470 C.3     7  ALA7        0.0319
     21  N         -2.5110  -33.2250  -15.0200 N.3    18  ASN18      -0.1225
     22  CA        -2.2640  -33.9260  -13.7520 C.3    18  ASN18       0.1785
     23  C         -0.8040  -34.2050  -13.4120 C.2    18  ASN18       0.2597
     24  O         -0.4780  -35.0810  -12.5870 O.2    18  ASN18      -0.2718
     25  CB        -3.1270  -35.1810  -13.6660 C.3    18  ASN18       0.1169
     26  CG        -4.5780  -34.8390  -13.4450 C.2    18  ASN18       0.2627
     27  OD1       -4.8900  -33.9350  -12.6510 O.2    18  ASN18      -0.2716
     28  ND2       -5.4650  -35.5230  -14.1480 N.am   18  ASN18      -0.0877
     29  N          0.0790  -33.4330  -14.0250 N.am   19  GLN19      -0.1965
     30  CA         1.4950  -33.5010  -13.6720 C.3    19  GLN19       0.1733
     31  C          2.0500  -32.0880  -13.6010 C.2    19  GLN19       0.2616
     32  O          1.3550  -31.1300  -13.9470 O.2    19  GLN19      -0.2715
     33  CB         2.2740  -34.3880  -14.6540 C.3    19  GLN19       0.0408
     34  CG         1.9210  -35.9180  -14.5700 C.3    19  GLN19       0.0908
     35  CD         2.1810  -36.5820  -13.1910 C.2    19  GLN19       0.2608
     36  OE1        3.0150  -36.1270  -12.3980 O.2    19  GLN19      -0.2717
     37  NE2        1.4570  -37.6720  -12.9130 N.am   19  GLN19      -0.0878
     38  N          3.2830  -31.9620  -13.1070 N.am   20  LEU20      -0.1977
     39  CA         3.9800  -30.6580  -13.1480 C.3    20  LEU20       0.1596
     40  C          4.3900  -30.3360  -14.5810 C.2    20  LEU20       0.2287
     41  O          4.7990  -31.2280  -15.3290 O.2    20  LEU20      -0.2864
     42  CB         5.2280  -30.6830  -12.2610 C.3    20  LEU20       0.0297
     43  CG         5.0310  -31.0070  -10.7790 C.3    20  LEU20       0.0022
     44  CD1        6.4070  -31.1710  -10.0740 C.3    20  LEU20       0.0001
     45  CD2        4.1880  -29.9320  -10.1160 C.3    20  LEU20       0.0001
     46  N         13.5230  -28.3850   -6.8870 N.3    27  ASP27      -0.1225
     47  CA        12.2610  -28.0990   -6.1900 C.3    27  ASP27       0.1805
     48  C         11.8280  -29.3090   -5.3540 C.2    27  ASP27       0.2597
     49  O         11.3250  -29.1550   -4.2400 O.2    27  ASP27      -0.2718
     50  CB        11.1400  -27.6690   -7.1470 C.3    27  ASP27       0.1424
     51  CG         9.7950  -27.5410   -6.4380 C.2    27  ASP27       0.3668
     52  OD1        9.6270  -26.6050   -5.6400 O.co2  27  ASP27      -0.2456
     53  OD2        8.9340  -28.4190   -6.6210 O.co2  27  ASP27      -0.2456
     54  N         12.0320  -30.5140   -5.8910 N.am   28  LEU28      -0.1979
     55  CA        11.6760  -31.7160   -5.1410 C.3    28  LEU28       0.1596
     56  C         12.5390  -31.8480   -3.8980 C.2    28  LEU28       0.2287
     57  O         12.0520  -32.2730   -2.8540 O.2    28  LEU28      -0.2864
     58  CB        11.7660  -32.9740   -6.0100 C.3    28  LEU28       0.0297
     59  CG        10.9830  -32.9600   -7.3280 C.3    28  LEU28       0.0022
     60  CD1       11.0190  -34.3350   -8.0150 C.3    28  LEU28       0.0001
     61  CD2        9.5400  -32.4800   -7.1650 C.3    28  LEU28       0.0001
     62  N         13.7710  -29.3260   -2.2140 N.3    30  HIS30      -0.1226
     63  CA        13.2090  -28.2750   -1.3580 C.3    30  HIS30       0.1752
     64  C         11.9910  -28.8140   -0.6020 C.2    30  HIS30       0.2595
     65  O         11.8680  -28.6460    0.6120 O.2    30  HIS30      -0.2718
     66  CB        12.8720  -27.0930   -2.2670 C.3    30  HIS30       0.0759
     67  CG        12.1890  -25.9450   -1.5940 C.ar   30  HIS30       0.0818
     68  ND1       12.8320  -25.1180   -0.6980 N.ar   30  HIS30      -0.2268
     69  CD2       10.9380  -25.4430   -1.7420 C.ar   30  HIS30       0.1154
     70  CE1       12.0010  -24.1650   -0.3090 C.ar   30  HIS30       0.1986
     71  NE2       10.8470  -24.3380   -0.9290 N.ar   30  HIS30      -0.2212
     72  N         11.0910  -29.4780   -1.3250 N.am   31  VAL31      -0.1980
     73  CA         9.9240  -30.1050   -0.7170 C.3    31  VAL31       0.1595
     74  C         10.3640  -31.1200    0.3490 C.2    31  VAL31       0.2287
     75  O          9.8080  -31.1590    1.4520 O.2    31  VAL31      -0.2864
     76  CB         9.0660  -30.8260   -1.7940 C.3    31  VAL31       0.0276
     77  CG1        8.0950  -31.8220   -1.1520 C.3    31  VAL31       0.0022
     78  CG2        8.3310  -29.8130   -2.6460 C.3    31  VAL31       0.0022
     79  N         -3.9940  -34.9190   -6.8340 N.3    46  THR46      -0.1218
     80  CA        -2.5810  -34.7990   -6.5210 C.3    46  THR46       0.1862
     81  C         -2.0080  -36.1280   -6.0240 C.2    46  THR46       0.2287
     82  O         -0.9370  -36.5770   -6.4620 O.2    46  THR46      -0.2866
     83  CB        -2.3310  -33.6390   -5.5310 C.3    46  THR46       0.1770
     84  OG1       -2.6450  -32.4060   -6.1940 O.3    46  THR46      -0.2211
     85  CG2       -0.8780  -33.5900   -5.1300 C.3    46  THR46       0.0375
     86  N         -1.6780  -38.5470   -8.8220 N.3    49  SER49      -0.1202
     87  CA        -0.5410  -38.0800   -9.6300 C.3    49  SER49       0.2020
     88  C          0.8040  -38.6200   -9.1410 C.2    49  SER49       0.2618
     89  O          1.6200  -39.0810   -9.9450 O.2    49  SER49      -0.2717
     90  CB        -0.4800  -36.5390   -9.6680 C.3    49  SER49       0.2103
     91  OG        -1.5760  -36.0150  -10.3910 O.3    49  SER49      -0.2182
     92  N          1.0270  -38.5690   -7.8300 N.am   50  ILE50      -0.1979
     93  CA         2.2800  -39.0700   -7.2450 C.3    50  ILE50       0.1595
     94  C          2.2430  -40.5940   -7.1170 C.2    50  ILE50       0.2287
     95  O          3.2890  -41.2560   -7.1410 O.2    50  ILE50      -0.2864
     96  CB         2.6530  -38.3700   -5.8890 C.3    50  ILE50       0.0276
     97  CG1        1.5890  -38.5910   -4.8090 C.3    50  ILE50       0.0022
     98  CG2        2.8670  -36.8680   -6.0970 C.3    50  ILE50       0.0022
     99  CD1        2.0670  -38.1960   -3.3720 C.3    50  ILE50       0.0001
    100  N          4.5500  -39.9660   -0.0480 N.3    54  LEU54      -0.1245
    101  CA         5.9380  -39.5590    0.0160 C.3    54  LEU54       0.1561
    102  C          6.5120  -40.0920    1.3300 C.2    54  LEU54       0.2260
    103  O          5.8380  -40.0360    2.3640 O.2    54  LEU54      -0.2867
    104  CB         6.0680  -38.0370   -0.0470 C.3    54  LEU54       0.0270
    105  CG         5.8070  -37.3980   -1.4260 C.3    54  LEU54       0.0019
    106  CD1        5.8460  -35.8860   -1.3500 C.3    54  LEU54       0.0001
    107  CD2        6.8180  -37.9030   -2.4470 C.3    54  LEU54       0.0001
    108  N         -0.5310  -29.1570    0.2780 N.3    92  PHE92      -0.1241
    109  CA         0.4020  -29.6860   -0.7400 C.3    92  PHE92       0.1605
    110  C         -0.1700  -29.6260   -2.1740 C.2    92  PHE92       0.2264
    111  O          0.5290  -29.9230   -3.1670 O.2    92  PHE92      -0.2867
    112  CB         0.7580  -31.1280   -0.3560 C.3    92  PHE92       0.0534
    113  CG         2.0010  -31.6960   -1.0250 C.ar   92  PHE92      -0.0203
    114  CD1        3.2360  -31.0390   -0.9400 C.ar   92  PHE92      -0.0042
    115  CD2        1.9490  -32.9450   -1.6630 C.ar   92  PHE92      -0.0042
    116  CE1        4.3890  -31.5960   -1.5230 C.ar   92  PHE92      -0.0003
    117  CE2        3.0940  -33.5260   -2.2290 C.ar   92  PHE92      -0.0003
    118  CZ         4.3200  -32.8370   -2.1620 C.ar   92  PHE92      -0.0000
    119  N         -5.5490  -25.4570   -2.8420 N.3    98  PHE98      -0.1241
    120  CA        -4.9600  -24.1220   -2.7050 C.3    98  PHE98       0.1605
    121  C         -6.0420  -23.0400   -2.6520 C.2    98  PHE98       0.2264
    122  O         -5.9780  -22.1260   -1.8200 O.2    98  PHE98      -0.2867
    123  CB        -3.9730  -23.8430   -3.8340 C.3    98  PHE98       0.0534
    124  CG        -2.7180  -24.7070   -3.7920 C.ar   98  PHE98      -0.0203
    125  CD1       -2.1850  -25.2190   -4.9840 C.ar   98  PHE98      -0.0042
    126  CD2       -2.0390  -24.9520   -2.5850 C.ar   98  PHE98      -0.0042
    127  CE1       -1.0240  -25.9920   -4.9880 C.ar   98  PHE98      -0.0003
    128  CE2       -0.8640  -25.7320   -2.5780 C.ar   98  PHE98      -0.0003
    129  CZ        -0.3480  -26.2420   -3.7780 C.ar   98  PHE98      -0.0000
    130  N          7.8170  -21.8800   -4.5270 N.3   111  THR111     -0.1218
    131  CA         8.8900  -21.8640   -5.5100 C.3   111  THR111      0.1862
    132  C          8.3540  -21.1720   -6.7580 C.2   111  THR111      0.2287
    133  O          7.4530  -21.6900   -7.4450 O.2   111  THR111     -0.2866
    134  CB         9.3480  -23.2950   -5.8980 C.3   111  THR111      0.1770
    135  OG1        9.7540  -24.0250   -4.7250 O.3   111  THR111     -0.2211
    136  CG2       10.5260  -23.2310   -6.8810 C.3   111  THR111      0.0375
@<TRIPOS>BOND
     1    41    40    2
     2    21    22    1
     3    33    34    1
     4    33    30    1
     5    40    39    1
     6    34    35    1
     7    28    26   am
     8    29    30    1
     9    29    23   am
    10    32    31    2
    11    22    25    1
    12    22    23    1
    13    30    31    1
    14    25    26    1
    15    31    38   am
    16    26    27    2
    17    23    24    2
    18    35    37   am
    19    35    36    2
    20    39    38    1
    21    39    42    1
    22    42    43    1
    23    43    45    1
    24    43    44    1
    25    91    90    1
    26    89    88    2
    27    90    87    1
    28    87    88    1
    29    87    86    1
    30    88    92   am
    31    19    18    2
    32    18    17    1
    33    60    59    1
    34    92    93    1
    35    20    17    1
    36   133   132    2
    37    59    61    1
    38    59    58    1
    39    93    94    1
    40    93    96    1
    41    50    51    1
    42    50    47    1
    43    95    94    2
    44    17    16    1
    45    46    47    1
    46   136   134    1
    47    79    80    1
    48   132   131    1
    49    53    51   ar
    50    80    81    1
    51    80    83    1
    52    82    81    2
    53    51    52   ar
    54    84    83    1
    55    47    48    1
    56    98    96    1
    57    16    11   am
    58    58    55    1
    59   134   131    1
    60   134   135    1
    61    54    48   am
    62    54    55    1
    63    96    97    1
    64    15    13    1
    65    83    85    1
    66   131   130    1
    67    48    49    2
    68    55    56    1
    69   127   125   ar
    70   127   129   ar
    71   125   124   ar
    72    11    12    2
    73    11    10    1
    74    97    99    1
    75    13    10    1
    76    13    14    1
    77    10     9    1
    78    56    57    2
    79   123   124    1
    80   123   120    1
    81   124   126   ar
    82   129   128   ar
    83   111   110    2
    84   119   120    1
    85   120   121    1
    86   121   122    2
    87    78    76    1
    88   126   128   ar
    89     9     3   am
    90   107   105    1
    91    66    67    1
    92    66    63    1
    93   117   118   ar
    94   117   115   ar
    95    62    63    1
    96   110   109    1
    97   118   116   ar
    98     4     3    2
    99    76    77    1
   100    76    73    1
   101    69    67   ar
   102    69    71   ar
   103   115   113   ar
   104     3     2    1
   105    67    68   ar
   106   116   114   ar
   107   105   106    1
   108   105   104    1
   109    63    64    1
   110    72    73    1
   111    72    64   am
   112   113   114   ar
   113   113   112    1
   114    71    70   ar
   115   109   112    1
   116   109   108    1
   117    73    74    1
   118    68    70   ar
   119    64    65    2
   120     2     5    1
   121     2     1    1
   122     6     7    1
   123     6     5    1
   124     6     8    1
   125   100   101    1
   126   104   101    1
   127   101   102    1
   128    74    75    2
   129   102   103    2
