@<TRIPOS>MOLECULE
tmp/3sruA01.pdb
 181 174 0 0 0
SMALL
GASTEIGER

@<TRIPOS>ATOM
      1  N         -2.4480   24.9960    0.6120 N.3     5  LEU5       -0.1231
      2  CA        -3.6720   25.3220   -0.1150 C.3     5  LEU5        0.1693
      3  C         -3.2660   25.4260   -1.5850 C.2     5  LEU5        0.2592
      4  O         -2.3240   26.1680   -1.9070 O.2     5  LEU5       -0.2718
      5  CB        -4.1880   26.6840    0.3800 C.3     5  LEU5        0.0284
      6  CG        -5.5280   27.2360   -0.0860 C.3     5  LEU5        0.0019
      7  CD1       -6.7110   26.2370    0.0530 C.3     5  LEU5        0.0001
      8  CD2       -5.8390   28.5300    0.6600 C.3     5  LEU5        0.0001
      9  N         -3.9260   24.6750   -2.4730 N.am    6  VAL6       -0.1966
     10  CA        -3.5290   24.6680   -3.9050 C.3     6  VAL6        0.1727
     11  C         -4.7090   24.2390   -4.7660 C.2     6  VAL6        0.2616
     12  O         -5.5720   23.4840   -4.3060 O.2     6  VAL6       -0.2715
     13  CB        -2.3400   23.6800   -4.1810 C.3     6  VAL6        0.0290
     14  CG1       -2.7280   22.2040   -3.8470 C.3     6  VAL6        0.0023
     15  CG2       -1.7970   23.7810   -5.6360 C.3     6  VAL6        0.0023
     16  N         -4.7330   24.7540   -6.0010 N.am    7  ALA7       -0.1977
     17  CA        -5.6010   24.2550   -7.0610 C.3     7  ALA7        0.1597
     18  C         -4.6620   23.7050   -8.1220 C.2     7  ALA7        0.2287
     19  O         -3.7400   24.4060   -8.5860 O.2     7  ALA7       -0.2864
     20  CB        -6.4770   25.3760   -7.6480 C.3     7  ALA7        0.0319
     21  N          2.6480   33.1370  -15.0000 N.3    18  ASN18      -0.1225
     22  CA         2.4330   33.8380  -13.7200 C.3    18  ASN18       0.1785
     23  C          0.9840   34.1410  -13.3750 C.2    18  ASN18       0.2597
     24  O          0.6850   35.0630  -12.5930 O.2    18  ASN18      -0.2718
     25  CB         3.3030   35.0950  -13.6560 C.3    18  ASN18       0.1169
     26  CG         4.7540   34.7570  -13.4000 C.2    18  ASN18       0.2627
     27  OD1        5.0470   33.8530  -12.6160 O.2    18  ASN18      -0.2716
     28  ND2        5.6540   35.4740  -14.0380 N.am   18  ASN18      -0.0877
     29  N          0.0710   33.3540  -13.9270 N.am   19  GLN19      -0.1965
     30  CA        -1.3360   33.4650  -13.5550 C.3    19  GLN19       0.1733
     31  C         -1.9300   32.0730  -13.5150 C.2    19  GLN19       0.2616
     32  O         -1.2880   31.1060  -13.9210 O.2    19  GLN19      -0.2715
     33  CB        -2.1310   34.3660  -14.5000 C.3    19  GLN19       0.0408
     34  CG        -1.7840   35.8890  -14.4240 C.3    19  GLN19       0.0908
     35  CD        -2.0140   36.5390  -13.0370 C.2    19  GLN19       0.2608
     36  OE1       -2.7960   36.0580  -12.2060 O.2    19  GLN19      -0.2717
     37  NE2       -1.3230   37.6490  -12.7960 N.am   19  GLN19      -0.0878
     38  N         -3.1410   31.9710  -12.9680 N.am   20  LEU20      -0.1977
     39  CA        -3.8760   30.6940  -13.0250 C.3    20  LEU20       0.1596
     40  C         -4.3270   30.3750  -14.4560 C.2    20  LEU20       0.2287
     41  O         -4.7420   31.2710  -15.2130 O.2    20  LEU20      -0.2864
     42  CB        -5.1020   30.7550  -12.1030 C.3    20  LEU20       0.0297
     43  CG        -4.8590   31.1290  -10.6370 C.3    20  LEU20       0.0022
     44  CD1       -6.2090   31.1550   -9.9240 C.3    20  LEU20       0.0001
     45  CD2       -3.9530   30.1100   -9.9890 C.3    20  LEU20       0.0001
     46  N        -13.4430   28.3260   -6.7360 N.3    27  ASP27      -0.1225
     47  CA       -12.1790   28.0780   -6.0460 C.3    27  ASP27       0.1805
     48  C        -11.8530   29.2770   -5.1630 C.2    27  ASP27       0.2598
     49  O        -11.3620   29.1190   -4.0460 O.2    27  ASP27      -0.2718
     50  CB       -11.0330   27.7870   -7.0120 C.3    27  ASP27       0.1424
     51  CG        -9.6960   27.6580   -6.2940 C.2    27  ASP27       0.3668
     52  OD1       -9.5300   26.6830   -5.5360 O.co2  27  ASP27      -0.2456
     53  OD2       -8.8590   28.5680   -6.4380 O.co2  27  ASP27      -0.2456
     54  N        -12.1310   30.4800   -5.6630 N.am   28  LEU28      -0.1966
     55  CA       -11.8610   31.6660   -4.8570 C.3    28  LEU28       0.1728
     56  C        -12.7550   31.7200   -3.6320 C.2    28  LEU28       0.2616
     57  O        -12.3040   32.1270   -2.5540 O.2    28  LEU28      -0.2715
     58  CB       -11.9790   32.9510   -5.6870 C.3    28  LEU28       0.0311
     59  CG       -11.0890   33.0480   -6.9340 C.3    28  LEU28       0.0022
     60  CD1      -11.1750   34.4580   -7.5080 C.3    28  LEU28       0.0001
     61  CD2       -9.6200   32.6620   -6.6970 C.3    28  LEU28       0.0001
     62  N        -14.0120   31.2960   -3.7800 N.am   29  LYS29      -0.1963
     63  CA       -14.9240   31.1930   -2.6360 C.3    29  LYS29       0.1728
     64  C        -14.3570   30.2490   -1.5630 C.2    29  LYS29       0.2616
     65  O        -14.4440   30.5350   -0.3580 O.2    29  LYS29      -0.2715
     66  CB       -16.2950   30.6700   -3.0610 C.3    29  LYS29       0.0311
     67  CG       -17.1100   31.6120   -3.8940 C.3    29  LYS29       0.0038
     68  CD       -18.5170   31.0720   -4.0660 C.3    29  LYS29       0.0206
     69  CE       -19.2420   31.7980   -5.1990 C.3    29  LYS29       0.1093
     70  NZ       -18.6790   31.4520   -6.5400 N.3    29  LYS29      -0.1314
     71  N        -13.7990   29.1310   -2.0360 N.am   30  HIS30      -0.1959
     72  CA       -13.1240   28.1260   -1.2080 C.3    30  HIS30       0.1787
     73  C        -11.9270   28.7370   -0.4820 C.2    30  HIS30       0.2620
     74  O        -11.7900   28.5900    0.7370 O.2    30  HIS30      -0.2715
     75  CB       -12.6990   26.9790   -2.1230 C.3    30  HIS30       0.0785
     76  CG       -12.0620   25.8180   -1.4330 C.ar   30  HIS30       0.0821
     77  ND1      -12.7280   25.0430   -0.5030 N.ar   30  HIS30      -0.2267
     78  CD2      -10.8370   25.2520   -1.5920 C.ar   30  HIS30       0.1154
     79  CE1      -11.9350   24.0600   -0.1120 C.ar   30  HIS30       0.1986
     80  NE2      -10.7870   24.1610   -0.7610 N.ar   30  HIS30      -0.2212
     81  N        -11.0860   29.4600   -1.2200 N.am   31  VAL31      -0.1963
     82  CA        -9.9310   30.1400   -0.6270 C.3    31  VAL31       0.1727
     83  C        -10.3760   31.1300    0.4520 C.2    31  VAL31       0.2616
     84  O         -9.7870   31.1750    1.5370 O.2    31  VAL31      -0.2715
     85  CB        -9.0930   30.8590   -1.7010 C.3    31  VAL31       0.0290
     86  CG1       -8.0790   31.8060   -1.0470 C.3    31  VAL31       0.0023
     87  CG2       -8.3720   29.8180   -2.5530 C.3    31  VAL31       0.0023
     88  N        -11.4120   31.9130    0.1490 N.am   32  LYS32      -0.1977
     89  CA       -11.9370   32.8940    1.0990 C.3    32  LYS32       0.1596
     90  C        -12.3900   32.2040    2.3860 C.2    32  LYS32       0.2287
     91  O        -12.0480   32.6480    3.4830 O.2    32  LYS32      -0.2864
     92  CB       -13.1070   33.6670    0.4830 C.3    32  LYS32       0.0298
     93  CG       -13.6060   34.8260    1.3340 C.3    32  LYS32       0.0038
     94  CD       -14.6510   35.6160    0.5760 C.3    32  LYS32       0.0206
     95  CE       -15.0820   36.8450    1.3650 C.3    32  LYS32       0.1093
     96  NZ       -16.4010   37.3710    0.8890 N.3    32  LYS32      -0.1314
     97  N          4.0760   34.7290   -6.8090 N.3    46  THR46      -0.1218
     98  CA         2.6670   34.6150   -6.4670 C.3    46  THR46       0.1862
     99  C          2.1100   35.9420   -5.9520 C.2    46  THR46       0.2287
    100  O          1.0220   36.3700   -6.3610 O.2    46  THR46      -0.2866
    101  CB         2.4400   33.4710   -5.4740 C.3    46  THR46       0.1770
    102  OG1        2.7430   32.2430   -6.1450 O.3    46  THR46      -0.2211
    103  CG2        0.9920   33.4130   -5.0020 C.3    46  THR46       0.0375
    104  N          1.7470   38.3940   -8.8090 N.3    49  SER49      -0.1202
    105  CA         0.6280   37.9640   -9.6560 C.3    49  SER49       0.2020
    106  C         -0.6940   38.5020   -9.1360 C.2    49  SER49       0.2618
    107  O         -1.5150   39.0210   -9.8990 O.2    49  SER49      -0.2717
    108  CB         0.5630   36.4300   -9.7500 C.3    49  SER49       0.2103
    109  OG         1.7610   35.9450  -10.3220 O.3    49  SER49      -0.2182
    110  N         -0.8940   38.3760   -7.8260 N.am   50  ILE50      -0.1979
    111  CA        -2.1150   38.8570   -7.1830 C.3    50  ILE50       0.1595
    112  C         -2.1120   40.3880   -7.1500 C.2    50  ILE50       0.2287
    113  O         -3.1450   41.0190   -7.3960 O.2    50  ILE50      -0.2864
    114  CB        -2.2670   38.2620   -5.7640 C.3    50  ILE50       0.0276
    115  CG1       -2.3270   36.7270   -5.8190 C.3    50  ILE50       0.0022
    116  CG2       -3.5210   38.7880   -5.0870 C.3    50  ILE50       0.0022
    117  CD1       -1.9890   36.0590   -4.5080 C.3    50  ILE50       0.0001
    118  N         -1.6590   42.6800   -4.7660 N.3    52  LYS52      -0.1245
    119  CA        -1.9650   43.3410   -3.4790 C.3    52  LYS52       0.1561
    120  C         -2.2180   42.2500   -2.4370 C.2    52  LYS52       0.2260
    121  O         -2.5450   41.1280   -2.7930 O.2    52  LYS52      -0.2867
    122  CB        -3.2040   44.2240   -3.6140 C.3    52  LYS52       0.0271
    123  CG        -4.4220   43.5330   -4.2570 C.3    52  LYS52       0.0035
    124  CD        -5.4420   43.0810   -3.2150 C.3    52  LYS52       0.0206
    125  CE        -6.4060   42.0300   -3.7590 C.3    52  LYS52       0.1093
    126  NZ        -7.7420   42.1340   -3.0830 N.3    52  LYS52      -0.1314
    127  N         -4.3140   40.0210    0.0580 N.3    54  LEU54      -0.1231
    128  CA        -5.7200   39.6520    0.0690 C.3    54  LEU54       0.1678
    129  C         -6.3250   40.1370    1.3850 C.2    54  LEU54       0.2434
    130  O         -5.7220   39.9540    2.4500 O.2    54  LEU54      -0.2733
    131  CB        -5.8790   38.1390   -0.0780 C.3    54  LEU54       0.0284
    132  CG        -5.4570   37.5720   -1.4410 C.3    54  LEU54       0.0019
    133  CD1       -5.8160   36.0900   -1.4700 C.3    54  LEU54       0.0001
    134  CD2       -6.1380   38.3280   -2.5910 C.3    54  LEU54       0.0001
    135  N         -7.5040   40.7840    1.3200 N.am   55  PRO55      -0.2729
    136  CA        -8.0680   41.3440    2.5550 C.3    55  PRO55       0.1401
    137  C         -8.4770   40.3150    3.6000 C.2    55  PRO55       0.2269
    138  O         -8.7700   39.1580    3.2710 O.2    55  PRO55      -0.2865
    139  CB        -9.2900   42.1390    2.0650 C.3    55  PRO55       0.0296
    140  CG        -9.6400   41.5290    0.7520 C.3    55  PRO55       0.0237
    141  CD        -8.3560   41.0500    0.1430 C.3    55  PRO55       0.0939
    142  N         -7.0130   38.7380    6.0590 N.3    57  ARG57      -0.1245
    143  CA        -6.1030   37.7010    6.5140 C.3    57  ARG57       0.1563
    144  C         -4.6930   38.2540    6.5160 C.2    57  ARG57       0.2260
    145  O         -4.4370   39.3180    5.9420 O.2    57  ARG57      -0.2867
    146  CB        -6.2130   36.4560    5.6430 C.3    57  ARG57       0.0307
    147  CG        -5.6420   36.6230    4.2630 C.3    57  ARG57       0.0489
    148  CD        -6.4690   35.8450    3.2390 C.3    57  ARG57       0.2205
    149  NE        -7.6570   36.6070    2.8320 N.pl3  57  ARG57      -0.0865
    150  CZ        -8.5130   36.2220    1.8870 C.cat  57  ARG57       0.5346
    151  NH1       -8.3530   35.0560    1.2710 N.pl3  57  ARG57       0.1354
    152  NH2       -9.5290   37.0110    1.5520 N.pl3  57  ARG57       0.1354
    153  N          0.5870   29.0530    0.3090 N.3    92  PHE92      -0.1241
    154  CA        -0.3420   29.5560   -0.7240 C.3    92  PHE92       0.1605
    155  C          0.2760   29.4940   -2.1360 C.2    92  PHE92       0.2264
    156  O         -0.3590   29.8740   -3.1450 O.2    92  PHE92      -0.2867
    157  CB        -0.7140   31.0020   -0.3510 C.3    92  PHE92       0.0534
    158  CG        -1.9620   31.5410   -1.0210 C.ar   92  PHE92      -0.0203
    159  CD1       -3.1910   30.8850   -0.8810 C.ar   92  PHE92      -0.0042
    160  CD2       -1.9240   32.7620   -1.7050 C.ar   92  PHE92      -0.0042
    161  CE1       -4.3570   31.4170   -1.4620 C.ar   92  PHE92      -0.0003
    162  CE2       -3.0860   33.3160   -2.2600 C.ar   92  PHE92      -0.0003
    163  CZ        -4.3090   32.6330   -2.1300 C.ar   92  PHE92      -0.0000
    164  N          5.5890   25.2780   -2.8310 N.3    98  PHE98      -0.1241
    165  CA         5.0020   23.9500   -2.6830 C.3    98  PHE98       0.1605
    166  C          6.0700   22.8480   -2.6310 C.2    98  PHE98       0.2264
    167  O          5.9820   21.9260   -1.8100 O.2    98  PHE98      -0.2867
    168  CB         3.9970   23.6520   -3.7810 C.3    98  PHE98       0.0534
    169  CG         2.7530   24.5100   -3.7330 C.ar   98  PHE98      -0.0203
    170  CD1        2.2350   25.0280   -4.9300 C.ar   98  PHE98      -0.0042
    171  CD2        2.0760   24.7640   -2.5270 C.ar   98  PHE98      -0.0042
    172  CE1        1.0830   25.8020   -4.9550 C.ar   98  PHE98      -0.0003
    173  CE2        0.9090   25.5460   -2.5360 C.ar   98  PHE98      -0.0003
    174  CZ         0.3990   26.0580   -3.7460 C.ar   98  PHE98      -0.0000
    175  N         -7.8120   21.8850   -4.5160 N.3   111  THR111     -0.1218
    176  CA        -8.8970   21.8940   -5.4790 C.3   111  THR111      0.1862
    177  C         -8.3540   21.1850   -6.7060 C.2   111  THR111      0.2287
    178  O         -7.4630   21.7020   -7.3920 O.2   111  THR111     -0.2866
    179  CB        -9.3220   23.3440   -5.8550 C.3   111  THR111      0.1770
    180  OG1       -9.7090   24.0680   -4.6690 O.3   111  THR111     -0.2211
    181  CG2      -10.5200   23.2980   -6.8180 C.3   111  THR111      0.0375
@<TRIPOS>BOND
     1    41    40    2
     2    21    22    1
     3    33    34    1
     4    33    30    1
     5    40    39    1
     6    34    35    1
     7    28    26   am
     8    29    30    1
     9    29    23   am
    10    32    31    2
    11    22    25    1
    12    22    23    1
    13    25    26    1
    14    30    31    1
    15    31    38   am
    16    26    27    2
    17    23    24    2
    18    35    37   am
    19    35    36    2
    20    39    38    1
    21    39    42    1
    22    42    43    1
    23    43    45    1
    24    43    44    1
    25   109   108    1
    26   107   106    2
    27   108   105    1
    28   105   106    1
    29   105   104    1
    30   106   110   am
    31    19    18    2
    32    18    17    1
    33   110   111    1
    34    20    17    1
    35    60    59    1
    36   113   112    2
    37   178   177    2
    38   111   112    1
    39   111   114    1
    40    17    16    1
    41    50    51    1
    42    50    47    1
    43    59    61    1
    44    59    58    1
    45   181   179    1
    46    97    98    1
    47    46    47    1
    48   177   176    1
    49    70    69    1
    50    98    99    1
    51    98   101    1
    52    53    51   ar
    53   100    99    2
    54    51    52   ar
    55   102   101    1
    56    47    48    1
    57    16    11   am
    58   179   176    1
    59   179   180    1
    60   115   114    1
    61   115   117    1
    62   114   116    1
    63    58    55    1
    64    54    48   am
    65    54    55    1
    66    15    13    1
    67   176   175    1
    68   101   103    1
    69    69    68    1
    70    48    49    2
    71   172   170   ar
    72   172   174   ar
    73   170   169   ar
    74    55    56    1
    75   118   119    1
    76    11    12    2
    77    11    10    1
    78   123   122    1
    79   123   124    1
    80    13    10    1
    81    13    14    1
    82    68    67    1
    83    10     9    1
    84    67    66    1
    85   168   169    1
    86   168   165    1
    87    62    56   am
    88    62    63    1
    89   125   124    1
    90   125   126    1
    91   174   173   ar
    92   169   171   ar
    93    56    57    2
    94   122   119    1
    95   119   120    1
    96   156   155    2
    97    66    63    1
    98   164   165    1
    99   121   120    2
   100   165   166    1
   101    63    64    1
   102   166   167    2
   103   134   132    1
   104    87    85    1
   105   173   171   ar
   106     9     3   am
   107   162   163   ar
   108   162   160   ar
   109   155   154    1
   110   163   161   ar
   111    75    76    1
   112    75    72    1
   113    71    64   am
   114    71    72    1
   115     4     3    2
   116   160   158   ar
   117    85    86    1
   118    85    82    1
   119    78    76   ar
   120    78    80   ar
   121     3     2    1
   122    64    65    2
   123   133   132    1
   124   161   159   ar
   125   132   131    1
   126    76    77   ar
   127    81    82    1
   128    81    73   am
   129    72    73    1
   130   158   159   ar
   131   158   157    1
   132    80    79   ar
   133   154   157    1
   134   154   153    1
   135    82    83    1
   136    77    79   ar
   137    73    74    2
   138     2     5    1
   139     2     1    1
   140     6     7    1
   141     6     5    1
   142     6     8    1
   143   131   128    1
   144   127   128    1
   145   128   129    1
   146   141   140    1
   147   141   135    1
   148    88    83   am
   149    88    89    1
   150    83    84    2
   151    92    89    1
   152    92    93    1
   153    94    93    1
   154    94    95    1
   155   140   139    1
   156    96    95    1
   157    89    90    1
   158   151   150    1
   159   135   129   am
   160   135   136    1
   161   129   130    2
   162   152   150    1
   163   150   149    2
   164   139   136    1
   165    90    91    2
   166   136   137    1
   167   149   148    1
   168   148   147    1
   169   138   137    2
   170   147   146    1
   171   146   143    1
   172   145   144    2
   173   142   143    1
   174   143   144    1
