@<TRIPOS>MOLECULE
tmp/3srvA00.pdb
 150 142 0 0 0
SMALL
GASTEIGER

@<TRIPOS>ATOM
      1  N          3.7060   -4.9050  -33.5700 N.3    14  LEU14      -0.1231
      2  CA         3.9510   -3.7890  -32.6680 C.3    14  LEU14       0.1693
      3  C          4.3180   -4.3330  -31.2860 C.2    14  LEU14       0.2592
      4  O          5.1880   -3.7840  -30.6140 O.2    14  LEU14      -0.2718
      5  CB         2.7140   -2.8960  -32.5810 C.3    14  LEU14       0.0284
      6  CG         2.2320   -2.3270  -33.9180 C.3    14  LEU14       0.0019
      7  CD1        0.9980   -1.4650  -33.7130 C.3    14  LEU14       0.0001
      8  CD2        3.3450   -1.5590  -34.6230 C.3    14  LEU14       0.0001
      9  N          3.6650   -5.4240  -30.8820 N.am   15  GLY15      -0.1957
     10  CA         3.9210   -6.0590  -29.5820 C.3    15  GLY15       0.1869
     11  C          3.4850   -7.5140  -29.4750 C.2    15  GLY15       0.2309
     12  O          2.6610   -7.9880  -30.2560 O.2    15  GLY15      -0.2863
     13  N         -1.5810  -13.1690  -24.5810 N.3    17  PHE17      -0.1241
     14  CA        -2.8690  -12.8580  -25.2320 C.3    17  PHE17       0.1605
     15  C         -2.7210  -13.0430  -26.7550 C.2    17  PHE17       0.2264
     16  O         -3.6820  -13.3780  -27.4610 O.2    17  PHE17      -0.2867
     17  CB        -3.2870  -11.4070  -24.9330 C.3    17  PHE17       0.0534
     18  CG        -2.3120  -10.3790  -25.4520 C.ar   17  PHE17      -0.0203
     19  CD1       -1.1890  -10.0180  -24.7040 C.ar   17  PHE17      -0.0042
     20  CD2       -2.4950   -9.8040  -26.7090 C.ar   17  PHE17      -0.0042
     21  CE1       -0.2750   -9.0950  -25.1890 C.ar   17  PHE17      -0.0003
     22  CE2       -1.5820   -8.8740  -27.2040 C.ar   17  PHE17      -0.0003
     23  CZ        -0.4670   -8.5180  -26.4380 C.ar   17  PHE17      -0.0000
     24  N         -0.1620   -7.6580  -31.1100 N.3    20  VAL20      -0.1245
     25  CA        -0.8090   -6.4020  -31.4500 C.3    20  VAL20       0.1561
     26  C         -0.2640   -6.0030  -32.8130 C.2    20  VAL20       0.2260
     27  O          0.9410   -5.9550  -33.0100 O.2    20  VAL20      -0.2867
     28  CB        -0.5130   -5.2840  -30.4180 C.3    20  VAL20       0.0252
     29  CG1       -1.1250   -3.9680  -30.8610 C.3    20  VAL20       0.0019
     30  CG2       -1.0470   -5.6550  -29.0520 C.3    20  VAL20       0.0019
     31  N         -5.2530   -0.0900  -33.8060 N.3    35  ALA35      -0.1245
     32  CA        -4.3710   -1.0400  -33.1580 C.3    35  ALA35       0.1562
     33  C         -5.2520   -2.2500  -32.9290 C.2    35  ALA35       0.2260
     34  O         -6.3850   -2.1010  -32.5100 O.2    35  ALA35      -0.2867
     35  CB        -3.8400   -0.4960  -31.8450 C.3    35  ALA35       0.0290
     36  N         -5.6670   -6.1660  -31.2890 N.3    37  LYS37      -0.1245
     37  CA        -5.2270   -7.2590  -30.4520 C.3    37  LYS37       0.1561
     38  C         -5.7830   -8.5420  -31.0800 C.2    37  LYS37       0.2260
     39  O         -7.0010   -8.6780  -31.2530 O.2    37  LYS37      -0.2867
     40  CB        -5.7090   -7.0740  -29.0050 C.3    37  LYS37       0.0271
     41  CG        -4.8000   -7.7500  -27.9890 C.3    37  LYS37       0.0035
     42  CD        -5.1090   -7.3580  -26.5340 C.3    37  LYS37       0.0206
     43  CE        -4.5410   -5.9940  -26.1520 C.3    37  LYS37       0.1093
     44  NZ        -4.6550   -5.7650  -24.6700 N.3    37  LYS37      -0.1314
     45  N         -8.1760    4.4360  -23.7430 N.3    62  VAL62      -0.1245
     46  CA        -8.2710    4.0050  -25.1440 C.3    62  VAL62       0.1561
     47  C         -9.6900    3.5760  -25.5770 C.2    62  VAL62       0.2260
     48  O        -10.3740    2.8260  -24.8760 O.2    62  VAL62      -0.2867
     49  CB        -7.3540    2.8420  -25.4350 C.3    62  VAL62       0.0252
     50  CG1       -7.6480    2.2580  -26.8330 C.3    62  VAL62       0.0019
     51  CG2       -5.8870    3.2900  -25.3050 C.3    62  VAL62       0.0019
     52  N         -8.9520   -1.3620  -31.8790 N.3    77  MET77      -0.1230
     53  CA        -8.9400   -0.1200  -31.0880 C.3    77  MET77       0.1702
     54  C         -8.3950    1.0700  -31.8770 C.2    77  MET77       0.2592
     55  O         -7.6720    0.8780  -32.8280 O.2    77  MET77      -0.2718
     56  CB        -8.0250   -0.3260  -29.8800 C.3    77  MET77       0.0401
     57  CG        -8.4290   -1.4200  -28.9040 C.3    77  MET77       0.0596
     58  SD        -7.1090   -1.7700  -27.7020 S.3    77  MET77      -0.1393
     59  CE        -6.0900   -2.9670  -28.5480 C.3    77  MET77       0.0692
     60  N         -8.7250    2.2880  -31.4610 N.am   78  GLU78      -0.1966
     61  CA        -8.0870    3.4820  -32.0050 C.3    78  GLU78       0.1733
     62  C         -6.5810    3.3880  -31.6930 C.2    78  GLU78       0.2616
     63  O         -6.2030    3.2030  -30.5390 O.2    78  GLU78      -0.2715
     64  CB        -8.5870    4.7610  -31.3450 C.3    78  GLU78       0.0429
     65  CG        -9.9780    5.2810  -31.6660 C.3    78  GLU78       0.1163
     66  CD       -10.1450    6.7610  -31.2170 C.2    78  GLU78       0.3649
     67  OE1       -9.8070    7.0830  -30.0550 O.co2  78  GLU78      -0.2457
     68  OE2      -10.5980    7.6160  -32.0240 O.co2  78  GLU78      -0.2457
     69  N         -5.7470    3.5430  -32.7190 N.am   79  MET79      -0.1963
     70  CA        -4.2780    3.4750  -32.6100 C.3    79  MET79       0.1736
     71  C         -3.6760    4.7030  -31.8810 C.2    79  MET79       0.2616
     72  O         -3.9720    5.8440  -32.2220 O.2    79  MET79      -0.2715
     73  CB        -3.7020    3.3290  -34.0500 C.3    79  MET79       0.0427
     74  CG        -2.2240    3.5420  -34.2700 C.3    79  MET79       0.0599
     75  SD        -1.2410    2.2100  -33.6180 S.3    79  MET79      -0.1393
     76  CE         0.4290    2.6710  -34.0940 C.3    79  MET79       0.0692
     77  N         -2.8480    4.4570  -30.8660 N.am   80  ALA80      -0.1963
     78  CA        -2.1190    5.5280  -30.1470 C.3    80  ALA80       0.1728
     79  C         -0.7030    5.5040  -30.7260 C.2    80  ALA80       0.2616
     80  O          0.1220    4.6980  -30.3450 O.2    80  ALA80      -0.2715
     81  CB        -2.1180    5.2780  -28.6500 C.3    80  ALA80       0.0334
     82  N         -0.4150    6.4210  -31.6270 N.am   81  GLU81      -0.1963
     83  CA         0.7260    6.2190  -32.5230 C.3    81  GLU81       0.1733
     84  C          2.1050    6.2490  -31.8920 C.2    81  GLU81       0.2616
     85  O          2.9970    5.5270  -32.3380 O.2    81  GLU81      -0.2715
     86  CB         0.6080    7.1200  -33.7620 C.3    81  GLU81       0.0429
     87  CG        -0.8250    7.0210  -34.3810 C.3    81  GLU81       0.1163
     88  CD        -0.8760    6.7520  -35.8860 C.2    81  GLU81       0.3649
     89  OE1        0.0960    6.2070  -36.4530 O.co2  81  GLU81      -0.2457
     90  OE2       -1.9400    7.0390  -36.4900 O.co2  81  GLU81      -0.2457
     91  N          2.2770    7.0310  -30.8350 N.am   82  LEU82      -0.1963
     92  CA         3.5690    7.0600  -30.1270 C.3    82  LEU82       0.1728
     93  C          3.8660    5.7660  -29.3320 C.2    82  LEU82       0.2617
     94  O          5.0300    5.4640  -29.0410 O.2    82  LEU82      -0.2715
     95  CB         3.6770    8.3290  -29.2650 C.3    82  LEU82       0.0311
     96  CG         4.1190    9.5690  -30.0560 C.3    82  LEU82       0.0022
     97  CD1        3.4280    9.6760  -31.4130 C.3    82  LEU82       0.0001
     98  CD2        3.9700   10.8730  -29.2680 C.3    82  LEU82       0.0001
     99  N          2.8390    4.9810  -29.0060 N.am   83  GLY83      -0.1941
    100  CA         3.0720    3.6930  -28.3710 C.3    83  GLY83       0.1998
    101  C          3.2330    3.7550  -26.8520 C.2    83  GLY83       0.2480
    102  O          2.9270    4.7850  -26.2420 O.2    83  GLY83      -0.2729
    103  N          3.6990    2.6500  -26.2430 N.am   84  PRO84      -0.2726
    104  CA         3.8240    2.5530  -24.7890 C.3    84  PRO84       0.1402
    105  C          4.7720    3.5920  -24.1750 C.2    84  PRO84       0.2269
    106  O          5.8810    3.8220  -24.6990 O.2    84  PRO84      -0.2865
    107  CB         4.3590    1.1320  -24.5810 C.3    84  PRO84       0.0296
    108  CG         3.9010    0.3610  -25.8170 C.3    84  PRO84       0.0237
    109  CD         4.0180    1.3730  -26.9050 C.3    84  PRO84       0.0939
    110  N          4.0430    0.4080  -19.3230 N.3   127  ARG127     -0.1231
    111  CA         3.7910   -0.2980  -20.5660 C.3   127  ARG127      0.1694
    112  C          2.3130   -0.2550  -21.0740 C.2   127  ARG127      0.2592
    113  O          2.0720   -0.4510  -22.2500 O.2   127  ARG127     -0.2718
    114  CB         4.2100   -1.7800  -20.4410 C.3   127  ARG127      0.0321
    115  CG         3.4930   -2.5470  -19.3680 C.3   127  ARG127      0.0489
    116  CD         3.8550   -4.0480  -19.3640 C.3   127  ARG127      0.2205
    117  NE         3.1230   -4.7320  -18.3030 N.pl3 127  ARG127     -0.0865
    118  CZ         3.4750   -4.7440  -17.0240 C.cat 127  ARG127      0.5346
    119  NH1        4.5730   -4.1350  -16.6270 N.pl3 127  ARG127      0.1354
    120  NH2        2.7160   -5.3570  -16.1170 N.pl3 127  ARG127      0.1354
    121  N          1.3600   -0.0530  -20.1720 N.am  128  ASN128     -0.1974
    122  CA        -0.0810   -0.0150  -20.4900 C.3   128  ASN128      0.1688
    123  C         -0.6320    1.4060  -20.4730 C.2   128  ASN128      0.2292
    124  O         -1.8460    1.6360  -20.3690 O.2   128  ASN128     -0.2864
    125  CB        -0.8270   -0.8620  -19.5050 C.3   128  ASN128      0.1181
    126  CG        -0.4080   -2.3130  -19.6100 C.2   128  ASN128      0.2629
    127  OD1        0.0070   -2.7370  -20.6860 O.2   128  ASN128     -0.2716
    128  ND2       -0.4580   -3.0510  -18.5070 N.am  128  ASN128     -0.0877
    129  N         -0.5890    4.5060  -23.1040 N.3   130  LEU130     -0.1245
    130  CA        -0.2930    4.7660  -24.5090 C.3   130  LEU130      0.1561
    131  C         -0.3310    6.2360  -24.8120 C.2   130  LEU130      0.2260
    132  O         -1.2100    6.9710  -24.3170 O.2   130  LEU130     -0.2867
    133  CB        -1.2840    4.0290  -25.4190 C.3   130  LEU130      0.0270
    134  CG        -1.0760    2.5360  -25.5800 C.3   130  LEU130      0.0019
    135  CD1       -2.2540    1.9090  -26.2140 C.3   130  LEU130      0.0001
    136  CD2        0.1810    2.2600  -26.3970 C.3   130  LEU130      0.0001
    137  N         -4.6140    1.7870  -21.3890 N.3   140  SER140     -0.1202
    138  CA        -5.0980    0.6720  -22.1820 C.3   140  SER140      0.2020
    139  C         -4.9000   -0.6410  -21.4210 C.2   140  SER140      0.2618
    140  O         -4.5570   -0.6330  -20.2210 O.2   140  SER140     -0.2717
    141  CB        -4.3530    0.6360  -23.5140 C.3   140  SER140      0.2103
    142  OG        -3.0890    0.0260  -23.3710 O.3   140  SER140     -0.2182
    143  N         -5.1570   -1.7590  -22.1080 N.am  141  ASP141     -0.1973
    144  CA        -4.8870   -3.0960  -21.5970 C.3   141  ASP141      0.1709
    145  C         -5.7320   -3.4710  -20.3860 C.2   141  ASP141      0.2293
    146  O         -5.2560   -3.5450  -19.2650 O.2   141  ASP141     -0.2864
    147  CB        -3.3900   -3.2590  -21.3650 C.3   141  ASP141      0.1436
    148  CG        -2.5760   -3.0910  -22.6730 C.2   141  ASP141      0.3671
    149  OD1       -2.5770   -4.0340  -23.5150 O.co2 141  ASP141     -0.2456
    150  OD2       -1.9330   -2.0380  -22.8650 O.co2 141  ASP141     -0.2456
@<TRIPOS>BOND
     1    90    88   ar
     2    89    88   ar
     3    88    87    1
     4     8     6    1
     5    87    86    1
     6    74    73    1
     7    74    75    1
     8    76    75    1
     9    73    70    1
    10     6     7    1
    11     6     5    1
    12    31    32    1
    13    86    83    1
    14     1     2    1
    15    32    33    1
    16    32    35    1
    17    27    26    2
    18    33    34    2
    19    55    54    2
    20    26    25    1
    21    69    70    1
    22    69    62   am
    23     2     5    1
    24     2     3    1
    25    70    71    1
    26    83    84    1
    27    83    82    1
    28    85    84    2
    29    72    71    2
    30    68    66   ar
    31    61    62    1
    32    61    60    1
    33    61    64    1
    34    84    91   am
    35    71    77   am
    36    52    53    1
    37    54    60   am
    38    54    53    1
    39    62    63    2
    40    65    64    1
    41    65    66    1
    42    82    79   am
    43    25    24    1
    44    25    28    1
    45    97    96    1
    46    36    37    1
    47     3     9   am
    48     3     4    2
    49    39    38    2
    50    66    67   ar
    51    53    56    1
    52    38    37    1
    53     9    10    1
    54    77    78    1
    55    29    28    1
    56    91    92    1
    57    79    80    2
    58    79    78    1
    59    37    40    1
    60    28    30    1
    61    12    11    2
    62    78    81    1
    63    92    93    1
    64    92    95    1
    65    96    98    1
    66    96    95    1
    67    56    57    1
    68    10    11    1
    69    93    94    2
    70    93    99   am
    71    99   100    1
    72    40    41    1
    73    57    58    1
    74    59    58    1
    75   100   101    1
    76    41    42    1
    77    16    15    2
    78    22    20   ar
    79    22    23   ar
    80   109   103    1
    81   109   108    1
    82   101   103   am
    83   101   102    2
    84    50    49    1
    85    15    14    1
    86    20    18   ar
    87    42    43    1
    88    23    21   ar
    89   136   134    1
    90   103   104    1
    91   135   134    1
    92    43    44    1
    93   108   107    1
    94   134   133    1
    95    47    46    1
    96    47    48    2
    97    18    17    1
    98    18    19   ar
    99    49    51    1
   100    49    46    1
   101   133   130    1
   102    14    17    1
   103    14    13    1
   104    21    19   ar
   105    46    45    1
   106   131   130    1
   107   131   132    2
   108   104   107    1
   109   104   105    1
   110   106   105    2
   111   130   129    1
   112   149   148   ar
   113   141   142    1
   114   141   138    1
   115   150   148   ar
   116   148   147    1
   117   113   112    2
   118   138   139    1
   119   138   137    1
   120   143   144    1
   121   143   139   am
   122   144   147    1
   123   144   145    1
   124   139   140    2
   125   112   111    1
   126   112   121   am
   127   127   126    2
   128   111   114    1
   129   111   110    1
   130   122   123    1
   131   122   121    1
   132   122   125    1
   133   123   124    2
   134   114   115    1
   135   145   146    2
   136   126   125    1
   137   126   128   am
   138   115   116    1
   139   116   117    1
   140   117   118    2
   141   118   119    1
   142   118   120    1
