@<TRIPOS>MOLECULE
tmp/3srwA00.pdb
 147 139 0 0 0
SMALL
GASTEIGER

@<TRIPOS>ATOM
      1  N         -2.4740  -25.0580   -0.5740 N.3     5  LEU5       -0.1231
      2  CA        -3.6870  -25.3650    0.1620 C.3     5  LEU5        0.1693
      3  C         -3.2730  -25.4280    1.6280 C.2     5  LEU5        0.2592
      4  O         -2.3500  -26.1690    1.9650 O.2     5  LEU5       -0.2718
      5  CB        -4.2090  -26.7310   -0.2920 C.3     5  LEU5        0.0284
      6  CG        -5.5420  -27.2650    0.2050 C.3     5  LEU5        0.0019
      7  CD1       -6.6900  -26.2590    0.0130 C.3     5  LEU5        0.0001
      8  CD2       -5.8310  -28.5510   -0.5600 C.3     5  LEU5        0.0001
      9  N         -3.9310  -24.6640    2.4980 N.am    6  VAL6       -0.1966
     10  CA        -3.5440  -24.6630    3.9280 C.3     6  VAL6        0.1727
     11  C         -4.7180  -24.2420    4.8240 C.2     6  VAL6        0.2616
     12  O         -5.5760  -23.4550    4.3930 O.2     6  VAL6       -0.2715
     13  CB        -2.3180  -23.7130    4.1950 C.3     6  VAL6        0.0290
     14  CG1       -2.6790  -22.2430    3.8940 C.3     6  VAL6        0.0023
     15  CG2       -1.7910  -23.8520    5.6450 C.3     6  VAL6        0.0023
     16  N         -4.7610  -24.7910    6.0430 N.am    7  ALA7       -0.1977
     17  CA        -5.6000  -24.2710    7.1170 C.3     7  ALA7        0.1597
     18  C         -4.6640  -23.6840    8.1790 C.2     7  ALA7        0.2287
     19  O         -3.7450  -24.3730    8.6550 O.2     7  ALA7       -0.2864
     20  CB        -6.4700  -25.3680    7.7280 C.3     7  ALA7        0.0319
     21  N          2.4910  -33.2270   15.0330 N.3    18  ASN18      -0.1225
     22  CA         2.2500  -33.9310   13.7640 C.3    18  ASN18       0.1785
     23  C          0.7790  -34.1810   13.4090 C.2    18  ASN18       0.2597
     24  O          0.4460  -35.0410   12.5770 O.2    18  ASN18      -0.2718
     25  CB         3.1090  -35.1930   13.6850 C.3    18  ASN18       0.1169
     26  CG         4.5580  -34.8580   13.4400 C.2    18  ASN18       0.2627
     27  OD1        4.8490  -33.9480   12.6520 O.2    18  ASN18      -0.2716
     28  ND2        5.4640  -35.5610   14.1050 N.am   18  ASN18      -0.0877
     29  N         -0.1060  -33.3980   14.0070 N.am   19  GLN19      -0.1965
     30  CA        -1.5210  -33.4820   13.6400 C.3    19  GLN19       0.1733
     31  C         -2.0960  -32.0840   13.5960 C.2    19  GLN19       0.2616
     32  O         -1.4110  -31.1200   13.9230 O.2    19  GLN19      -0.2715
     33  CB        -2.3020  -34.3910   14.6030 C.3    19  GLN19       0.0408
     34  CG        -1.9140  -35.9110   14.5110 C.3    19  GLN19       0.0908
     35  CD        -2.1900  -36.5590   13.1390 C.2    19  GLN19       0.2608
     36  OE1       -3.0440  -36.1020   12.3720 O.2    19  GLN19      -0.2717
     37  NE2       -1.4570  -37.6340   12.8330 N.am   19  GLN19      -0.0878
     38  N         -3.3400  -31.9730   13.1330 N.am   20  LEU20      -0.1977
     39  CA        -4.0430  -30.6700   13.2090 C.3    20  LEU20       0.1596
     40  C         -4.4210  -30.3250   14.6480 C.2    20  LEU20       0.2287
     41  O         -4.8190  -31.2120   15.4330 O.2    20  LEU20      -0.2864
     42  CB        -5.3040  -30.6680   12.3310 C.3    20  LEU20       0.0297
     43  CG        -5.1200  -30.9770   10.8380 C.3    20  LEU20       0.0022
     44  CD1       -6.4960  -31.1010   10.1290 C.3    20  LEU20       0.0001
     45  CD2       -4.2680  -29.9330   10.1740 C.3    20  LEU20       0.0001
     46  N        -13.4530  -28.4140    6.9200 N.3    27  ASP27      -0.1225
     47  CA       -12.1840  -28.1280    6.2260 C.3    27  ASP27       0.1805
     48  C        -11.7280  -29.3440    5.4190 C.2    27  ASP27       0.2597
     49  O        -11.2290  -29.2130    4.3020 O.2    27  ASP27      -0.2718
     50  CB       -11.0780  -27.6560    7.1920 C.3    27  ASP27       0.1424
     51  CG        -9.7180  -27.5040    6.4970 C.2    27  ASP27       0.3668
     52  OD1       -9.5210  -26.5190    5.7660 O.co2  27  ASP27      -0.2456
     53  OD2       -8.8710  -28.4110    6.6310 O.co2  27  ASP27      -0.2456
     54  N        -11.9180  -30.5370    5.9820 N.am   28  LEU28      -0.1979
     55  CA       -11.5340  -31.7290    5.2510 C.3    28  LEU28       0.1596
     56  C        -12.4140  -31.8780    4.0150 C.2    28  LEU28       0.2287
     57  O        -11.9340  -32.2930    2.9590 O.2    28  LEU28      -0.2864
     58  CB       -11.6250  -32.9770    6.1260 C.3    28  LEU28       0.0297
     59  CG       -10.9250  -32.9240    7.4820 C.3    28  LEU28       0.0022
     60  CD1      -10.9140  -34.3130    8.1280 C.3    28  LEU28       0.0001
     61  CD2       -9.5140  -32.3910    7.3680 C.3    28  LEU28       0.0001
     62  N        -13.6910  -29.3860    2.3150 N.3    30  HIS30      -0.1226
     63  CA       -13.1300  -28.3370    1.4470 C.3    30  HIS30       0.1752
     64  C        -11.9130  -28.8530    0.6780 C.2    30  HIS30       0.2595
     65  O        -11.8150  -28.6730   -0.5410 O.2    30  HIS30      -0.2718
     66  CB       -12.7830  -27.1450    2.3380 C.3    30  HIS30       0.0759
     67  CG       -12.1570  -25.9770    1.6400 C.ar   30  HIS30       0.0818
     68  ND1      -12.8310  -25.2030    0.7190 N.ar   30  HIS30      -0.2268
     69  CD2      -10.9390  -25.4000    1.7990 C.ar   30  HIS30       0.1154
     70  CE1      -12.0480  -24.2160    0.3220 C.ar   30  HIS30       0.1986
     71  NE2      -10.8990  -24.3070    0.9670 N.ar   30  HIS30      -0.2212
     72  N        -11.0060  -29.5130    1.3960 N.am   31  VAL31      -0.1980
     73  CA        -9.8300  -30.1420    0.8070 C.3    31  VAL31       0.1595
     74  C        -10.2580  -31.1590   -0.2550 C.2    31  VAL31       0.2287
     75  O         -9.7120  -31.1870   -1.3690 O.2    31  VAL31      -0.2864
     76  CB        -9.0070  -30.8750    1.8940 C.3    31  VAL31       0.0276
     77  CG1       -8.0790  -31.9210    1.2630 C.3    31  VAL31       0.0022
     78  CG2       -8.2360  -29.8750    2.6950 C.3    31  VAL31       0.0022
     79  N          3.9880  -34.8970    6.8090 N.3    46  THR46      -0.1218
     80  CA         2.5680  -34.7650    6.5170 C.3    46  THR46       0.1862
     81  C          2.0000  -36.0850    5.9960 C.2    46  THR46       0.2287
     82  O          0.9060  -36.5140    6.3960 O.2    46  THR46      -0.2866
     83  CB         2.3080  -33.5920    5.5430 C.3    46  THR46       0.1770
     84  OG1        2.6210  -32.3720    6.2160 O.3    46  THR46      -0.2211
     85  CG2        0.8610  -33.5340    5.1300 C.3    46  THR46       0.0375
     86  N          1.5830  -38.4630    8.7910 N.3    49  SER49      -0.1202
     87  CA         0.4350  -37.9900    9.5690 C.3    49  SER49       0.2020
     88  C         -0.8950  -38.5260    9.0590 C.2    49  SER49       0.2618
     89  O         -1.7430  -38.9460    9.8490 O.2    49  SER49      -0.2717
     90  CB         0.3840  -36.4520    9.6220 C.3    49  SER49       0.2103
     91  OG         1.5140  -35.9710   10.3190 O.3    49  SER49      -0.2182
     92  N         -1.0760  -38.5100    7.7420 N.am   50  ILE50      -0.1979
     93  CA        -2.3140  -39.0100    7.1460 C.3    50  ILE50       0.1595
     94  C         -2.2660  -40.5370    7.0830 C.2    50  ILE50       0.2287
     95  O         -3.3020  -41.1960    7.1830 O.2    50  ILE50      -0.2864
     96  CB        -2.6320  -38.3570    5.7540 C.3    50  ILE50       0.0276
     97  CG1       -1.5490  -38.6520    4.7090 C.3    50  ILE50       0.0022
     98  CG2       -2.8060  -36.8500    5.8950 C.3    50  ILE50       0.0022
     99  CD1       -1.9670  -38.2620    3.2640 C.3    50  ILE50       0.0001
    100  N         -4.4880  -40.0900   -0.0070 N.3    54  LEU54      -0.1245
    101  CA        -5.8850  -39.7140   -0.0870 C.3    54  LEU54       0.1561
    102  C         -6.4500  -40.2150   -1.4200 C.2    54  LEU54       0.2260
    103  O         -5.7920  -40.0750   -2.4580 O.2    54  LEU54      -0.2867
    104  CB        -6.0280  -38.1920    0.0260 C.3    54  LEU54       0.0270
    105  CG        -5.6450  -37.6180    1.4100 C.3    54  LEU54       0.0019
    106  CD1       -5.7300  -36.1040    1.4200 C.3    54  LEU54       0.0001
    107  CD2       -6.5380  -38.2240    2.4940 C.3    54  LEU54       0.0001
    108  N         -7.0580  -38.7940   -6.0700 N.3    57  ARG57      -0.1245
    109  CA        -6.1300  -37.7720   -6.5260 C.3    57  ARG57       0.1563
    110  C         -4.7300  -38.3430   -6.5350 C.2    57  ARG57       0.2260
    111  O         -4.4740  -39.4010   -5.9370 O.2    57  ARG57      -0.2867
    112  CB        -6.2070  -36.5320   -5.6390 C.3    57  ARG57       0.0307
    113  CG        -5.6740  -36.7090   -4.2450 C.3    57  ARG57       0.0489
    114  CD        -6.5370  -35.9140   -3.3000 C.3    57  ARG57       0.2205
    115  NE        -7.7490  -36.6450   -2.9220 N.pl3  57  ARG57      -0.0865
    116  CZ        -8.5570  -36.2720   -1.9320 C.cat  57  ARG57       0.5346
    117  NH1       -8.3030  -35.1600   -1.2430 N.pl3  57  ARG57       0.1354
    118  NH2       -9.6140  -37.0100   -1.6200 N.pl3  57  ARG57       0.1354
    119  N          0.5760  -29.1360   -0.2850 N.3    92  PHE92      -0.1241
    120  CA        -0.3710  -29.6560    0.7140 C.3    92  PHE92       0.1605
    121  C          0.1920  -29.6010    2.1430 C.2    92  PHE92       0.2264
    122  O         -0.5020  -29.9480    3.1180 O.2    92  PHE92      -0.2867
    123  CB        -0.7080  -31.1050    0.3350 C.3    92  PHE92       0.0534
    124  CG        -1.9630  -31.6800    0.9810 C.ar   92  PHE92      -0.0203
    125  CD1       -3.1960  -31.0150    0.9070 C.ar   92  PHE92      -0.0042
    126  CD2       -1.9160  -32.9470    1.5810 C.ar   92  PHE92      -0.0042
    127  CE1       -4.3580  -31.5980    1.4480 C.ar   92  PHE92      -0.0003
    128  CE2       -3.0630  -33.5390    2.1280 C.ar   92  PHE92      -0.0003
    129  CZ        -4.2860  -32.8600    2.0630 C.ar   92  PHE92      -0.0000
    130  N          5.5460  -25.4330    2.8180 N.3    98  PHE98      -0.1241
    131  CA         4.9620  -24.1000    2.6830 C.3    98  PHE98       0.1605
    132  C          6.0490  -23.0260    2.6180 C.2    98  PHE98       0.2264
    133  O          5.9900  -22.1080    1.7840 O.2    98  PHE98      -0.2867
    134  CB         3.9840  -23.8120    3.8120 C.3    98  PHE98       0.0534
    135  CG         2.7260  -24.6710    3.7800 C.ar   98  PHE98      -0.0203
    136  CD1        2.1910  -25.1610    4.9780 C.ar   98  PHE98      -0.0042
    137  CD2        2.0500  -24.9420    2.5740 C.ar   98  PHE98      -0.0042
    138  CE1        1.0280  -25.9340    4.9990 C.ar   98  PHE98      -0.0003
    139  CE2        0.8690  -25.7240    2.5750 C.ar   98  PHE98      -0.0003
    140  CZ         0.3420  -26.2090    3.7770 C.ar   98  PHE98      -0.0000
    141  N         -7.8160  -21.8460    4.5320 N.3   111  THR111     -0.1218
    142  CA        -8.8810  -21.8520    5.5180 C.3   111  THR111      0.1862
    143  C         -8.3350  -21.1450    6.7530 C.2   111  THR111      0.2287
    144  O         -7.4400  -21.6560    7.4490 O.2   111  THR111     -0.2866
    145  CB        -9.3250  -23.3030    5.9050 C.3   111  THR111      0.1770
    146  OG1       -9.7300  -24.0240    4.7280 O.3   111  THR111     -0.2211
    147  CG2      -10.5210  -23.2400    6.8770 C.3   111  THR111      0.0375
@<TRIPOS>BOND
     1   110   109    1
     2   110   111    2
     3   109   108    1
     4   109   112    1
     5   112   113    1
     6   113   114    1
     7   114   115    1
     8   115   116    2
     9   103   102    2
    10   116   118    1
    11   116   117    1
    12   102   101    1
    13    75    74    2
    14     1     2    1
    15     8     6    1
    16    65    64    2
    17     5     2    1
    18     5     6    1
    19   119   120    1
    20    74    73    1
    21   101   100    1
    22   101   104    1
    23     7     6    1
    24   104   105    1
    25     2     3    1
    26    70    68   ar
    27    70    71   ar
    28   123   120    1
    29   123   124    1
    30    64    72   am
    31    64    63    1
    32   120   121    1
    33    68    67   ar
    34    73    72    1
    35    73    76    1
    36   125   124   ar
    37   125   127   ar
    38    71    69   ar
    39   124   126   ar
    40    77    76    1
    41   105   106    1
    42   105   107    1
    43    63    62    1
    44    63    66    1
    45   127   129   ar
    46   126   128   ar
    47     3     4    2
    48     3     9   am
    49    67    69   ar
    50    67    66    1
    51   133   132    2
    52    76    78    1
    53   129   128   ar
    54   121   122    2
    55     9    10    1
    56   137   139   ar
    57   137   135   ar
    58   139   140   ar
    59   132   131    1
    60   131   130    1
    61   131   134    1
    62    57    56    2
    63    99    97    1
    64   140   138   ar
    65   135   134    1
    66   135   136   ar
    67    14    13    1
    68    10    13    1
    69    10    11    1
    70    56    55    1
    71    13    15    1
    72    49    48    2
    73    12    11    2
    74   141   142    1
    75    97    96    1
    76   146   145    1
    77    11    16   am
    78   136   138   ar
    79    85    83    1
    80    55    54    1
    81    55    58    1
    82    48    54   am
    83    48    47    1
    84   142   145    1
    85   142   143    1
    86    83    84    1
    87    83    80    1
    88    96    98    1
    89    96    93    1
    90    52    51   ar
    91   145   147    1
    92    81    82    2
    93    81    80    1
    94    16    17    1
    95    58    59    1
    96    47    46    1
    97    47    50    1
    98    51    53   ar
    99    51    50    1
   100    80    79    1
   101   143   144    2
   102    94    93    1
   103    94    95    2
   104    17    20    1
   105    17    18    1
   106    93    92    1
   107    61    59    1
   108    59    60    1
   109    92    88   am
   110    18    19    2
   111    86    87    1
   112    88    87    1
   113    88    89    2
   114    87    90    1
   115    90    91    1
   116    44    43    1
   117    45    43    1
   118    43    42    1
   119    42    39    1
   120    36    35    2
   121    24    23    2
   122    27    26    2
   123    37    35   am
   124    38    39    1
   125    38    31   am
   126    35    34    1
   127    39    40    1
   128    23    22    1
   129    23    29   am
   130    26    25    1
   131    26    28   am
   132    31    30    1
   133    31    32    2
   134    30    29    1
   135    30    33    1
   136    25    22    1
   137    22    21    1
   138    34    33    1
   139    40    41    2
