@<TRIPOS>MOLECULE
tmp/3ss5A00.pdb
 109 102 0 0 0
SMALL
GASTEIGER

@<TRIPOS>ATOM
      1  N         11.2800  -19.1230   33.8930 N.3   105  TYR105     -0.1241
      2  CA        10.2320  -19.7200   34.7250 C.3   105  TYR105      0.1605
      3  C          9.9050  -21.1650   34.3370 C.2   105  TYR105      0.2264
      4  O          9.3230  -21.9100   35.1240 O.2   105  TYR105     -0.2867
      5  CB         8.9730  -18.8440   34.7810 C.3   105  TYR105      0.0534
      6  CG         8.0280  -18.9940   33.6140 C.ar  105  TYR105     -0.0201
      7  CD1        7.0690  -19.9970   33.5980 C.ar  105  TYR105     -0.0009
      8  CD2        8.0780  -18.1160   32.5390 C.ar  105  TYR105     -0.0009
      9  CE1        6.1970  -20.1340   32.5350 C.ar  105  TYR105      0.0417
     10  CE2        7.2080  -18.2420   31.4730 C.ar  105  TYR105      0.0417
     11  CZ         6.2710  -19.2540   31.4750 C.ar  105  TYR105      0.1957
     12  OH         5.4060  -19.3860   30.4130 O.3   105  TYR105     -0.2866
     13  N          2.8590  -18.2940   23.0560 N.3   141  GLN141     -0.1231
     14  CA         2.5360  -17.8200   24.3970 C.3   141  GLN141      0.1698
     15  C          1.3940  -16.8140   24.3370 C.2   141  GLN141      0.2592
     16  O          0.3150  -17.1320   23.8450 O.2   141  GLN141     -0.2718
     17  CB         3.7670  -17.2140   25.0730 C.3   141  GLN141      0.0381
     18  CG         4.8550  -18.2300   25.3970 C.3   141  GLN141      0.0905
     19  CD         4.4360  -19.2140   26.4760 C.2   141  GLN141      0.2608
     20  OE1        3.4120  -19.0330   27.1350 O.2   141  GLN141     -0.2717
     21  NE2        5.2310  -20.2630   26.6620 N.am  141  GLN141     -0.0878
     22  N          1.6290  -15.6030   24.8310 N.am  142  SER142     -0.1952
     23  CA         0.6000  -14.5660   24.8110 C.3   142  SER142      0.1924
     24  C          0.3150  -14.0350   23.4070 C.2   142  SER142      0.2314
     25  O         -0.6910  -13.3620   23.1880 O.2   142  SER142     -0.2863
     26  CB         0.9650  -13.4160   25.7470 C.3   142  SER142      0.2116
     27  OG         0.6590  -13.7430   27.0910 O.3   142  SER142     -0.2180
     28  N         -3.0540  -14.9150   22.1160 N.3   145  LYS145     -0.1245
     29  CA        -4.2300  -14.2510   22.6810 C.3   145  LYS145      0.1561
     30  C         -5.0970  -13.5410   21.6400 C.2   145  LYS145      0.2260
     31  O         -6.3050  -13.7710   21.5850 O.2   145  LYS145     -0.2867
     32  CB        -3.8350  -13.2960   23.8150 C.3   145  LYS145      0.0271
     33  CG        -3.4110  -14.0130   25.0830 C.3   145  LYS145      0.0035
     34  CD        -3.0860  -13.0470   26.2050 C.3   145  LYS145      0.0206
     35  CE        -2.8100  -13.7940   27.5000 C.3   145  LYS145      0.1093
     36  NZ        -1.6980  -14.7720   27.3460 N.3   145  LYS145     -0.1314
     37  N         -4.3140  -12.4890   30.8230 N.3   185  ASN185     -0.1240
     38  CA        -4.5490  -13.9020   31.1220 C.3   185  ASN185      0.1653
     39  C         -5.9900  -14.1950   31.5260 C.2   185  ASN185      0.2266
     40  O         -6.6090  -15.1200   31.0050 O.2   185  ASN185     -0.2867
     41  CB        -3.5900  -14.3970   32.2070 C.3   185  ASN185      0.1155
     42  CG        -2.1530  -14.4680   31.7280 C.2   185  ASN185      0.2627
     43  OD1       -1.7750  -13.8090   30.7580 O.2   185  ASN185     -0.2716
     44  ND2       -1.3440  -15.2730   32.4070 N.am  185  ASN185     -0.0877
     45  N          4.3290  -25.8570   31.5770 N.3   231  GLU231     -0.1245
     46  CA         3.3610  -24.7910   31.7730 C.3   231  GLU231      0.1567
     47  C          2.3200  -25.1790   32.8240 C.2   231  GLU231      0.2260
     48  O          1.9480  -24.3680   33.6690 O.2   231  GLU231     -0.2867
     49  CB         2.6760  -24.4590   30.4440 C.3   231  GLU231      0.0388
     50  CG         2.1540  -23.0360   30.3400 C.3   231  GLU231      0.1160
     51  CD         3.2650  -22.0150   30.1910 C.2   231  GLU231      0.3649
     52  OE1        3.0380  -20.8370   30.5330 O.co2 231  GLU231     -0.2457
     53  OE2        4.3630  -22.3870   29.7270 O.co2 231  GLU231     -0.2457
     54  N         -0.4560  -19.2460   39.1120 N.3   237  ARG237     -0.1231
     55  CA        -1.0580  -17.9470   38.8250 C.3   237  ARG237      0.1694
     56  C         -2.3820  -18.0800   38.0780 C.2   237  ARG237      0.2592
     57  O         -3.4090  -17.5430   38.5030 O.2   237  ARG237     -0.2718
     58  CB        -0.1050  -17.0660   38.0150 C.3   237  ARG237      0.0321
     59  CG        -0.7980  -15.8930   37.3400 C.3   237  ARG237      0.0489
     60  CD         0.1720  -14.9760   36.6090 C.3   237  ARG237      0.2205
     61  NE        -0.5450  -14.0110   35.7790 N.pl3 237  ARG237     -0.0865
     62  CZ        -1.2920  -13.0200   36.2600 C.cat 237  ARG237      0.5346
     63  NH1       -1.4250  -12.8590   37.5710 N.pl3 237  ARG237      0.1354
     64  NH2       -1.9110  -12.1910   35.4290 N.pl3 237  ARG237      0.1354
     65  N         -2.3470  -18.7980   36.9610 N.am  238  ASN238     -0.1974
     66  CA        -3.5200  -18.9710   36.1150 C.3   238  ASN238      0.1688
     67  C         -4.6060  -19.8140   36.7740 C.2   238  ASN238      0.2292
     68  O         -5.7910  -19.6410   36.4940 O.2   238  ASN238     -0.2864
     69  CB        -3.1170  -19.5650   34.7660 C.3   238  ASN238      0.1181
     70  CG        -2.3100  -18.5950   33.9240 C.2   238  ASN238      0.2629
     71  OD1       -2.6870  -17.4350   33.7620 O.2   238  ASN238     -0.2716
     72  ND2       -1.1890  -19.0630   33.3910 N.am  238  ASN238     -0.0877
     73  N         -6.0420  -23.7770   27.5830 N.3   264  TYR264     -0.1241
     74  CA        -5.2970  -22.5230   27.6280 C.3   264  TYR264      0.1605
     75  C         -3.7900  -22.7460   27.5180 C.2   264  TYR264      0.2264
     76  O         -3.1170  -22.0970   26.7160 O.2   264  TYR264     -0.2867
     77  CB        -5.6200  -21.7550   28.9140 C.3   264  TYR264      0.0534
     78  CG        -4.7860  -20.5060   29.1020 C.ar  264  TYR264     -0.0201
     79  CD1       -5.2320  -19.2720   28.6470 C.ar  264  TYR264     -0.0009
     80  CD2       -3.5500  -20.5620   29.7310 C.ar  264  TYR264     -0.0009
     81  CE1       -4.4700  -18.1300   28.8140 C.ar  264  TYR264      0.0417
     82  CE2       -2.7820  -19.4280   29.9010 C.ar  264  TYR264      0.0417
     83  CZ        -3.2460  -18.2150   29.4430 C.ar  264  TYR264      0.1957
     84  OH        -2.4790  -17.0870   29.6130 O.3   264  TYR264     -0.2866
     85  N         -1.0470  -21.6940   24.4050 N.3   268  CYS268     -0.1235
     86  CA         0.1900  -20.9560   24.6380 C.3   268  CYS268      0.1677
     87  C          1.3900  -21.7620   24.1600 C.2   268  CYS268      0.2270
     88  O          2.4360  -21.2040   23.8290 O.2   268  CYS268     -0.2867
     89  CB         0.3580  -20.6310   26.1230 C.3   268  CYS268      0.0956
     90  SG        -0.8890  -19.5280   26.8110 S.3   268  CYS268     -0.0801
     91  N          1.5420   -5.5170   27.1340 N.3   316  TYR316     -0.1241
     92  CA         1.5800   -5.5930   28.5990 C.3   316  TYR316      0.1605
     93  C          1.4150   -4.2200   29.2320 C.2   316  TYR316      0.2264
     94  O          0.4600   -3.5050   28.9290 O.2   316  TYR316     -0.2867
     95  CB         2.8840   -6.2280   29.1110 C.3   316  TYR316      0.0534
     96  CG         3.1060   -7.6650   28.7060 C.ar  316  TYR316     -0.0201
     97  CD1        2.2430   -8.6640   29.1230 C.ar  316  TYR316     -0.0009
     98  CD2        4.2000   -8.0230   27.9280 C.ar  316  TYR316     -0.0009
     99  CE1        2.4490   -9.9730   28.7560 C.ar  316  TYR316      0.0417
    100  CE2        4.4140   -9.3250   27.5620 C.ar  316  TYR316      0.0417
    101  CZ         3.5360  -10.2940   27.9780 C.ar  316  TYR316      0.1957
    102  OH         3.7550  -11.5920   27.6110 O.3   316  TYR316     -0.2866
    103  N          6.1270  -14.1880   26.1920 N.3   334  VAL334     -0.1245
    104  CA         7.2610  -14.4460   27.0650 C.3   334  VAL334      0.1561
    105  C          8.4060  -15.1120   26.3070 C.2   334  VAL334      0.2260
    106  O          9.5580  -15.0570   26.7320 O.2   334  VAL334     -0.2867
    107  CB         6.8430  -15.3070   28.2730 C.3   334  VAL334      0.0252
    108  CG1        6.7160  -16.7640   27.8660 C.3   334  VAL334      0.0019
    109  CG2        7.8350  -15.1410   29.4140 C.3   334  VAL334      0.0019
@<TRIPOS>BOND
     1    31    30    2
     2    30    29    1
     3    28    29    1
     4    29    32    1
     5    13    14    1
     6    25    24    2
     7    24    23    1
     8    32    33    1
     9    88    87    2
    10    16    15    2
    11    87    86    1
    12    15    14    1
    13    15    22   am
    14    14    17    1
    15    85    86    1
    16    86    89    1
    17    23    22    1
    18    23    26    1
    19    17    18    1
    20    33    34    1
    21    18    19    1
    22    26    27    1
    23    89    90    1
    24   103   104    1
    25    34    35    1
    26   105   106    2
    27   105   104    1
    28    19    21   am
    29    19    20    2
    30    76    75    2
    31   104   107    1
    32    91    92    1
    33    36    35    1
    34    75    74    1
    35   100    98   ar
    36   100   101   ar
    37    73    74    1
    38   102   101    1
    39    74    77    1
    40   108   107    1
    41    98    96   ar
    42   101    99   ar
    43   107   109    1
    44    92    95    1
    45    92    93    1
    46    79    81   ar
    47    79    78   ar
    48    96    95    1
    49    96    97   ar
    50    99    97   ar
    51    81    83   ar
    52    77    78    1
    53    94    93    2
    54    78    80   ar
    55    83    84    1
    56    83    82   ar
    57    53    51   ar
    58    80    82   ar
    59    51    50    1
    60    51    52   ar
    61    50    49    1
    62    12    11    1
    63    49    46    1
    64    43    42    2
    65    37    38    1
    66    40    39    2
    67    38    39    1
    68    38    41    1
    69    10    11   ar
    70    10     8   ar
    71    11     9   ar
    72    45    46    1
    73    42    41    1
    74    42    44   am
    75    46    47    1
    76     9     7   ar
    77     8     6   ar
    78    47    48    2
    79    72    70   am
    80     7     6   ar
    81     6     5    1
    82    71    70    2
    83     1     2    1
    84    70    69    1
    85     3     2    1
    86     3     4    2
    87     2     5    1
    88    69    66    1
    89    64    62    1
    90    61    62    2
    91    61    60    1
    92    66    67    1
    93    66    65    1
    94    62    63    1
    95    68    67    2
    96    60    59    1
    97    65    56   am
    98    59    58    1
    99    58    55    1
   100    56    57    2
   101    56    55    1
   102    55    54    1
