@<TRIPOS>MOLECULE
tmp/3ss7A00.pdb
 127 119 0 0 0
SMALL
GASTEIGER

@<TRIPOS>ATOM
      1  N          5.0080    4.0580   28.9700 N.3   112  ILE112     -0.1231
      2  CA         4.7040    2.6370   29.1420 C.3   112  ILE112      0.1692
      3  C          5.8940    1.7930   29.5760 C.2   112  ILE112      0.2591
      4  O          5.7410    0.7480   30.2170 O.2   112  ILE112     -0.2718
      5  CB         4.0520    2.0580   27.8800 C.3   112  ILE112      0.0266
      6  CG1        3.5020    0.6610   28.1440 C.3   112  ILE112      0.0019
      7  CG2        5.0040    2.0880   26.6730 C.3   112  ILE112      0.0020
      8  CD1        2.6970    0.1310   26.9590 C.3   112  ILE112      0.0001
      9  N          7.1050    2.2800   29.2700 N.am  113  LYS113     -0.1980
     10  CA         8.3230    1.5290   29.6510 C.3   113  LYS113      0.1596
     11  C          8.5450    1.4910   31.1780 C.2   113  LYS113      0.2287
     12  O          9.3420    0.6930   31.6820 O.2   113  LYS113     -0.2864
     13  CB         9.5350    2.1010   28.9380 C.3   113  LYS113      0.0298
     14  CG         9.3900    2.2220   27.4220 C.3   113  LYS113      0.0038
     15  CD         9.2000    0.8690   26.8170 C.3   113  LYS113      0.0206
     16  CE         9.7240    0.8550   25.3940 C.3   113  LYS113      0.1093
     17  NZ         8.8900    1.8050   24.6630 N.3   113  LYS113     -0.1314
     18  N         12.3340    5.9450   25.2340 N.3   165  ASN165     -0.1240
     19  CA        11.8180    5.6000   26.5540 C.3   165  ASN165      0.1653
     20  C         12.3790    4.3120   27.1580 C.2   165  ASN165      0.2266
     21  O         12.4270    4.1710   28.3950 O.2   165  ASN165     -0.2867
     22  CB        10.2860    5.5420   26.5480 C.3   165  ASN165      0.1155
     23  CG         9.6540    6.9320   26.3990 C.2   165  ASN165      0.2627
     24  OD1       10.0320    7.8950   27.1310 O.2   165  ASN165     -0.2716
     25  ND2        8.7320    7.0570   25.4460 N.am  165  ASN165     -0.0877
     26  N         14.8480   -6.0600   23.7220 N.3   233  ASP233     -0.1239
     27  CA        13.4120   -5.8020   23.5780 C.3   233  ASP233      0.1674
     28  C         12.7230   -6.6600   22.4810 C.2   233  ASP233      0.2266
     29  O         11.5020   -6.7130   22.4220 O.2   233  ASP233     -0.2867
     30  CB        13.0700   -4.2980   23.4620 C.3   233  ASP233      0.1410
     31  CG        13.4810   -3.6770   22.1570 C.2   233  ASP233      0.3668
     32  OD1       14.2380   -4.2910   21.3680 O.co2 233  ASP233     -0.2456
     33  OD2       12.9970   -2.5490   21.8770 O.co2 233  ASP233     -0.2456
     34  N          4.7640   -5.5930   31.1840 N.3   243  TYR243     -0.1241
     35  CA         3.6750   -4.8330   30.5950 C.3   243  TYR243      0.1605
     36  C          2.2980   -5.4340   30.9420 C.2   243  TYR243      0.2264
     37  O          1.2950   -4.7280   31.1270 O.2   243  TYR243     -0.2867
     38  CB         3.8550   -4.8290   29.0880 C.3   243  TYR243      0.0534
     39  CG         5.0750   -4.0740   28.5830 C.ar  243  TYR243     -0.0201
     40  CD1        6.0340   -4.7220   27.7710 C.ar  243  TYR243     -0.0009
     41  CD2        5.2290   -2.7050   28.8380 C.ar  243  TYR243     -0.0009
     42  CE1        7.1300   -4.0400   27.2510 C.ar  243  TYR243      0.0417
     43  CE2        6.3440   -2.0020   28.3330 C.ar  243  TYR243      0.0417
     44  CZ         7.2710   -2.7050   27.5310 C.ar  243  TYR243      0.1957
     45  OH         8.3320   -2.0090   27.0050 O.3   243  TYR243     -0.2866
     46  N         -0.5120    1.7310   20.7240 N.3   272  PRO272     -0.2116
     47  CA         0.6600    2.0290   19.8680 C.3   272  PRO272      0.1372
     48  C          1.6550    0.8610   19.8840 C.2   272  PRO272      0.2244
     49  O          1.8880    0.2610   20.9540 O.2   272  PRO272     -0.2868
     50  CB         1.2690    3.2920   20.5170 C.3   272  PRO272      0.0268
     51  CG         0.0850    3.9700   21.2850 C.3   272  PRO272      0.0207
     52  CD        -0.7660    2.7570   21.7640 C.3   272  PRO272      0.0892
     53  N          5.5300   -0.5570   18.6710 N.3   274  GLY274     -0.1210
     54  CA         6.9140   -0.4590   18.1630 C.3   274  GLY274      0.1956
     55  C          7.3430   -1.8470   17.7420 C.2   274  GLY274      0.2612
     56  O          6.9110   -2.3300   16.7180 O.2   274  GLY274     -0.2717
     57  N          8.1450   -2.4790   18.5590 N.am  275  VAL275     -0.1965
     58  CA         8.5760   -3.8710   18.3350 C.3   275  VAL275      0.1727
     59  C          7.4710   -4.8780   18.6610 C.2   275  VAL275      0.2617
     60  O          7.4270   -5.9840   18.1170 O.2   275  VAL275     -0.2715
     61  CB         9.8780   -4.1690   19.1340 C.3   275  VAL275      0.0290
     62  CG1        9.6010   -4.3930   20.6010 C.3   275  VAL275      0.0023
     63  CG2       10.5890   -5.4240   18.5920 C.3   275  VAL275      0.0023
     64  N          6.5950   -4.5020   19.6010 N.am  276  GLY276     -0.1940
     65  CA         5.4220   -5.2650   19.9020 C.3   276  GLY276      0.2014
     66  C          5.3260   -5.7150   21.3530 C.2   276  GLY276      0.2639
     67  O          4.2790   -6.1640   21.7950 O.2   276  GLY276     -0.2714
     68  N          6.4300   -5.6060   22.1070 N.am  277  GLY277     -0.1939
     69  CA         6.4160   -6.0640   23.5010 C.3   277  GLY277      0.2014
     70  C          5.3910   -5.3440   24.3770 C.2   277  GLY277      0.2639
     71  O          4.6520   -5.9770   25.1590 O.2   277  GLY277     -0.2714
     72  N          5.4000   -4.0090   24.2910 N.am  278  GLY278     -0.1940
     73  CA         4.4930   -3.1820   25.1080 C.3   278  GLY278      0.1998
     74  C          3.0150   -3.5020   24.8180 C.2   278  GLY278      0.2480
     75  O          2.2470   -3.9210   25.6950 O.2   278  GLY278     -0.2729
     76  N          2.5740   -3.2570   23.5850 N.am  279  PRO279     -0.2726
     77  CA         1.1780   -3.4910   23.2760 C.3   279  PRO279      0.1402
     78  C          0.7910   -4.9850   23.3960 C.2   279  PRO279      0.2269
     79  O         -0.3120   -5.3260   23.8320 O.2   279  PRO279     -0.2865
     80  CB         1.0650   -2.9650   21.8170 C.3   279  PRO279      0.0296
     81  CG         2.4580   -3.1710   21.2620 C.3   279  PRO279      0.0237
     82  CD         3.3220   -2.7280   22.4180 C.3   279  PRO279      0.0939
     83  N          9.1810    6.5420   19.1970 N.3   334  GLY334     -0.1210
     84  CA         9.0090    5.2930   19.9790 C.3   334  GLY334      0.1956
     85  C          8.4870    4.1170   19.1630 C.2   334  GLY334      0.2611
     86  O          8.5170    2.9440   19.6240 O.2   334  GLY334     -0.2717
     87  N          7.9780    4.4230   17.9580 N.am  335  LEU335     -0.1979
     88  CA         7.3880    3.3970   17.0860 C.3   335  LEU335      0.1596
     89  C          8.2340    3.1860   15.8240 C.2   335  LEU335      0.2287
     90  O          7.8040    2.4570   14.9130 O.2   335  LEU335     -0.2864
     91  CB         5.9350    3.7560   16.6850 C.3   335  LEU335      0.0297
     92  CG         4.9970    4.2710   17.7900 C.3   335  LEU335      0.0022
     93  CD1        3.5940    4.5440   17.2030 C.3   335  LEU335      0.0001
     94  CD2        4.9470    3.3070   18.9590 C.3   335  LEU335      0.0001
     95  N         10.2980    1.2860   14.5030 N.3   337  VAL337     -0.1245
     96  CA        10.9120   -0.0520   14.5740 C.3   337  VAL337      0.1561
     97  C         10.6250   -0.7480   13.2420 C.2   337  VAL337      0.2260
     98  O          9.4740   -0.8710   12.8320 O.2   337  VAL337     -0.2867
     99  CB        10.3200   -0.8240   15.7860 C.3   337  VAL337      0.0252
    100  CG1       10.8620   -2.2480   15.8880 C.3   337  VAL337      0.0019
    101  CG2       10.5640    0.0180   17.0720 C.3   337  VAL337      0.0019
    102  N          3.4310   12.7460   23.5880 N.3   379  GLU379     -0.1245
    103  CA         4.3650   12.6850   22.4650 C.3   379  GLU379      0.1567
    104  C          3.6530   12.0440   21.2570 C.2   379  GLU379      0.2260
    105  O          2.6770   11.3360   21.4190 O.2   379  GLU379     -0.2867
    106  CB         5.6340   11.9230   22.8420 C.3   379  GLU379      0.0388
    107  CG         5.4270   10.4820   23.1150 C.3   379  GLU379      0.1160
    108  CD         6.7400    9.7910   23.4710 C.2   379  GLU379      0.3649
    109  OE1        7.5220    9.4730   22.5220 O.co2 379  GLU379     -0.2457
    110  OE2        7.0380    9.5840   24.6650 O.co2 379  GLU379     -0.2457
    111  N          4.0980    9.5230   19.2530 N.3   381  SER381     -0.1217
    112  CA         3.8990    8.0500   19.3090 C.3   381  SER381      0.1889
    113  C          2.6520    7.6940   20.1140 C.2   381  SER381      0.2288
    114  O          1.9590    6.6810   19.8010 O.2   381  SER381     -0.2866
    115  CB         5.1150    7.3830   19.9680 C.3   381  SER381      0.2089
    116  OG         6.2900    7.5710   19.1700 O.3   381  SER381     -0.2183
    117  N          1.0320    6.2670   25.6450 N.3   419  THR419     -0.1203
    118  CA         2.2570    5.5510   26.0130 C.3   419  THR419      0.1994
    119  C          3.4700    6.4200   26.4120 C.2   419  THR419      0.2618
    120  O          4.4840    5.9000   26.8940 O.2   419  THR419     -0.2717
    121  CB         2.6810    4.6530   24.8510 C.3   419  THR419      0.1784
    122  OG1        2.6730    5.4260   23.6460 O.3   419  THR419     -0.2211
    123  CG2        1.7450    3.4370   24.7230 C.3   419  THR419      0.0376
    124  N          3.3730    7.7460   26.2350 N.am  420  GLY420     -0.1956
    125  CA         4.5030    8.6380   26.6260 C.3   420  GLY420      0.1869
    126  C          4.1010   10.1010   26.5410 C.2   420  GLY420      0.2309
    127  O          3.1330   10.4280   25.8570 O.2   420  GLY420     -0.2863
@<TRIPOS>BOND
     1    98    97    2
     2    97    96    1
     3    95    96    1
     4    96    99    1
     5    90    89    2
     6    99   100    1
     7    99   101    1
     8    89    88    1
     9    91    88    1
    10    91    92    1
    11    56    55    2
    12    88    87    1
    13    93    92    1
    14    55    54    1
    15    55    57   am
    16    92    94    1
    17    87    85   am
    18    60    59    2
    19    54    53    1
    20    58    57    1
    21    58    59    1
    22    58    61    1
    23    63    61    1
    24    59    64   am
    25    61    62    1
    26    85    86    2
    27    85    84    1
    28   116   115    1
    29    83    84    1
    30   111   112    1
    31   112   115    1
    32   112   113    1
    33    64    65    1
    34   114   113    2
    35    47    48    1
    36    47    50    1
    37    47    46    1
    38    48    49    2
    39    65    66    1
    40    50    51    1
    41    46    52    1
    42   104   105    2
    43   104   103    1
    44    81    80    1
    45    81    82    1
    46    51    52    1
    47    66    67    2
    48    66    68   am
    49    32    31   ar
    50    80    77    1
    51    33    31   ar
    52    68    69    1
    53    31    30    1
    54    82    76    1
    55    29    28    2
    56   103   106    1
    57   103   102    1
    58    28    27    1
    59   109   108   ar
    60   106   107    1
    61   107   108    1
    62    77    78    1
    63    77    76    1
    64    78    79    2
    65    30    27    1
    66   108   110   ar
    67    69    70    1
    68    27    26    1
    69    76    74   am
    70   122   121    1
    71    72    70   am
    72    72    73    1
    73    70    71    2
    74    17    16    1
    75   123   121    1
    76    74    73    1
    77    74    75    2
    78   121   118    1
    79    18    19    1
    80    16    15    1
    81    25    23   am
    82   117   118    1
    83   127   126    2
    84   118   119    1
    85   124   119   am
    86   124   125    1
    87    23    22    1
    88    23    24    2
    89   119   120    2
    90   126   125    1
    91    22    19    1
    92    19    20    1
    93     7     5    1
    94    15    14    1
    95     8     6    1
    96    45    44    1
    97    20    21    2
    98    42    44   ar
    99    42    40   ar
   100    14    13    1
   101    44    43   ar
   102    40    39   ar
   103     5     6    1
   104     5     2    1
   105    43    41   ar
   106    39    41   ar
   107    39    38    1
   108    13    10    1
   109     1     2    1
   110    38    35    1
   111     2     3    1
   112     9     3   am
   113     9    10    1
   114     3     4    2
   115    10    11    1
   116    35    36    1
   117    35    34    1
   118    36    37    2
   119    11    12    2
