@<TRIPOS>MOLECULE
tmp/3ss8A00.pdb
 163 159 0 0 0
SMALL
GASTEIGER

@<TRIPOS>ATOM
      1  N          0.1790   14.5740  -33.0590 N.3    10  PRO10      -0.2102
      2  CA         1.2940   14.3460  -33.9800 C.3    10  PRO10       0.1504
      3  C          1.3340   15.4090  -35.0790 C.2    10  PRO10       0.2576
      4  O          0.2840   15.9040  -35.4900 O.2    10  PRO10      -0.2718
      5  CB         0.9760   12.9730  -34.5790 C.3    10  PRO10       0.0282
      6  CG         0.1010   12.3140  -33.5820 C.3    10  PRO10       0.0208
      7  CD        -0.7300   13.4120  -33.0090 C.3    10  PRO10       0.0893
      8  N          2.5380   15.7650  -35.5250 N.am   11  ASN11      -0.1961
      9  CA         2.7550   16.6810  -36.6660 C.3    11  ASN11       0.1819
     10  C          2.4310   18.1520  -36.3520 C.2    11  ASN11       0.2622
     11  O          2.2380   18.9600  -37.2630 O.2    11  ASN11      -0.2715
     12  CB         2.0050   16.1650  -37.9260 C.3    11  ASN11       0.1195
     13  CG         2.8680   16.1510  -39.1900 C.2    11  ASN11       0.2630
     14  OD1        4.1000   16.1560  -39.1260 O.2    11  ASN11      -0.2716
     15  ND2        2.2150   16.1140  -40.3470 N.am   11  ASN11      -0.0877
     16  N          2.3850   18.4850  -35.0600 N.am   12  SER12      -0.1936
     17  CA         2.0700   19.8380  -34.5800 C.3    12  SER12       0.2055
     18  C          3.2890   20.7600  -34.5510 C.2    12  SER12       0.2644
     19  O          3.1410   21.9860  -34.4870 O.2    12  SER12      -0.2714
     20  CB         1.3980   19.7810  -33.1970 C.3    12  SER12       0.2130
     21  OG         2.1340   18.9830  -32.2800 O.3    12  SER12      -0.2179
     22  N          4.4820   20.1640  -34.5940 N.am   13  GLY13      -0.1939
     23  CA         5.7430   20.9080  -34.6360 C.3    13  GLY13       0.2014
     24  C          6.5220   20.9140  -33.3380 C.2    13  GLY13       0.2639
     25  O          7.2880   21.8430  -33.0910 O.2    13  GLY13      -0.2714
     26  N          6.3300   19.8760  -32.5210 N.am   14  LYS14      -0.1963
     27  CA         6.9580   19.7610  -31.1990 C.3    14  LYS14       0.1728
     28  C          8.4830   19.6840  -31.2690 C.2    14  LYS14       0.2617
     29  O          9.1660   20.4380  -30.5670 O.2    14  LYS14      -0.2715
     30  CB         6.4300   18.5440  -30.4330 C.3    14  LYS14       0.0311
     31  CG         4.9780   18.6280  -29.9770 C.3    14  LYS14       0.0038
     32  CD         4.4920   17.3440  -29.2930 C.3    14  LYS14       0.0206
     33  CE         4.5440   16.1390  -30.2260 C.3    14  LYS14       0.1093
     34  NZ         3.7250   16.2940  -31.4550 N.3    14  LYS14      -0.1314
     35  N          9.0030   18.7830  -32.1100 N.am   15  THR15      -0.1937
     36  CA        10.4530   18.6200  -32.2730 C.3    15  THR15       0.2028
     37  C         11.0920   19.8570  -32.9220 C.2    15  THR15       0.2642
     38  O         12.2320   20.2030  -32.5840 O.2    15  THR15      -0.2714
     39  CB        10.8210   17.3390  -33.0470 C.3    15  THR15       0.1808
     40  OG1       10.0200   16.2470  -32.5720 O.3    15  THR15      -0.2208
     41  CG2       12.2880   16.9790  -32.8580 C.3    15  THR15       0.0379
     42  N         10.3600   20.5110  -33.8290 N.am   16  SER16      -0.1949
     43  CA        10.8110   21.7570  -34.4620 C.3    16  SER16       0.1924
     44  C         11.0790   22.8320  -33.4060 C.2    16  SER16       0.2314
     45  O         12.1020   23.5180  -33.4540 O.2    16  SER16      -0.2863
     46  CB         9.7940   22.2650  -35.4840 C.3    16  SER16       0.2116
     47  OG         9.6220   21.3630  -36.5570 O.3    16  SER16      -0.2180
     48  N         15.1720   14.4840  -34.9100 N.3    27  ARG27      -0.1231
     49  CA        14.4530   14.1990  -36.1580 C.3    27  ARG27       0.1694
     50  C         13.0980   14.9190  -36.2830 C.2    27  ARG27       0.2592
     51  O         12.2130   14.7740  -35.4280 O.2    27  ARG27      -0.2718
     52  CB        14.3180   12.6860  -36.3720 C.3    27  ARG27       0.0321
     53  CG        15.6480   11.9740  -36.6250 C.3    27  ARG27       0.0489
     54  CD        15.4750   10.5470  -37.1570 C.3    27  ARG27       0.2205
     55  NE        16.7660   10.0130  -37.6160 N.pl3  27  ARG27      -0.0865
     56  CZ        16.9520    8.8860  -38.3070 C.cat  27  ARG27       0.5346
     57  NH1       15.9300    8.1140  -38.6580 N.pl3  27  ARG27       0.1354
     58  NH2       18.1800    8.5290  -38.6560 N.pl3  27  ARG27       0.1354
     59  N         12.9890   15.7010  -37.3610 N.am   28  VAL28      -0.1966
     60  CA        11.7980   16.4610  -37.7500 C.3    28  VAL28       0.1727
     61  C         11.3890   16.0090  -39.1530 C.2    28  VAL28       0.2617
     62  O         12.1940   16.0710  -40.0830 O.2    28  VAL28      -0.2715
     63  CB        12.0520   18.0020  -37.7470 C.3    28  VAL28       0.0290
     64  CG1       10.8750   18.7760  -38.3540 C.3    28  VAL28       0.0023
     65  CG2       12.3390   18.5170  -36.3470 C.3    28  VAL28       0.0023
     66  N         10.1460   15.5590  -39.2960 N.am   29  GLY29      -0.1940
     67  CA         9.6080   15.1170  -40.5830 C.3    29  GLY29       0.2014
     68  C          8.1900   15.6080  -40.7620 C.2    29  GLY29       0.2639
     69  O          7.4860   15.8380  -39.7720 O.2    29  GLY29      -0.2714
     70  N          7.7650   15.7580  -42.0150 N.am   30  ASN30      -0.1958
     71  CA         6.4370   16.3030  -42.3420 C.3    30  ASN30       0.1819
     72  C          5.3160   15.2570  -42.4320 C.2    30  ASN30       0.2621
     73  O          4.3980   15.3960  -43.2420 O.2    30  ASN30      -0.2715
     74  CB         6.5090   17.1550  -43.6240 C.3    30  ASN30       0.1195
     75  CG         6.9740   16.3650  -44.8460 C.2    30  ASN30       0.2630
     76  OD1        7.6180   15.3150  -44.7370 O.2    30  ASN30      -0.2716
     77  ND2        6.6430   16.8770  -46.0220 N.am   30  ASN30      -0.0877
     78  N          5.4020   14.2230  -41.5980 N.am   31  TRP31      -0.1974
     79  CA         4.3740   13.1940  -41.4830 C.3    31  TRP31       0.1640
     80  C          4.2070   12.8170  -40.0020 C.2    31  TRP31       0.2290
     81  O          5.1660   12.9610  -39.2350 O.2    31  TRP31      -0.2864
     82  CB         4.7110   11.9700  -42.3530 C.3    31  TRP31       0.0576
     83  CG         5.9510   11.2130  -41.9390 C.ar   31  TRP31       0.0006
     84  CD1        6.0070   10.0940  -41.1480 C.ar   31  TRP31       0.0946
     85  CD2        7.3070   11.5150  -42.2980 C.ar   31  TRP31       0.0152
     86  NE1        7.3130    9.6860  -40.9910 N.ar   31  TRP31      -0.2442
     87  CE2        8.1320   10.5380  -41.6860 C.ar   31  TRP31       0.0810
     88  CE3        7.9090   12.5170  -43.0740 C.ar   31  TRP31       0.0012
     89  CZ2        9.5300   10.5350  -41.8270 C.ar   31  TRP31       0.0191
     90  CZ3        9.3050   12.5140  -43.2150 C.ar   31  TRP31       0.0001
     91  CH2       10.0960   11.5270  -42.5930 C.ar   31  TRP31       0.0015
     92  N          4.3350   10.7860  -36.6080 N.3    33  GLY33      -0.1210
     93  CA         5.0520    9.6500  -36.0270 C.3    33  GLY33       0.1956
     94  C          6.5530    9.4870  -36.2060 C.2    33  GLY33       0.2612
     95  O          7.0500    8.3520  -36.1790 O.2    33  GLY33      -0.2717
     96  N          7.2720   10.5960  -36.3870 N.am   34  VAL34      -0.1965
     97  CA         8.7350   10.5790  -36.4450 C.3    34  VAL34       0.1727
     98  C          9.2860   10.3460  -35.0290 C.2    34  VAL34       0.2616
     99  O          9.9580    9.3380  -34.8090 O.2    34  VAL34      -0.2715
    100  CB         9.3280   11.8550  -37.1290 C.3    34  VAL34       0.0290
    101  CG1       10.8420   11.8950  -37.0550 C.3    34  VAL34       0.0023
    102  CG2        8.8820   11.9440  -38.5860 C.3    34  VAL34       0.0023
    103  N          9.0040   11.2540  -34.0890 N.am   35  THR35      -0.1951
    104  CA         9.4240   11.1120  -32.6790 C.3    35  THR35       0.1897
    105  C          8.6440    9.9530  -32.0770 C.2    35  THR35       0.2313
    106  O          7.4120    9.9630  -32.0840 O.2    35  THR35      -0.2863
    107  CB         9.1690   12.3860  -31.8280 C.3    35  THR35       0.1794
    108  OG1        9.5930   13.5630  -32.5440 O.3    35  THR35      -0.2208
    109  CG2        9.8510   12.3060  -30.4490 C.3    35  THR35       0.0378
    110  N          3.8780   12.4690  -30.5480 N.3    56  GLY56      -0.1225
    111  CA         2.5440   13.0250  -30.7610 C.3    56  GLY56       0.1811
    112  C          1.4700   12.1060  -30.2280 C.2    56  GLY56       0.2280
    113  O          1.6210   10.8820  -30.2290 O.2    56  GLY56      -0.2866
    114  N          1.1640   27.0420  -32.4510 N.3   113  ASN113     -0.1225
    115  CA         2.1320   26.8460  -33.5220 C.3   113  ASN113      0.1785
    116  C          1.5260   26.9390  -34.9170 C.2   113  ASN113      0.2597
    117  O          0.3020   26.8650  -35.0780 O.2   113  ASN113     -0.2718
    118  CB         2.8450   25.5030  -33.3260 C.3   113  ASN113      0.1169
    119  CG         4.2250   25.4690  -33.9720 C.2   113  ASN113      0.2627
    120  OD1        5.0080   26.4210  -33.8630 O.2   113  ASN113     -0.2716
    121  ND2        4.5290   24.3660  -34.6430 N.am  113  ASN113     -0.0877
    122  N          2.4090   27.1010  -35.9080 N.am  114  MET114     -0.1979
    123  CA         2.0750   27.2130  -37.3340 C.3   114  MET114      0.1605
    124  C          1.1800   28.4130  -37.6360 C.2   114  MET114      0.2287
    125  O          0.3440   28.3630  -38.5410 O.2   114  MET114     -0.2864
    126  CB         1.4850   25.9050  -37.8790 C.3   114  MET114      0.0413
    127  CG         2.5170   24.8160  -37.9680 C.3   114  MET114      0.0598
    128  SD         1.8090   23.2200  -38.2530 S.3   114  MET114     -0.1393
    129  CE         3.2390   22.1820  -37.9940 C.3   114  MET114      0.0692
    130  N          2.1120   31.0780  -38.9880 N.3   116  ASP116     -0.1225
    131  CA         2.5440   31.5290  -40.3230 C.3   116  ASP116      0.1805
    132  C          1.6690   30.9900  -41.4670 C.2   116  ASP116      0.2597
    133  O          1.3390   31.7390  -42.3910 O.2   116  ASP116     -0.2718
    134  CB         4.0310   31.1970  -40.5660 C.3   116  ASP116      0.1424
    135  CG         4.3430   29.7060  -40.4490 C.2   116  ASP116      0.3668
    136  OD1        4.2030   29.1360  -39.3470 O.co2 116  ASP116     -0.2456
    137  OD2        4.7440   29.1010  -41.4620 O.co2 116  ASP116     -0.2456
    138  N          1.3100   29.7020  -41.3840 N.am  117  VAL117     -0.1980
    139  CA         0.4370   29.0090  -42.3490 C.3   117  VAL117      0.1595
    140  C         -0.9620   29.6160  -42.2800 C.2   117  VAL117      0.2287
    141  O         -1.5940   29.8620  -43.3120 O.2   117  VAL117     -0.2864
    142  CB         0.3510   27.4670  -42.0980 C.3   117  VAL117      0.0276
    143  CG1       -0.3890   26.7500  -43.2340 C.3   117  VAL117      0.0022
    144  CG2        1.7290   26.8440  -41.9200 C.3   117  VAL117      0.0022
    145  N          5.6840   30.3280  -34.3780 N.3   142  SER142     -0.1202
    146  CA         6.0680   29.7360  -35.6470 C.3   142  SER142      0.2020
    147  C          7.4810   29.1930  -35.4800 C.2   142  SER142      0.2619
    148  O          8.3980   29.9350  -35.1340 O.2   142  SER142     -0.2717
    149  CB         5.9930   30.7540  -36.7920 C.3   142  SER142      0.2103
    150  OG         6.4310   30.1910  -38.0170 O.3   142  SER142     -0.2182
    151  N          7.6420   27.8930  -35.7080 N.am  143  ALA143     -0.1965
    152  CA         8.9560   27.2580  -35.6730 C.3   143  ALA143      0.1728
    153  C          9.7360   27.5830  -36.9460 C.2   143  ALA143      0.2616
    154  O         10.9660   27.6930  -36.9150 O.2   143  ALA143     -0.2715
    155  CB         8.8230   25.7670  -35.4960 C.3   143  ALA143      0.0334
    156  N          9.0020   27.7380  -38.0490 N.am  144  LEU144     -0.1977
    157  CA         9.5490   28.0800  -39.3590 C.3   144  LEU144      0.1596
    158  C         10.1350   29.4940  -39.3370 C.2   144  LEU144      0.2287
    159  O         11.3120   29.6770  -39.6500 O.2   144  LEU144     -0.2864
    160  CB         8.4610   27.9470  -40.4380 C.3   144  LEU144      0.0297
    161  CG         8.8630   27.7740  -41.9080 C.3   144  LEU144      0.0022
    162  CD1        9.2940   26.3350  -42.2000 C.3   144  LEU144      0.0001
    163  CD2        7.7090   28.1400  -42.8150 C.3   144  LEU144      0.0001
@<TRIPOS>BOND
     1    77    75   am
     2    75    76    2
     3    75    74    1
     4    74    71    1
     5   141   140    2
     6    73    72    2
     7   143   142    1
     8    90    88   ar
     9    90    91   ar
    10    88    85   ar
    11   163   161    1
    12    91    89   ar
    13    72    71    1
    14    72    78   am
    15   133   132    2
    16    82    83    1
    17    82    79    1
    18   139   140    1
    19   139   142    1
    20   139   138    1
    21    71    70    1
    22    85    83   ar
    23    85    87   ar
    24   162   161    1
    25   142   144    1
    26    70    68   am
    27    83    84   ar
    28   161   160    1
    29    89    87   ar
    30    87    86   ar
    31    78    79    1
    32    79    80    1
    33   132   138   am
    34   132   131    1
    35   137   135   ar
    36    84    86   ar
    37    68    67    1
    38    68    69    2
    39    67    66    1
    40   134   135    1
    41   134   131    1
    42   135   136   ar
    43   160   157    1
    44    15    13   am
    45   131   130    1
    46    62    61    2
    47    80    81    2
    48   159   158    2
    49   157   158    1
    50   157   156    1
    51    66    61   am
    52    13    14    2
    53    13    12    1
    54    61    60    1
    55    57    56    1
    56    58    56    1
    57   102   100    1
    58   125   124    2
    59    64    63    1
    60    56    55    2
    61   128   129    1
    62   128   127    1
    63   156   153   am
    64   150   149    1
    65   127   126    1
    66    12     9    1
    67   126   123    1
    68    60    63    1
    69    60    59    1
    70    63    65    1
    71   124   123    1
    72    55    54    1
    73    59    50   am
    74   123   122    1
    75    11    10    2
    76    54    53    1
    77   100   101    1
    78   100    97    1
    79   153   154    2
    80   153   152    1
    81   149   146    1
    82     9    10    1
    83     9     8    1
    84    53    52    1
    85    92    93    1
    86    47    46    1
    87    97    96    1
    88    97    98    1
    89    96    94   am
    90    52    49    1
    91    10    16   am
    92    50    49    1
    93    50    51    2
    94    94    95    2
    95    94    93    1
    96    49    48    1
    97   122   116   am
    98   151   152    1
    99   151   147   am
   100   152   155    1
   101   146   147    1
   102   146   145    1
   103     8     3   am
   104     4     3    2
   105    46    43    1
   106   147   148    2
   107     3     2    1
   108   117   116    2
   109    16    17    1
   110    98    99    2
   111    98   103   am
   112   116   115    1
   113   121   119   am
   114    23    22    1
   115    23    24    1
   116    22    18   am
   117    17    18    1
   118    17    20    1
   119     5     2    1
   120     5     6    1
   121    18    19    2
   122    43    42    1
   123    43    44    1
   124   103   104    1
   125     2     1    1
   126   119   120    2
   127   119   118    1
   128    42    37   am
   129     6     7    1
   130   115   118    1
   131   115   114    1
   132    45    44    2
   133    24    25    2
   134    24    26   am
   135    20    21    1
   136     1     7    1
   137    39    41    1
   138    39    40    1
   139    39    36    1
   140    37    38    2
   141    37    36    1
   142   104   105    1
   143   104   107    1
   144   108   107    1
   145    26    27    1
   146    36    35    1
   147    35    28   am
   148   106   105    2
   149   107   109    1
   150    34    33    1
   151    28    27    1
   152    28    29    2
   153    27    30    1
   154   111   110    1
   155   111   112    1
   156    30    31    1
   157   113   112    2
   158    33    32    1
   159    31    32    1
