@<TRIPOS>MOLECULE
tmp/3ssaB01.pdb
 88 84 0 0 0
SMALL
GASTEIGER

@<TRIPOS>ATOM
      1  N        -25.1820   12.3450   13.0240 N.3   103  ASP103     -0.1239
      2  CA       -26.2870   13.2580   13.4160 C.3   103  ASP103      0.1674
      3  C        -27.4360   12.4680   14.0660 C.2   103  ASP103      0.2266
      4  O        -27.5570   11.2350   13.9340 O.2   103  ASP103     -0.2867
      5  CB       -26.8080   14.0900   12.1890 C.3   103  ASP103      0.1410
      6  CG       -25.8190   15.0700   11.6760 C.2   103  ASP103      0.3668
      7  OD1      -25.9030   15.4350   10.4770 O.co2 103  ASP103     -0.2456
      8  OD2      -24.9120   15.3930   12.4720 O.co2 103  ASP103     -0.2456
      9  N        -28.0120    8.7970   12.2200 N.3   120  ARG120     -0.1245
     10  CA       -28.5600    8.6190   10.8700 C.3   120  ARG120      0.1563
     11  C        -27.6490    7.7570   10.0020 C.2   120  ARG120      0.2260
     12  O        -26.4250    8.0460    9.9240 O.2   120  ARG120     -0.2867
     13  CB       -28.8290   10.0000   10.2630 C.3   120  ARG120      0.0307
     14  CG       -29.8730   10.8280   11.1430 C.3   120  ARG120      0.0489
     15  CD       -29.8860   12.2620   10.5320 C.3   120  ARG120      0.2205
     16  NE       -30.2670   13.1230   11.6760 N.pl3 120  ARG120     -0.0865
     17  CZ       -30.2650   14.4780   11.6310 C.cat 120  ARG120      0.5346
     18  NH1      -29.8910   15.1340   10.5390 N.pl3 120  ARG120      0.1354
     19  NH2      -30.6710   15.1300   12.7030 N.pl3 120  ARG120      0.1354
     20  N        -34.4180   16.0850   14.9440 N.3   148  PRO148     -0.2102
     21  CA       -34.5900   17.4940   15.3560 C.3   148  PRO148      0.1504
     22  C        -33.6770   18.4370   14.5850 C.2   148  PRO148      0.2576
     23  O        -32.4680   18.2210   14.4400 O.2   148  PRO148     -0.2718
     24  CB       -34.1670   17.4600   16.8430 C.3   148  PRO148      0.0282
     25  CG       -34.6170   16.0650   17.2850 C.3   148  PRO148      0.0208
     26  CD       -34.3730   15.1740   16.1020 C.3   148  PRO148      0.0893
     27  N        -34.3040   19.4440   13.9890 N.am  149  GLY149     -0.1943
     28  CA       -33.5070   20.4690   13.2630 C.3   149  GLY149      0.2014
     29  C        -33.0350   20.0870   11.8510 C.2   149  GLY149      0.2640
     30  O        -32.4360   20.8640   11.1360 O.2   149  GLY149     -0.2714
     31  N        -33.3360   18.8590   11.4130 N.am  150  SER150     -0.1935
     32  CA       -32.8740   18.4690   10.0950 C.3   150  SER150      0.2055
     33  C        -33.6220   19.1700    8.9880 C.2   150  SER150      0.2643
     34  O        -34.8790   19.2300    9.0090 O.2   150  SER150     -0.2714
     35  CB       -33.0430   16.9260    9.8800 C.3   150  SER150      0.2130
     36  OG       -32.5760   16.6070    8.5470 O.3   150  SER150     -0.2179
     37  N        -32.8970   19.6910    7.9910 N.am  151  GLU151     -0.1963
     38  CA       -33.5230   20.2300    6.7940 C.3   151  GLU151      0.1733
     39  C        -34.2020   19.1730    5.9050 C.2   151  GLU151      0.2617
     40  O        -35.0730   19.4790    5.0910 O.2   151  GLU151     -0.2715
     41  CB       -32.5570   21.0670    5.9240 C.3   151  GLU151      0.0429
     42  CG       -32.1910   22.3130    6.7630 C.3   151  GLU151      0.1163
     43  CD       -31.2740   23.2280    5.9930 C.2   151  GLU151      0.3649
     44  OE1      -30.7320   22.8170    4.9630 O.co2 151  GLU151     -0.2457
     45  OE2      -31.0460   24.3310    6.4910 O.co2 151  GLU151     -0.2457
     46  N        -33.8590   17.9160    6.0980 N.am  152  SER152     -0.1950
     47  CA       -34.5120   16.8360    5.3680 C.3   152  SER152      0.1924
     48  C        -35.6730   16.2880    6.0990 C.2   152  SER152      0.2314
     49  O        -35.6490   16.1140    7.3240 O.2   152  SER152     -0.2863
     50  CB       -33.4690   15.6620    5.1520 C.3   152  SER152      0.2116
     51  OG       -32.5000   16.1670    4.2620 O.3   152  SER152     -0.2180
     52  N        -34.5260   11.4820    5.5620 N.3   219  HIS219     -0.1241
     53  CA       -33.9990   10.4660    6.4860 C.3   219  HIS219      0.1621
     54  C        -35.0640    9.4910    6.8030 C.2   219  HIS219      0.2264
     55  O        -36.1710    9.8610    7.2190 O.2   219  HIS219     -0.2867
     56  CB       -33.5850   11.1760    7.7700 C.3   219  HIS219      0.0745
     57  CG       -32.4460   12.1210    7.5220 C.ar  219  HIS219      0.0817
     58  ND1      -31.2320   11.6900    7.0140 N.ar  219  HIS219     -0.2268
     59  CD2      -32.3170   13.4590    7.7660 C.ar  219  HIS219      0.1154
     60  CE1      -30.4210   12.7420    6.8800 C.ar  219  HIS219      0.1986
     61  NE2      -31.0450   13.8260    7.3720 N.ar  219  HIS219     -0.2212
     62  N        -25.8680   13.1910    0.5330 N.3   260  ALA260     -0.1231
     63  CA       -25.9160   13.3810    1.9850 C.3   260  ALA260      0.1694
     64  C        -27.0820   14.2480    2.4570 C.2   260  ALA260      0.2591
     65  O        -27.0020   14.8400    3.5670 O.2   260  ALA260     -0.2718
     66  CB       -24.5270   13.9420    2.5050 C.3   260  ALA260      0.0304
     67  N        -28.1730   14.2040    1.7240 N.am  261  LYS261     -0.1980
     68  CA       -29.4340   14.8320    2.1800 C.3   261  LYS261      0.1596
     69  C        -30.4340   13.7960    2.6270 C.2   261  LYS261      0.2287
     70  O        -31.6030   14.1130    2.8600 O.2   261  LYS261     -0.2864
     71  CB       -29.9940   15.7310    1.0970 C.3   261  LYS261      0.0298
     72  CG       -29.0200   16.9690    1.0690 C.3   261  LYS261      0.0038
     73  CD       -29.1120   17.7640   -0.1950 C.3   261  LYS261      0.0206
     74  CE       -30.5420   17.8890   -0.7140 C.3   261  LYS261      0.1093
     75  NZ       -30.5290   18.7360   -1.9530 N.3   261  LYS261     -0.1314
     76  N        -25.2100   21.6610   18.8320 N.3   325  GLY325     -0.1210
     77  CA       -25.7810   21.7390   17.4720 C.3   325  GLY325      0.1956
     78  C        -26.5260   20.4560   17.0460 C.2   325  GLY325      0.2611
     79  O        -27.1490   20.3680   15.9490 O.2   325  GLY325     -0.2717
     80  N        -26.4410   19.4320   17.8960 N.am  326  LYS326     -0.1979
     81  CA       -27.0460   18.0930   17.5780 C.3   326  LYS326      0.1596
     82  C        -27.9290   17.7210   18.6810 C.2   326  LYS326      0.2287
     83  O        -29.1160   17.5090   18.4640 O.2   326  LYS326     -0.2864
     84  CB       -25.9540   17.0460   17.3950 C.3   326  LYS326      0.0298
     85  CG       -25.0450   17.3550   16.2200 C.3   326  LYS326      0.0038
     86  CD       -24.1420   16.1780   15.8810 C.3   326  LYS326      0.0206
     87  CE       -23.0590   16.6520   14.9230 C.3   326  LYS326      0.1093
     88  NZ       -22.3640   15.5000   14.4790 N.3   326  LYS326     -0.1314
@<TRIPOS>BOND
     1    75    74    1
     2    74    73    1
     3    73    72    1
     4    62    63    1
     5    72    71    1
     6    71    68    1
     7    67    68    1
     8    67    64   am
     9    63    64    1
    10    63    66    1
    11    68    69    1
    12    64    65    2
    13    69    70    2
    14    51    50    1
    15    44    43   ar
    16    40    39    2
    17    50    47    1
    18    47    46    1
    19    47    48    1
    20    52    53    1
    21    39    46   am
    22    39    38    1
    23    41    42    1
    24    41    38    1
    25    43    45   ar
    26    43    42    1
    27    48    49    2
    28    53    54    1
    29    53    56    1
    30    38    37    1
    31    54    55    2
    32    60    58   ar
    33    60    61   ar
    34    58    57   ar
    35    61    59   ar
    36    57    59   ar
    37    57    56    1
    38    37    33   am
    39    36    35    1
    40    33    34    2
    41    33    32    1
    42    35    32    1
    43    12    11    2
    44    11    10    1
    45    32    31    1
    46    13    10    1
    47    13    14    1
    48     7     6   ar
    49    15    14    1
    50    15    16    1
    51    18    17    1
    52    10     9    1
    53    30    29    2
    54    31    29   am
    55    17    16    2
    56    17    19    1
    57     6     5    1
    58     6     8   ar
    59    29    28    1
    60     5     2    1
    61     1     2    1
    62    28    27    1
    63     2     3    1
    64     4     3    2
    65    27    22   am
    66    23    22    2
    67    88    87    1
    68    22    21    1
    69    87    86    1
    70    20    21    1
    71    20    26    1
    72    21    24    1
    73    86    85    1
    74    79    78    2
    75    26    25    1
    76    85    84    1
    77    24    25    1
    78    78    77    1
    79    78    80   am
    80    84    81    1
    81    77    76    1
    82    81    80    1
    83    81    82    1
    84    83    82    2
