@<TRIPOS>MOLECULE
tmp/3ssjA00.pdb
 186 177 0 0 0
SMALL
GASTEIGER

@<TRIPOS>ATOM
      1  N         23.7010   16.6560    3.6430 N.3     8  ALA8       -0.1245
      2  CA        23.6660   15.4190    2.8570 C.3     8  ALA8        0.1562
      3  C         24.8750   15.4380    1.9240 C.2     8  ALA8        0.2260
      4  O         24.8770   16.1250    0.9080 O.2     8  ALA8       -0.2867
      5  CB        22.3700   15.3310    2.0800 C.3     8  ALA8        0.0290
      6  N         26.6210   14.0270   -0.6850 N.3    10  ASP10      -0.1239
      7  CA        26.4620   13.1030   -1.8150 C.3    10  ASP10       0.1674
      8  C         27.4010   13.3670   -2.9870 C.2    10  ASP10       0.2266
      9  O         27.2030   12.8450   -4.0690 O.2    10  ASP10      -0.2867
     10  CB        25.0170   13.0850   -2.3190 C.3    10  ASP10       0.1410
     11  CG        24.0430   12.6350   -1.2500 C.2    10  ASP10       0.3668
     12  OD1       24.3010   11.6050   -0.5840 O.co2  10  ASP10      -0.2456
     13  OD2       22.9850   13.3070   -1.1220 O.co2  10  ASP10      -0.2456
     14  N         25.1440   13.4660    6.9440 N.3    32  LYS32      -0.1245
     15  CA        24.5180   12.2610    6.3960 C.3    32  LYS32       0.1561
     16  C         25.3890   11.7830    5.2450 C.2    32  LYS32       0.2260
     17  O         25.5910   12.5480    4.2730 O.2    32  LYS32      -0.2867
     18  CB        23.1170   12.6010    5.8910 C.3    32  LYS32       0.0271
     19  CG        22.3280   11.3240    5.5240 C.3    32  LYS32       0.0035
     20  CD        20.8890   11.6420    5.1200 C.3    32  LYS32       0.0206
     21  CE        20.7310   12.3180    3.7540 C.3    32  LYS32       0.1093
     22  NZ        21.2600   11.4590    2.6450 N.3    32  LYS32      -0.1314
     23  N         23.0910    6.8790    5.5410 N.3    60  ASP60      -0.1239
     24  CA        21.8300    6.8580    4.8240 C.3    60  ASP60       0.1674
     25  C         21.8010    5.7140    3.8420 C.2    60  ASP60       0.2266
     26  O         22.0260    5.8780    2.6430 O.2    60  ASP60      -0.2867
     27  CB        21.6030    8.1670    4.0990 C.3    60  ASP60       0.1410
     28  CG        20.3080    8.1700    3.3580 C.2    60  ASP60       0.3668
     29  OD1       19.4550    7.2670    3.6020 O.co2  60  ASP60      -0.2456
     30  OD2       20.1270    9.0910    2.5320 O.co2  60  ASP60      -0.2456
     31  N         19.1770    3.4240    3.6610 N.3    62  LYS62      -0.1245
     32  CA        17.7710    3.0740    3.3710 C.3    62  LYS62       0.1561
     33  C         17.6090    1.5690    3.3160 C.2    62  LYS62       0.2260
     34  O         17.1760    0.9770    2.3230 O.2    62  LYS62      -0.2867
     35  CB        17.2690    3.7820    2.1110 C.3    62  LYS62       0.0271
     36  CG        17.1880    5.2670    2.3070 C.3    62  LYS62       0.0035
     37  CD        16.6750    5.9470    1.0560 C.3    62  LYS62       0.0206
     38  CE        16.5610    7.4320    1.2910 C.3    62  LYS62       0.1093
     39  NZ        17.9050    8.0390    1.4050 N.3    62  LYS62      -0.1314
     40  N         19.7280    4.9110    8.5530 N.3    86  ILE86      -0.1245
     41  CA        18.3670    5.0770    8.0370 C.3    86  ILE86       0.1561
     42  C         17.8730    3.7800    7.4320 C.2    86  ILE86       0.2260
     43  O         18.5460    3.1800    6.5910 O.2    86  ILE86      -0.2867
     44  CB        18.3180    6.2280    7.0060 C.3    86  ILE86       0.0252
     45  CG1       18.6660    7.5580    7.6900 C.3    86  ILE86       0.0019
     46  CG2       16.9070    6.3120    6.3780 C.3    86  ILE86       0.0019
     47  CD1       18.7920    8.8070    6.7820 C.3    86  ILE86       0.0001
     48  N         12.5470    5.5350    8.0990 N.3   113  LEU113     -0.1245
     49  CA        12.0240    6.3060    6.9800 C.3   113  LEU113      0.1561
     50  C         10.5720    5.9110    6.7340 C.2   113  LEU113      0.2260
     51  O         10.2360    4.7490    6.4820 O.2   113  LEU113     -0.2867
     52  CB        12.8910    6.0500    5.7440 C.3   113  LEU113      0.0270
     53  CG        12.4350    6.6380    4.4030 C.3   113  LEU113      0.0019
     54  CD1       12.1670    8.1540    4.5030 C.3   113  LEU113      0.0001
     55  CD2       13.5150    6.3700    3.3840 C.3   113  LEU113      0.0001
     56  N          7.5870    8.3390    4.9160 N.3   115  GLU115     -0.1231
     57  CA         7.2570    8.7580    3.5680 C.3   115  GLU115      0.1699
     58  C          8.4630    9.4750    2.9860 C.2   115  GLU115      0.2592
     59  O          9.1400   10.2500    3.6750 O.2   115  GLU115     -0.2718
     60  CB         6.0430    9.7000    3.6040 C.3   115  GLU115      0.0402
     61  CG         5.5740   10.1280    2.2060 C.3   115  GLU115      0.1161
     62  CD         4.2450   10.8510    2.2240 C.2   115  GLU115      0.3649
     63  OE1        3.4300   10.5330    3.1040 O.co2 115  GLU115     -0.2457
     64  OE2        3.9990   11.6730    1.3200 O.co2 115  GLU115     -0.2457
     65  N          8.7340    9.1910    1.7100 N.am  116  MET116     -0.1965
     66  CA         9.8500    9.8170    0.9940 C.3   116  MET116      0.1736
     67  C          9.4370   11.1150    0.3210 C.2   116  MET116      0.2617
     68  O          8.2470   11.3700    0.1360 O.2   116  MET116     -0.2715
     69  CB        10.3920    8.8570   -0.0520 C.3   116  MET116      0.0427
     70  CG        11.1820    7.7180    0.6140 C.3   116  MET116      0.0599
     71  SD        11.8840    6.5790   -0.5830 S.3   116  MET116     -0.1393
     72  CE        13.2200    7.5150   -1.3060 C.3   116  MET116      0.0692
     73  N         10.4220   11.9140   -0.0770 N.am  117  SER117     -0.1936
     74  CA        10.1630   13.2900   -0.5140 C.3   117  SER117      0.2055
     75  C          9.9060   13.4450   -2.0100 C.2   117  SER117      0.2643
     76  O          9.4220   14.4940   -2.4510 O.2   117  SER117     -0.2714
     77  CB        11.3500   14.1760   -0.1310 C.3   117  SER117      0.2130
     78  OG        12.5420   13.7320   -0.7740 O.3   117  SER117     -0.2179
     79  N         10.2440   12.4450   -2.8260 N.am  118  HIS118     -0.1973
     80  CA        10.1890   12.5960   -4.2920 C.3   118  HIS118      0.1656
     81  C          8.7850   12.2880   -4.8190 C.2   118  HIS118      0.2291
     82  O          7.9750   11.6530   -4.1440 O.2   118  HIS118     -0.2864
     83  CB        11.2450   11.6760   -4.9440 C.3   118  HIS118      0.0771
     84  CG        10.9760   10.2360   -4.6960 C.ar  118  HIS118      0.0820
     85  ND1       10.9810    9.6870   -3.4240 N.ar  118  HIS118     -0.2267
     86  CD2       10.6320    9.2410   -5.5450 C.ar  118  HIS118      0.1154
     87  CE1       10.6620    8.4030   -3.5200 C.ar  118  HIS118      0.1986
     88  NE2       10.4440    8.1070   -4.7940 N.ar  118  HIS118     -0.2212
     89  N         12.2700    9.8250    9.7030 N.3   145  VAL145     -0.1231
     90  CA        12.5060   10.6790    8.5350 C.3   145  VAL145      0.1692
     91  C         11.1840   10.8540    7.8000 C.2   145  VAL145      0.2593
     92  O         10.4490    9.8860    7.5860 O.2   145  VAL145     -0.2718
     93  CB        13.5330   10.0290    7.5800 C.3   145  VAL145      0.0266
     94  CG1       13.9180   10.9950    6.4620 C.3   145  VAL145      0.0020
     95  CG2       14.7520    9.5130    8.3320 C.3   145  VAL145      0.0020
     96  N         10.8870   12.0880    7.4090 N.am  146  GLY146     -0.1943
     97  CA         9.6670   12.3780    6.6500 C.3   146  GLY146      0.1998
     98  C          9.9160   13.5950    5.7730 C.2   146  GLY146      0.2480
     99  O         10.9160   14.3050    5.9430 O.2   146  GLY146     -0.2729
    100  N          8.9760   13.8890    4.8500 N.am  147  PRO147     -0.2726
    101  CA         9.2950   14.7030    3.6530 C.3   147  PRO147      0.1402
    102  C          9.0660   16.2190    3.7510 C.2   147  PRO147      0.2269
    103  O          7.9390   16.6710    3.9870 O.2   147  PRO147     -0.2865
    104  CB         8.3660   14.0980    2.5930 C.3   147  PRO147      0.0296
    105  CG         7.1670   13.7010    3.3680 C.3   147  PRO147      0.0237
    106  CD         7.7220   13.1350    4.6670 C.3   147  PRO147      0.0939
    107  N         14.3710   15.5520    4.6980 N.3   170  PRO170     -0.2102
    108  CA        15.0360   15.9200    3.4630 C.3   170  PRO170      0.1504
    109  C         14.0370   16.4640    2.4400 C.2   170  PRO170      0.2576
    110  O         12.8110   16.3280    2.5840 O.2   170  PRO170     -0.2718
    111  CB        15.6180   14.5860    2.9860 C.3   170  PRO170      0.0282
    112  CG        14.5300   13.5840    3.3840 C.3   170  PRO170      0.0208
    113  CD        13.9830   14.1220    4.7100 C.3   170  PRO170      0.0893
    114  N         14.5930   16.9930    1.3510 N.am  171  GLY171     -0.1943
    115  CA        13.7950   17.6340    0.3050 C.3   171  GLY171      0.2014
    116  C         13.7860   19.1520    0.3850 C.2   171  GLY171      0.2638
    117  O         12.9790   19.7870   -0.3000 O.2   171  GLY171     -0.2714
    118  N         14.6910   19.7170    1.1830 N.am  172  VAL172     -0.1977
    119  CA        14.7970   21.1620    1.3350 C.3   172  VAL172      0.1596
    120  C         15.7140   21.7260    0.2630 C.2   172  VAL172      0.2287
    121  O         16.8120   21.2200    0.0650 O.2   172  VAL172     -0.2864
    122  CB        15.3540   21.4930    2.7210 C.3   172  VAL172      0.0276
    123  CG1       15.5480   23.0120    2.8940 C.3   172  VAL172      0.0022
    124  CG2       14.4110   20.9200    3.7960 C.3   172  VAL172      0.0022
    125  N         16.7530   21.9890   -3.2430 N.3   174  ALA174     -0.1231
    126  CA        16.6650   21.4810   -4.6090 C.3   174  ALA174      0.1694
    127  C         15.3130   20.8460   -4.9570 C.2   174  ALA174      0.2591
    128  O         14.8030   20.9840   -6.0670 O.2   174  ALA174     -0.2718
    129  CB        17.8070   20.5150   -4.9100 C.3   174  ALA174      0.0304
    130  N         14.7450   20.0810   -4.0270 N.am  175  GLN175     -0.1979
    131  CA        13.5040   19.3880   -4.2900 C.3   175  GLN175      0.1601
    132  C         12.2820   20.2440   -4.0520 C.2   175  GLN175      0.2287
    133  O         11.1850   19.8140   -4.3750 O.2   175  GLN175     -0.2864
    134  CB        13.4270   18.1220   -3.4230 C.3   175  GLN175      0.0394
    135  CG        14.4550   17.0490   -3.7840 C.3   175  GLN175      0.0908
    136  CD        14.3100   15.8360   -2.8790 C.2   175  GLN175      0.2608
    137  OE1       13.2350   15.2210   -2.8280 O.2   175  GLN175     -0.2717
    138  NE2       15.3550   15.5020   -2.1340 N.am  175  GLN175     -0.0878
    139  N         17.5330   18.1970    6.4300 N.3   190  ILE190     -0.1231
    140  CA        18.6340   17.6670    5.6640 C.3   190  ILE190      0.1692
    141  C         18.7390   18.4780    4.3620 C.2   190  ILE190      0.2592
    142  O         17.7460   18.6780    3.6590 O.2   190  ILE190     -0.2718
    143  CB        18.3230   16.2070    5.2970 C.3   190  ILE190      0.0266
    144  CG1       18.3520   15.3350    6.5510 C.3   190  ILE190      0.0019
    145  CG2       19.3440   15.6720    4.2430 C.3   190  ILE190      0.0020
    146  CD1       17.6440   14.0050    6.3710 C.3   190  ILE190      0.0001
    147  N         19.9500   18.9410    4.0410 N.am  191  VAL191     -0.1966
    148  CA        20.1920   19.7210    2.8180 C.3   191  VAL191      0.1727
    149  C         21.4440   19.1920    2.1320 C.2   191  VAL191      0.2617
    150  O         22.5030   19.1070    2.7480 O.2   191  VAL191     -0.2715
    151  CB        20.3780   21.2300    3.1420 C.3   191  VAL191      0.0290
    152  CG1       20.6230   22.0140    1.8620 C.3   191  VAL191      0.0023
    153  CG2       19.1350   21.7940    3.8310 C.3   191  VAL191      0.0023
    154  N         21.2720   18.8280    0.8600 N.am  192  GLY192     -0.1940
    155  CA        22.3900   18.3550    0.0270 C.3   192  GLY192      0.2014
    156  C         22.7880   19.3990   -1.0070 C.2   192  GLY192      0.2639
    157  O         23.5820   20.3070   -0.7080 O.2   192  GLY192     -0.2714
    158  N         22.2220   19.2940   -2.2030 N.am  193  ARG193     -0.1963
    159  CA        22.6820   20.0790   -3.3610 C.3   193  ARG193      0.1729
    160  C         22.6720   21.5820   -3.1310 C.2   193  ARG193      0.2616
    161  O         23.5770   22.2610   -3.6320 O.2   193  ARG193     -0.2715
    162  CB        21.8100   19.7330   -4.5650 C.3   193  ARG193      0.0348
    163  CG        22.1840   18.3880   -5.1750 C.3   193  ARG193      0.0492
    164  CD        21.1120   17.9530   -6.1710 C.3   193  ARG193      0.2205
    165  NE        19.9040   17.5150   -5.4720 N.pl3 193  ARG193     -0.0865
    166  CZ        18.7390   17.2280   -6.0490 C.cat 193  ARG193      0.5346
    167  NH1       18.5480   17.3630   -7.3660 N.pl3 193  ARG193      0.1354
    168  NH2       17.7240   16.8220   -5.3030 N.pl3 193  ARG193      0.1354
    169  N         21.6970   22.1160   -2.4080 N.am  194  SER194     -0.1950
    170  CA        21.6280   23.5700   -2.2130 C.3   194  SER194      0.1924
    171  C         22.8840   24.0700   -1.5130 C.2   194  SER194      0.2314
    172  O         23.2510   25.2640   -1.6620 O.2   194  SER194     -0.2863
    173  CB        20.4070   23.9540   -1.3820 C.3   194  SER194      0.2116
    174  OG        19.2250   23.8060   -2.1290 O.3   194  SER194     -0.2180
    175  N         26.0300   21.6910   -1.3460 N.3   196  TYR196     -0.1241
    176  CA        27.2600   21.1320   -1.9190 C.3   196  TYR196      0.1605
    177  C         27.5050   21.4770   -3.3850 C.2   196  TYR196      0.2264
    178  O         28.6390   21.3110   -3.8360 O.2   196  TYR196     -0.2867
    179  CB        27.4860   19.6400   -1.5790 C.3   196  TYR196      0.0534
    180  CG        26.5850   18.6500   -2.2890 C.ar  196  TYR196     -0.0201
    181  CD1       26.6900   18.4330   -3.6720 C.ar  196  TYR196     -0.0009
    182  CD2       25.6580   17.8950   -1.5710 C.ar  196  TYR196     -0.0009
    183  CE1       25.8740   17.5100   -4.3330 C.ar  196  TYR196      0.0417
    184  CE2       24.8540   16.9770   -2.2250 C.ar  196  TYR196      0.0417
    185  CZ        24.9620   16.7910   -3.5850 C.ar  196  TYR196      0.1957
    186  OH        24.1940   15.8700   -4.2710 O.3   196  TYR196     -0.2866
@<TRIPOS>BOND
     1   167   166    1
     2   164   165    1
     3   164   163    1
     4   128   127    2
     5   166   165    2
     6   166   168    1
     7    86    88   ar
     8    86    84   ar
     9   163   162    1
    10   127   126    1
    11   127   130   am
    12    83    84    1
    13    83    80    1
    14   129   126    1
    15    81    80    1
    16    81    82    2
    17    88    87   ar
    18    84    85   ar
    19   126   125    1
    20   162   159    1
    21   133   132    2
    22   183   181   ar
    23   183   185   ar
    24    80    79    1
    25   131   132    1
    26   131   130    1
    27   131   134    1
    28   186   185    1
    29     9     8    2
    30   178   177    2
    31   135   134    1
    32   135   136    1
    33   181   180   ar
    34   161   160    2
    35   185   184   ar
    36    87    85   ar
    37   177   176    1
    38   159   160    1
    39   159   158    1
    40   160   169   am
    41     8     7    1
    42   136   137    2
    43   136   138   am
    44    79    75   am
    45    76    75    2
    46   169   170    1
    47    10     7    1
    48    10    11    1
    49   180   179    1
    50   180   182   ar
    51   184   182   ar
    52   170   171    1
    53   170   173    1
    54   158   156   am
    55   174   173    1
    56    75    74    1
    57   176   179    1
    58   176   175    1
    59     7     6    1
    60   172   171    2
    61    72    71    1
    62    11    13   ar
    63    11    12   ar
    64   156   157    2
    65   156   155    1
    66    78    77    1
    67    71    70    1
    68    74    77    1
    69    74    73    1
    70   117   116    2
    71    73    67   am
    72    69    70    1
    73    69    66    1
    74   155   154    1
    75   121   120    2
    76    68    67    2
    77   120   119    1
    78   115   116    1
    79   115   114    1
    80    67    66    1
    81   116   118   am
    82   154   149   am
    83     4     3    2
    84    66    65    1
    85    37    38    1
    86    37    36    1
    87   118   119    1
    88    38    39    1
    89    64    62   ar
    90   119   122    1
    91   114   109   am
    92    65    58   am
    93   152   151    1
    94     3     2    1
    95     5     2    1
    96    35    36    1
    97    35    32    1
    98   149   150    2
    99   149   148    1
   100    61    62    1
   101    61    60    1
   102    62    63   ar
   103    34    33    2
   104   109   110    2
   105   109   108    1
   106    30    28   ar
   107   104   105    1
   108   104   101    1
   109    26    25    2
   110    22    21    1
   111   122   123    1
   112   122   124    1
   113   148   151    1
   114   148   147    1
   115     2     1    1
   116   111   112    1
   117   111   108    1
   118    58    57    1
   119    58    59    2
   120   151   153    1
   121    33    32    1
   122    28    29   ar
   123    28    27    1
   124   105   106    1
   125    32    31    1
   126   112   113    1
   127    55    53    1
   128   108   107    1
   129    57    60    1
   130    57    56    1
   131   101   102    1
   132   101   100    1
   133   142   141    2
   134   102   103    2
   135    21    20    1
   136    25    24    1
   137   147   141   am
   138    27    24    1
   139   145   143    1
   140    17    16    2
   141   141   140    1
   142    53    54    1
   143    53    52    1
   144   106   100    1
   145   107   113    1
   146    24    23    1
   147   100    98   am
   148    20    19    1
   149    16    15    1
   150   143   140    1
   151   143   144    1
   152    19    18    1
   153   140   139    1
   154    52    49    1
   155    98    99    2
   156    98    97    1
   157    18    15    1
   158   146   144    1
   159    46    44    1
   160    15    14    1
   161    94    93    1
   162    51    50    2
   163    43    42    2
   164    97    96    1
   165    50    49    1
   166    47    45    1
   167    49    48    1
   168    44    45    1
   169    44    41    1
   170    96    91   am
   171    42    41    1
   172    93    95    1
   173    93    90    1
   174    92    91    2
   175    91    90    1
   176    41    40    1
   177    90    89    1
