@<TRIPOS>MOLECULE
tmp/3ssnC02.pdb
 124 124 0 0 0
SMALL
GASTEIGER

@<TRIPOS>ATOM
      1  N         19.1520  141.0660   54.3020 N.3   163  SER163     -0.1217
      2  CA        19.6510  142.1910   55.0640 C.3   163  SER163      0.1889
      3  C         19.4150  142.0140   56.5660 C.2   163  SER163      0.2288
      4  O         20.3020  142.2870   57.3770 O.2   163  SER163     -0.2866
      5  CB        18.9940  143.4800   54.5770 C.3   163  SER163      0.2089
      6  OG        19.9430  144.5150   54.5470 O.3   163  SER163     -0.2183
      7  N         22.5710  140.7800   59.0330 N.3   167  PHE167     -0.1227
      8  CA        22.9310  141.9770   59.8180 C.3   167  PHE167      0.1736
      9  C         23.7330  143.0150   59.0160 C.2   167  PHE167      0.2596
     10  O         24.8420  143.3940   59.4000 O.2   167  PHE167     -0.2718
     11  CB        23.6850  141.6240   61.1210 C.3   167  PHE167      0.0547
     12  CG        23.0690  140.4980   61.9310 C.ar  167  PHE167     -0.0202
     13  CD1       21.6890  140.2910   61.9670 C.ar  167  PHE167     -0.0042
     14  CD2       23.8860  139.6690   62.7060 C.ar  167  PHE167     -0.0042
     15  CE1       21.1370  139.2570   62.7370 C.ar  167  PHE167     -0.0003
     16  CE2       23.3460  138.6350   63.4830 C.ar  167  PHE167     -0.0003
     17  CZ        21.9690  138.4280   63.4980 C.ar  167  PHE167     -0.0000
     18  N         23.1620  143.4790   57.9130 N.am  168  THR168     -0.1939
     19  CA        23.7940  144.5030   57.0840 C.3   168  THR168      0.2013
     20  C         22.8280  145.6890   56.8790 C.2   168  THR168      0.2484
     21  O         21.6230  145.4770   56.7220 O.2   168  THR168     -0.2729
     22  CB        24.3070  143.9180   55.7330 C.3   168  THR168      0.1807
     23  OG1       24.4240  144.9630   54.7680 O.3   168  THR168     -0.2208
     24  CG2       23.3580  142.8680   55.1860 C.3   168  THR168      0.0379
     25  N         23.3490  146.9360   56.8920 N.am  169  PRO169     -0.2726
     26  CA        22.4390  148.0860   56.8760 C.3   169  PRO169      0.1402
     27  C         21.9000  148.4560   55.4970 C.2   169  PRO169      0.2269
     28  O         21.4000  149.5730   55.3280 O.2   169  PRO169     -0.2865
     29  CB        23.2990  149.2380   57.4390 C.3   169  PRO169      0.0296
     30  CG        24.7050  148.6940   57.5930 C.3   169  PRO169      0.0237
     31  CD        24.7620  147.3570   56.9310 C.3   169  PRO169      0.0939
     32  N         18.7460  152.6450   58.1080 N.3   174  LEU174     -0.1231
     33  CA        19.5150  153.7660   57.5680 C.3   174  LEU174      0.1693
     34  C         19.3400  153.9190   56.0610 C.2   174  LEU174      0.2592
     35  O         19.3190  155.0460   55.5450 O.2   174  LEU174     -0.2718
     36  CB        21.0050  153.6180   57.9010 C.3   174  LEU174      0.0284
     37  CG        21.4100  153.7760   59.3690 C.3   174  LEU174      0.0019
     38  CD1       22.8370  153.2820   59.5670 C.3   174  LEU174      0.0001
     39  CD2       21.2530  155.2240   59.8220 C.3   174  LEU174      0.0001
     40  N         19.2120  152.7790   55.3730 N.am  175  HIS175     -0.1976
     41  CA        19.1470  152.7300   53.9110 C.3   175  HIS175      0.1656
     42  C         18.0220  151.8470   53.3800 C.2   175  HIS175      0.2291
     43  O         17.4670  151.0130   54.1090 O.2   175  HIS175     -0.2864
     44  CB        20.4820  152.2420   53.3460 C.3   175  HIS175      0.0771
     45  CG        21.6540  153.0160   53.8520 C.ar  175  HIS175      0.0820
     46  ND1       21.7930  154.3710   53.6400 N.ar  175  HIS175     -0.2267
     47  CD2       22.7350  152.6320   54.5710 C.ar  175  HIS175      0.1154
     48  CE1       22.9110  154.7890   54.2060 C.ar  175  HIS175      0.1986
     49  NE2       23.5030  153.7530   54.7730 N.ar  175  HIS175     -0.2212
     50  N         34.7080  147.2860   60.9190 N.3   203  TYR203     -0.1241
     51  CA        35.8530  148.1660   61.2300 C.3   203  TYR203      0.1605
     52  C         36.8830  147.4780   62.1320 C.2   203  TYR203      0.2264
     53  O         37.3730  146.3990   61.7940 O.2   203  TYR203     -0.2867
     54  CB        35.3820  149.4910   61.8520 C.3   203  TYR203      0.0534
     55  CG        34.5360  150.3470   60.9430 C.ar  203  TYR203     -0.0201
     56  CD1       33.1650  150.1180   60.8180 C.ar  203  TYR203     -0.0009
     57  CD2       35.0970  151.3960   60.2200 C.ar  203  TYR203     -0.0009
     58  CE1       32.3750  150.8980   59.9820 C.ar  203  TYR203      0.0417
     59  CE2       34.3150  152.1870   59.3820 C.ar  203  TYR203      0.0417
     60  CZ        32.9550  151.9310   59.2720 C.ar  203  TYR203      0.1957
     61  OH        32.1670  152.6990   58.4490 O.3   203  TYR203     -0.2866
     62  N         32.5480  141.5540   64.0290 N.3   208  TRP208     -0.1241
     63  CA        31.5520  142.0890   63.0800 C.3   208  TRP208      0.1605
     64  C         32.0460  142.2090   61.6360 C.2   208  TRP208      0.2264
     65  O         33.2510  142.2980   61.3870 O.2   208  TRP208     -0.2867
     66  CB        31.0010  143.4480   63.5430 C.3   208  TRP208      0.0550
     67  CG        30.2790  143.4400   64.8580 C.ar  208  TRP208      0.0003
     68  CD1       29.8530  142.3460   65.5620 C.ar  208  TRP208      0.0946
     69  CD2       29.8660  144.5890   65.6130 C.ar  208  TRP208      0.0152
     70  NE1       29.2240  142.7420   66.7190 N.ar  208  TRP208     -0.2442
     71  CE2       29.2140  144.1130   66.7760 C.ar  208  TRP208      0.0810
     72  CE3       29.9930  145.9750   65.4280 C.ar  208  TRP208      0.0012
     73  CZ2       28.6860  144.9760   67.7490 C.ar  208  TRP208      0.0191
     74  CZ3       29.4690  146.8330   66.3980 C.ar  208  TRP208      0.0001
     75  CH2       28.8230  146.3260   67.5420 C.ar  208  TRP208      0.0015
     76  N         31.4500  150.7260   49.3030 N.3   270  ASP270     -0.1239
     77  CA        30.8170  151.0290   50.5690 C.3   270  ASP270      0.1674
     78  C         31.9450  151.1280   51.6140 C.2   270  ASP270      0.2266
     79  O         31.8310  150.6200   52.7320 O.2   270  ASP270     -0.2867
     80  CB        29.8220  149.9120   50.9030 C.3   270  ASP270      0.1410
     81  CG        29.0750  150.1430   52.2070 C.2   270  ASP270      0.3668
     82  OD1       28.8460  151.3110   52.5860 O.co2 270  ASP270     -0.2456
     83  OD2       28.6880  149.1510   52.8580 O.co2 270  ASP270     -0.2456
     84  N         34.1120  156.1150   52.6140 N.3   273  HIS273     -0.1241
     85  CA        33.2550  157.2500   52.2270 C.3   273  HIS273      0.1621
     86  C         33.9920  158.6030   52.2290 C.2   273  HIS273      0.2264
     87  O         33.3550  159.6550   52.0970 O.2   273  HIS273     -0.2867
     88  CB        31.9750  157.3580   53.0760 C.3   273  HIS273      0.0745
     89  CG        31.3370  156.0500   53.4180 C.ar  273  HIS273      0.0817
     90  ND1       31.0340  155.0940   52.4720 N.ar  273  HIS273     -0.2268
     91  CD2       30.8930  155.5630   54.6040 C.ar  273  HIS273      0.1154
     92  CE1       30.4580  154.0620   53.0670 C.ar  273  HIS273      0.1986
     93  NE2       30.3560  154.3230   54.3590 N.ar  273  HIS273     -0.2212
     94  N         28.0290  153.5950   46.9550 N.3   298  GLU298     -0.1231
     95  CA        27.1300  153.7790   48.0890 C.3   298  GLU298      0.1699
     96  C         27.5470  154.9420   48.9710 C.2   298  GLU298      0.2592
     97  O         28.7350  155.2570   49.0810 O.2   298  GLU298     -0.2718
     98  CB        27.1170  152.5340   48.9550 C.3   298  GLU298      0.0402
     99  CG        26.0180  151.5610   48.6510 C.3   298  GLU298      0.1161
    100  CD        25.9950  150.4090   49.6280 C.2   298  GLU298      0.3649
    101  OE1       26.2340  150.6320   50.8350 O.co2 298  GLU298     -0.2457
    102  OE2       25.7330  149.2760   49.1880 O.co2 298  GLU298     -0.2457
    103  N         26.5490  155.5530   49.6080 N.am  299  ASP299     -0.1974
    104  CA        26.7220  156.5580   50.6660 C.3   299  ASP299      0.1709
    105  C         27.3980  157.8330   50.1920 C.2   299  ASP299      0.2293
    106  O         28.3620  158.2990   50.8010 O.2   299  ASP299     -0.2864
    107  CB        27.4560  155.9730   51.8770 C.3   299  ASP299      0.1436
    108  CG        26.7920  154.7280   52.4170 C.2   299  ASP299      0.3671
    109  OD1       25.5470  154.6450   52.4570 O.co2 299  ASP299     -0.2456
    110  OD2       27.5230  153.8080   52.8180 O.co2 299  ASP299     -0.2456
    111  N         26.2220  160.5100   50.6380 N.3   301  TRP301     -0.1241
    112  CA        25.8490  161.5150   51.6310 C.3   301  TRP301      0.1605
    113  C         27.0610  162.2850   52.1660 C.2   301  TRP301      0.2264
    114  O         26.9480  163.4640   52.5000 O.2   301  TRP301     -0.2867
    115  CB        25.0400  160.9080   52.7800 C.3   301  TRP301      0.0550
    116  CG        25.7920  159.9700   53.7000 C.ar  301  TRP301      0.0003
    117  CD1       25.8380  158.6070   53.6190 C.ar  301  TRP301      0.0946
    118  CD2       26.5740  160.3310   54.8550 C.ar  301  TRP301      0.0152
    119  NE1       26.6080  158.1000   54.6380 N.ar  301  TRP301     -0.2442
    120  CE2       27.0690  159.1310   55.4140 C.ar  301  TRP301      0.0810
    121  CE3       26.9040  161.5500   55.4690 C.ar  301  TRP301      0.0012
    122  CZ2       27.8790  159.1110   56.5600 C.ar  301  TRP301      0.0191
    123  CZ3       27.7160  161.5330   56.6110 C.ar  301  TRP301      0.0001
    124  CH2       28.1940  160.3180   57.1400 C.ar  301  TRP301      0.0015
@<TRIPOS>BOND
     1    94    95    1
     2    95    98    1
     3    95    96    1
     4    99    98    1
     5    99   100    1
     6    96    97    2
     7    96   103   am
     8   102   100   ar
     9    76    77    1
    10   103   104    1
    11   100   101   ar
    12   105   104    1
    13   105   106    2
    14    77    80    1
    15    77    78    1
    16   111   112    1
    17   104   107    1
    18    80    81    1
    19    78    79    2
    20   112   113    1
    21   112   115    1
    22   107   108    1
    23    87    86    2
    24   113   114    2
    25    81    82   ar
    26    81    83   ar
    27    85    86    1
    28    85    84    1
    29    85    88    1
    30   108   109   ar
    31   108   110   ar
    32    90    92   ar
    33    90    89   ar
    34   115   116    1
    35    92    93   ar
    36    88    89    1
    37    44    45    1
    38    44    41    1
    39    42    41    1
    40    42    43    2
    41    89    91   ar
    42   117   116   ar
    43   117   119   ar
    44    46    45   ar
    45    46    48   ar
    46   116   118   ar
    47    45    47   ar
    48    41    40    1
    49    48    49   ar
    50     1     2    1
    51    93    91   ar
    52     6     5    1
    53    47    49   ar
    54     5     2    1
    55   119   120   ar
    56    23    22    1
    57   118   120   ar
    58   118   121   ar
    59     2     3    1
    60    24    22    1
    61    28    27    2
    62    40    34   am
    63   120   122   ar
    64   121   123   ar
    65    27    26    1
    66    35    34    2
    67    22    19    1
    68    34    33    1
    69   122   124   ar
    70     3     4    2
    71   123   124   ar
    72    21    20    2
    73    26    25    1
    74    26    29    1
    75    20    25   am
    76    20    19    1
    77    25    31    1
    78    31    30    1
    79    19    18    1
    80    29    30    1
    81    33    36    1
    82    33    32    1
    83    36    37    1
    84    18     9   am
    85    61    60    1
    86     9    10    2
    87     9     8    1
    88     7     8    1
    89    60    59   ar
    90    60    58   ar
    91    37    38    1
    92    37    39    1
    93    59    57   ar
    94     8    11    1
    95    58    56   ar
    96    57    55   ar
    97    56    55   ar
    98    50    51    1
    99    55    54    1
   100    11    12    1
   101    51    54    1
   102    51    52    1
   103    65    64    2
   104    64    63    1
   105    53    52    2
   106    12    13   ar
   107    12    14   ar
   108    13    15   ar
   109    14    16   ar
   110    15    17   ar
   111    63    66    1
   112    63    62    1
   113    16    17   ar
   114    66    67    1
   115    67    68   ar
   116    67    69   ar
   117    72    69   ar
   118    72    74   ar
   119    68    70   ar
   120    69    71   ar
   121    74    75   ar
   122    70    71   ar
   123    71    73   ar
   124    75    73   ar
