@<TRIPOS>MOLECULE
tmp/3ssoE00.pdb
 191 189 0 0 0
SMALL
GASTEIGER

@<TRIPOS>ATOM
      1  N         31.3160 -122.5330  -27.6930 N.3   167  PHE167     -0.1227
      2  CA        30.9740 -123.3410  -28.8800 C.3   167  PHE167      0.1736
      3  C         31.3540 -124.8110  -28.7380 C.2   167  PHE167      0.2596
      4  O         32.0290 -125.3870  -29.5970 O.2   167  PHE167     -0.2718
      5  CB        31.5900 -122.7590  -30.1640 C.3   167  PHE167      0.0547
      6  CG        31.4550 -121.2720  -30.2880 C.ar  167  PHE167     -0.0202
      7  CD1       30.2170 -120.6870  -30.5520 C.ar  167  PHE167     -0.0042
      8  CD2       32.5690 -120.4490  -30.1550 C.ar  167  PHE167     -0.0042
      9  CE1       30.0900 -119.3030  -30.6700 C.ar  167  PHE167     -0.0003
     10  CE2       32.4530 -119.0650  -30.2750 C.ar  167  PHE167     -0.0003
     11  CZ        31.2120 -118.4910  -30.5320 C.ar  167  PHE167     -0.0000
     12  N         30.9410 -125.4170  -27.6340 N.am  168  THR168     -0.1939
     13  CA        31.0800 -126.8540  -27.4850 C.3   168  THR168      0.2013
     14  C         29.6740 -127.4600  -27.3560 C.2   168  THR168      0.2484
     15  O         28.7780 -126.8290  -26.7850 O.2   168  THR168     -0.2729
     16  CB        32.0600 -127.2390  -26.3340 C.3   168  THR168      0.1807
     17  OG1       31.8280 -128.5900  -25.9200 O.3   168  THR168     -0.2208
     18  CG2       31.9260 -126.3030  -25.1350 C.3   168  THR168      0.0379
     19  N         29.4650 -128.6610  -27.9230 N.am  169  PRO169     -0.2715
     20  CA        28.1050 -129.1940  -27.9840 C.3   169  PRO169      0.1536
     21  C         27.6780 -129.9860  -26.7370 C.2   169  PRO169      0.2598
     22  O         26.8250 -130.8730  -26.8360 O.2   169  PRO169     -0.2715
     23  CB        28.1510 -130.0960  -29.2220 C.3   169  PRO169      0.0310
     24  CG        29.5690 -130.6000  -29.2550 C.3   169  PRO169      0.0237
     25  CD        30.4260 -129.5040  -28.6670 C.3   169  PRO169      0.0939
     26  N         28.2440 -129.6490  -25.5790 N.am  170  LYS170     -0.1978
     27  CA        27.9220 -130.3370  -24.3230 C.3   170  LYS170      0.1596
     28  C         26.4790 -130.1250  -23.8750 C.2   170  LYS170      0.2287
     29  O         25.9490 -130.9330  -23.1120 O.2   170  LYS170     -0.2864
     30  CB        28.8460 -129.8810  -23.1890 C.3   170  LYS170      0.0298
     31  CG        30.3430 -130.0390  -23.4290 C.3   170  LYS170      0.0038
     32  CD        30.7980 -131.4770  -23.4820 C.3   170  LYS170      0.0206
     33  CE        32.2980 -131.5570  -23.2090 C.3   170  LYS170      0.1093
     34  NZ        32.9250 -132.7520  -23.8270 N.3   170  LYS170     -0.1314
     35  N         41.1440 -134.1990  -20.7250 N.3   197  GLU197     -0.1231
     36  CA        40.0850 -134.5760  -21.6650 C.3   197  GLU197      0.1699
     37  C         40.6890 -135.1250  -22.9550 C.2   197  GLU197      0.2592
     38  O         41.5300 -134.4780  -23.5870 O.2   197  GLU197     -0.2718
     39  CB        39.1090 -133.4240  -21.9680 C.3   197  GLU197      0.0402
     40  CG        37.8940 -133.8990  -22.7990 C.3   197  GLU197      0.1161
     41  CD        36.8280 -132.8390  -23.0390 C.2   197  GLU197      0.3649
     42  OE1       37.0150 -131.6670  -22.6340 O.co2 197  GLU197     -0.2457
     43  OE2       35.7910 -133.1910  -23.6480 O.co2 197  GLU197     -0.2457
     44  N         40.2580 -136.3300  -23.3210 N.am  198  ILE198     -0.1966
     45  CA        40.6120 -136.9330  -24.6010 C.3   198  ILE198      0.1727
     46  C         39.5990 -136.4310  -25.6190 C.2   198  ILE198      0.2617
     47  O         38.3990 -136.6510  -25.4690 O.2   198  ILE198     -0.2715
     48  CB        40.5510 -138.4740  -24.5400 C.3   198  ILE198      0.0290
     49  CG1       41.4830 -139.0140  -23.4490 C.3   198  ILE198      0.0022
     50  CG2       40.8910 -139.0930  -25.9220 C.3   198  ILE198      0.0023
     51  CD1       41.2950 -140.5080  -23.1540 C.3   198  ILE198      0.0001
     52  N         40.0890 -135.7370  -26.6380 N.am  199  GLY199     -0.1940
     53  CA        39.2320 -135.1270  -27.6490 C.3   199  GLY199      0.2014
     54  C         39.1510 -133.6230  -27.4540 C.2   199  GLY199      0.2639
     55  O         38.3030 -133.1270  -26.7060 O.2   199  GLY199     -0.2714
     56  N         40.0390 -132.8970  -28.1270 N.am  200  VAL200     -0.1963
     57  CA        40.0730 -131.4320  -28.0320 C.3   200  VAL200      0.1727
     58  C         38.9560 -130.8010  -28.8760 C.2   200  VAL200      0.2617
     59  O         38.3600 -129.7880  -28.4850 O.2   200  VAL200     -0.2715
     60  CB        41.4670 -130.8680  -28.4180 C.3   200  VAL200      0.0290
     61  CG1       41.4680 -129.3360  -28.4440 C.3   200  VAL200      0.0023
     62  CG2       42.5340 -131.3830  -27.4580 C.3   200  VAL200      0.0023
     63  N         38.6590 -131.4200  -30.0160 N.am  201  GLY201     -0.1940
     64  CA        37.6090 -130.9300  -30.9030 C.3   201  GLY201      0.2014
     65  C         38.1610 -130.3710  -32.1970 C.2   201  GLY201      0.2639
     66  O         39.3560 -130.0770  -32.3040 O.2   201  GLY201     -0.2714
     67  N         37.2840 -130.2290  -33.1850 N.am  202  GLY202     -0.1939
     68  CA        37.6560 -129.6360  -34.4640 C.3   202  GLY202      0.2014
     69  C         38.1840 -130.6180  -35.4890 C.2   202  GLY202      0.2638
     70  O         38.2870 -130.2860  -36.6720 O.2   202  GLY202     -0.2714
     71  N         38.5230 -131.8240  -35.0330 N.am  203  TYR203     -0.1973
     72  CA        39.0470 -132.8840  -35.8970 C.3   203  TYR203      0.1639
     73  C         40.1860 -132.3560  -36.7820 C.2   203  TYR203      0.2290
     74  O         41.1570 -131.7990  -36.2640 O.2   203  TYR203     -0.2864
     75  CB        37.9130 -133.5390  -36.7040 C.3   203  TYR203      0.0560
     76  CG        36.9160 -134.3060  -35.8480 C.ar  203  TYR203     -0.0198
     77  CD1       35.9070 -133.6410  -35.1380 C.ar  203  TYR203     -0.0009
     78  CD2       36.9780 -135.6950  -35.7540 C.ar  203  TYR203     -0.0009
     79  CE1       34.9860 -134.3500  -34.3430 C.ar  203  TYR203      0.0417
     80  CE2       36.0650 -136.4140  -34.9690 C.ar  203  TYR203      0.0417
     81  CZ        35.0740 -135.7380  -34.2680 C.ar  203  TYR203      0.1957
     82  OH        34.1760 -136.4510  -33.4970 O.3   203  TYR203     -0.2866
     83  N         38.1500 -126.1180  -32.5400 N.3   209  GLY209     -0.1210
     84  CA        38.3290 -126.9480  -31.3460 C.3   209  GLY209      0.1956
     85  C         38.7590 -126.2060  -30.0910 C.2   209  GLY209      0.2612
     86  O         39.1410 -125.0320  -30.1450 O.2   209  GLY209     -0.2717
     87  N         38.6920 -126.8990  -28.9560 N.am  210  GLY210     -0.1942
     88  CA        39.1760 -126.3570  -27.6830 C.3   210  GLY210      0.2014
     89  C         38.1250 -125.7910  -26.7440 C.2   210  GLY210      0.2639
     90  O         38.4450 -125.4240  -25.6110 O.2   210  GLY210     -0.2714
     91  N         36.8750 -125.7330  -27.1990 N.am  211  GLY211     -0.1939
     92  CA        35.7900 -125.1390  -26.4130 C.3   211  GLY211      0.2014
     93  C         35.6020 -125.7650  -25.0410 C.2   211  GLY211      0.2639
     94  O         35.4200 -125.0470  -24.0490 O.2   211  GLY211     -0.2714
     95  N         35.6410 -127.0980  -24.9690 N.am  212  SER212     -0.1949
     96  CA        35.4430 -127.7710  -23.6830 C.3   212  SER212      0.1924
     97  C         36.6410 -127.5990  -22.7430 C.2   212  SER212      0.2314
     98  O         36.4700 -127.5170  -21.5290 O.2   212  SER212     -0.2863
     99  CB        35.0370 -129.2500  -23.8540 C.3   212  SER212      0.2116
    100  OG        36.0920 -130.0560  -24.3430 O.3   212  SER212     -0.2180
    101  N         44.0650 -134.0860  -24.9370 N.3   228  LEU228     -0.1231
    102  CA        44.7060 -134.9800  -25.8990 C.3   228  LEU228      0.1693
    103  C         43.9050 -135.0390  -27.1970 C.2   228  LEU228      0.2592
    104  O         42.6820 -135.1870  -27.1740 O.2   228  LEU228     -0.2718
    105  CB        44.8670 -136.3910  -25.3090 C.3   228  LEU228      0.0284
    106  CG        45.3850 -137.4900  -26.2450 C.3   228  LEU228      0.0019
    107  CD1       46.8270 -137.2310  -26.6470 C.3   228  LEU228      0.0001
    108  CD2       45.2450 -138.8670  -25.6020 C.3   228  LEU228      0.0001
    109  N         44.6020 -134.9180  -28.3230 N.am  229  ASP229     -0.1960
    110  CA        43.9880 -135.0960  -29.6330 C.3   229  ASP229      0.1840
    111  C         45.0000 -135.7050  -30.5830 C.2   229  ASP229      0.2622
    112  O         46.1960 -135.4060  -30.5030 O.2   229  ASP229     -0.2715
    113  CB        43.5020 -133.7600  -30.1920 C.3   229  ASP229      0.1450
    114  CG        42.3460 -133.9200  -31.1620 C.2   229  ASP229      0.3671
    115  OD1       42.5540 -134.4310  -32.2930 O.co2 229  ASP229     -0.2456
    116  OD2       41.2220 -133.5220  -30.7900 O.co2 229  ASP229     -0.2456
    117  N         44.5140 -136.5560  -31.4840 N.am  230  ILE230     -0.1963
    118  CA        45.3660 -137.1580  -32.5160 C.3   230  ILE230      0.1727
    119  C         45.8960 -136.1050  -33.5070 C.2   230  ILE230      0.2616
    120  O         46.9680 -136.2790  -34.1000 O.2   230  ILE230     -0.2715
    121  CB        44.6500 -138.3420  -33.2320 C.3   230  ILE230      0.0290
    122  CG1       45.6590 -139.2070  -34.0000 C.3   230  ILE230      0.0022
    123  CG2       43.4930 -137.8550  -34.1090 C.3   230  ILE230      0.0023
    124  CD1       45.1430 -140.5760  -34.3490 C.3   230  ILE230      0.0001
    125  N         45.1520 -135.0090  -33.6560 N.am  231  MET231     -0.1977
    126  CA        45.5710 -133.8650  -34.4710 C.3   231  MET231      0.1605
    127  C         46.2650 -132.7900  -33.6310 C.2   231  MET231      0.2287
    128  O         46.0210 -132.6790  -32.4230 O.2   231  MET231     -0.2864
    129  CB        44.3590 -133.2440  -35.1740 C.3   231  MET231      0.0413
    130  CG        43.5610 -134.2040  -36.0490 C.3   231  MET231      0.0598
    131  SD        44.5360 -134.9140  -37.3850 S.3   231  MET231     -0.1393
    132  CE        44.9340 -133.4590  -38.3500 C.3   231  MET231      0.0692
    133  N         48.5800 -136.9940  -29.7460 N.3   246  GLY246     -0.1210
    134  CA        48.7880 -138.4360  -29.6660 C.3   246  GLY246      0.1956
    135  C         47.5090 -139.2350  -29.8040 C.2   246  GLY246      0.2612
    136  O         46.4160 -138.6750  -29.8600 O.2   246  GLY246     -0.2717
    137  N         47.6610 -140.5530  -29.8350 N.am  247  ASP247     -0.1959
    138  CA        46.5660 -141.4750  -30.1000 C.3   247  ASP247      0.1840
    139  C         46.0800 -142.0910  -28.7950 C.2   247  ASP247      0.2621
    140  O         46.8620 -142.7070  -28.0660 O.2   247  ASP247     -0.2715
    141  CB        47.0700 -142.5710  -31.0380 C.3   247  ASP247      0.1450
    142  CG        45.9710 -143.4870  -31.5370 C.2   247  ASP247      0.3671
    143  OD1       44.8230 -143.4250  -31.0510 O.co2 247  ASP247     -0.2456
    144  OD2       46.2760 -144.3010  -32.4290 O.co2 247  ASP247     -0.2456
    145  N         44.7870 -141.9420  -28.5110 N.am  248  GLN248     -0.1977
    146  CA        44.2010 -142.4950  -27.2870 C.3   248  GLN248      0.1601
    147  C         44.1940 -144.0270  -27.2870 C.2   248  GLN248      0.2287
    148  O         43.9400 -144.6510  -26.2500 O.2   248  GLN248     -0.2864
    149  CB        42.7800 -141.9700  -27.0770 C.3   248  GLN248      0.0394
    150  CG        41.7490 -142.5770  -28.0190 C.3   248  GLN248      0.0908
    151  CD        40.3320 -142.2640  -27.6000 C.2   248  GLN248      0.2608
    152  OE1       39.6140 -141.5530  -28.3000 O.2   248  GLN248     -0.2717
    153  NE2       39.9210 -142.7880  -26.4540 N.am  248  GLN248     -0.0878
    154  N         36.1880 -138.0500  -24.5570 N.3   270  ASP270     -0.1225
    155  CA        35.3130 -137.5400  -25.5950 C.3   270  ASP270      0.1805
    156  C         36.0700 -137.5550  -26.9250 C.2   270  ASP270      0.2598
    157  O         36.0860 -136.5670  -27.6590 O.2   270  ASP270     -0.2718
    158  CB        34.8670 -136.1210  -25.2490 C.3   270  ASP270      0.1424
    159  CG        33.7580 -135.6320  -26.1390 C.2   270  ASP270      0.3668
    160  OD1       32.9640 -136.4770  -26.6100 O.co2 270  ASP270     -0.2456
    161  OD2       33.6650 -134.4050  -26.3650 O.co2 270  ASP270     -0.2456
    162  N         36.7090 -138.6830  -27.2210 N.am  271  GLY271     -0.1942
    163  CA        37.6390 -138.7660  -28.3430 C.3   271  GLY271      0.2014
    164  C         37.0140 -139.3320  -29.5990 C.2   271  GLY271      0.2640
    165  O         35.9980 -138.8260  -30.0820 O.2   271  GLY271     -0.2714
    166  N         37.6240 -140.3960  -30.1180 N.am  272  SER272     -0.1935
    167  CA        37.1890 -141.0280  -31.3610 C.3   272  SER272      0.2055
    168  C         35.7840 -141.6210  -31.2520 C.2   272  SER272      0.2643
    169  O         35.0680 -141.6950  -32.2500 O.2   272  SER272     -0.2714
    170  CB        38.1680 -142.1410  -31.7490 C.3   272  SER272      0.2130
    171  OG        38.0690 -143.2220  -30.8340 O.3   272  SER272     -0.2179
    172  N         35.4040 -142.0350  -30.0380 N.am  273  HIS273     -0.1973
    173  CA        34.1790 -142.8270  -29.7860 C.3   273  HIS273      0.1656
    174  C         34.2100 -144.2270  -30.4260 C.2   273  HIS273      0.2291
    175  O         33.1770 -144.8980  -30.5360 O.2   273  HIS273     -0.2864
    176  CB        32.9030 -142.0800  -30.2110 C.3   273  HIS273      0.0771
    177  CG        32.8970 -140.6250  -29.8590 C.ar  273  HIS273      0.0820
    178  ND1       33.1720 -140.1640  -28.5890 N.ar  273  HIS273     -0.2267
    179  CD2       32.6360 -139.5300  -30.6100 C.ar  273  HIS273      0.1154
    180  CE1       33.0880 -138.8450  -28.5750 C.ar  273  HIS273      0.1986
    181  NE2       32.7590 -138.4360  -29.7870 N.ar  273  HIS273     -0.2212
    182  N         38.7990 -148.1360  -28.5910 N.3   277  HIS277     -0.1241
    183  CA        39.5450 -146.9840  -28.0770 C.3   277  HIS277      0.1621
    184  C         39.1090 -146.5960  -26.6660 C.2   277  HIS277      0.2264
    185  O         39.9530 -146.3540  -25.8030 O.2   277  HIS277     -0.2867
    186  CB        39.3740 -145.7780  -29.0090 C.3   277  HIS277      0.0745
    187  CG        40.0500 -145.9330  -30.3380 C.ar  277  HIS277      0.0817
    188  ND1       40.3390 -144.8590  -31.1510 N.ar  277  HIS277     -0.2268
    189  CD2       40.5190 -147.0290  -30.9810 C.ar  277  HIS277      0.1154
    190  CE1       40.9480 -145.2880  -32.2440 C.ar  277  HIS277      0.1986
    191  NE2       41.0710 -146.6000  -32.1640 N.ar  277  HIS277     -0.2212
@<TRIPOS>BOND
     1   132   131    1
     2   131   130    1
     3    73    74    2
     4    73    72    1
     5    75    72    1
     6    75    76    1
     7    70    69    2
     8   130   129    1
     9    72    71    1
    10    76    78   ar
    11    76    77   ar
    12    78    80   ar
    13    69    71   am
    14    69    68    1
    15   129   126    1
    16    77    79   ar
    17    80    81   ar
    18   126   125    1
    19   126   127    1
    20    68    67    1
    21   124   122    1
    22    79    81   ar
    23    81    82    1
    24   123   121    1
    25   120   119    2
    26   122   121    1
    27   125   119   am
    28   127   128    2
    29   119   118    1
    30   121   118    1
    31    67    65   am
    32    83    84    1
    33   118   117    1
    34   144   142   ar
    35    66    65    2
    36   115   114   ar
    37   169   168    2
    38   190   191   ar
    39   190   188   ar
    40    65    64    1
    41   191   189   ar
    42   170   167    1
    43   170   171    1
    44   142   143   ar
    45   142   141    1
    46   117   111   am
    47   167   168    1
    48   167   166    1
    49    84    85    1
    50   168   172   am
    51   114   116   ar
    52   114   113    1
    53   188   187   ar
    54   141   138    1
    55   189   187   ar
    56    64    63    1
    57     9     7   ar
    58     9    11   ar
    59   179   177   ar
    60   179   181   ar
    61   111   112    2
    62   111   110    1
    63     7     6   ar
    64   175   174    2
    65    11    10   ar
    66   174   173    1
    67   187   186    1
    68     6     5    1
    69     6     8   ar
    70    10     8   ar
    71   176   177    1
    72   176   173    1
    73   113   110    1
    74     5     2    1
    75    86    85    2
    76   166   164   am
    77   138   137    1
    78   138   139    1
    79    85    87   am
    80   165   164    2
    81   172   173    1
    82    63    58   am
    83   136   135    2
    84   177   178   ar
    85   137   135   am
    86   135   134    1
    87   181   180   ar
    88   133   134    1
    89   110   109    1
    90   164   163    1
    91     4     3    2
    92    24    23    1
    93    24    25    1
    94    23    20    1
    95   186   183    1
    96    87    88    1
    97     2     3    1
    98     2     1    1
    99    58    59    2
   100    58    57    1
   101   139   145   am
   102   139   140    2
   103     3    12   am
   104    25    19    1
   105   182   183    1
   106   178   180   ar
   107   145   146    1
   108    61    60    1
   109    60    57    1
   110    60    62    1
   111   163   162    1
   112   109   103   am
   113   152   151    2
   114    56    57    1
   115    56    54   am
   116   183   184    1
   117   150   151    1
   118   150   149    1
   119    20    19    1
   120    20    21    1
   121    19    14   am
   122    88    89    1
   123   157   156    2
   124    53    54    1
   125    53    52    1
   126    12    13    1
   127   151   153   am
   128    13    14    1
   129    13    16    1
   130    54    55    2
   131    14    15    2
   132   146   147    1
   133   146   149    1
   134   147   148    2
   135   162   156   am
   136    91    89   am
   137    91    92    1
   138   103   104    2
   139   103   102    1
   140   156   155    1
   141    22    21    2
   142    89    90    2
   143    21    26   am
   144   184   185    2
   145   107   106    1
   146    52    46   am
   147   160   159   ar
   148    92    93    1
   149   161   159   ar
   150    16    17    1
   151    16    18    1
   152   106   108    1
   153   106   105    1
   154   159   158    1
   155    50    48    1
   156   102   105    1
   157   102   101    1
   158    46    47    2
   159    46    45    1
   160   155   158    1
   161   155   154    1
   162    26    27    1
   163    93    95   am
   164    93    94    2
   165    95    96    1
   166    45    48    1
   167    45    44    1
   168    48    49    1
   169   100    99    1
   170    27    28    1
   171    27    30    1
   172    28    29    2
   173    99    96    1
   174    34    33    1
   175    96    97    1
   176    43    41   ar
   177    38    37    2
   178    32    31    1
   179    32    33    1
   180    49    51    1
   181    31    30    1
   182    44    37   am
   183    41    40    1
   184    41    42   ar
   185    37    36    1
   186    40    39    1
   187    97    98    2
   188    39    36    1
   189    36    35    1
