@<TRIPOS>MOLECULE
tmp/3stuB00.pdb
 189 179 0 0 0
SMALL
GASTEIGER

@<TRIPOS>ATOM
      1  N        -35.3550    0.3330   -1.4110 N.3    12  THR12      -0.1203
      2  CA       -35.2180   -0.1410   -0.0390 C.3    12  THR12       0.1994
      3  C        -33.8960   -0.8870    0.1560 C.2    12  THR12       0.2618
      4  O        -33.0500   -0.9280   -0.7480 O.2    12  THR12      -0.2717
      5  CB       -36.4320   -1.0360    0.3800 C.3    12  THR12       0.1784
      6  OG1      -36.4040   -1.2730    1.7990 O.3    12  THR12      -0.2211
      7  CG2      -36.4380   -2.3740   -0.3640 C.3    12  THR12       0.0376
      8  N        -33.7370   -1.4680    1.3430 N.am   13  ALA13      -0.1965
      9  CA       -32.5820   -2.2810    1.7000 C.3    13  ALA13       0.1728
     10  C        -32.3200   -3.3940    0.6950 C.2    13  ALA13       0.2616
     11  O        -33.2590   -4.0380    0.1960 O.2    13  ALA13      -0.2715
     12  CB       -32.7670   -2.8710    3.1020 C.3    13  ALA13       0.0334
     13  N        -31.0320   -3.6010    0.4120 N.am   14  PHE14      -0.1960
     14  CA       -30.5220   -4.6760   -0.4580 C.3    14  PHE14       0.1771
     15  C        -30.7140   -4.3960   -1.9450 C.2    14  PHE14       0.2619
     16  O        -30.0900   -5.0460   -2.7850 O.2    14  PHE14      -0.2715
     17  CB       -31.1330   -6.0560   -0.1130 C.3    14  PHE14       0.0574
     18  CG       -31.2830   -6.3140    1.3690 C.ar   14  PHE14      -0.0200
     19  CD1      -30.1700   -6.3590    2.2010 C.ar   14  PHE14      -0.0042
     20  CD2      -32.5460   -6.5210    1.9250 C.ar   14  PHE14      -0.0042
     21  CE1      -30.3150   -6.5970    3.5700 C.ar   14  PHE14      -0.0003
     22  CE2      -32.7030   -6.7540    3.2850 C.ar   14  PHE14      -0.0003
     23  CZ       -31.5820   -6.7950    4.1110 C.ar   14  PHE14      -0.0000
     24  N        -31.5780   -3.4370   -2.2680 N.am   15  HIS15      -0.1973
     25  CA       -31.9860   -3.2040   -3.6470 C.3    15  HIS15       0.1656
     26  C        -31.1980   -2.0670   -4.3030 C.2    15  HIS15       0.2291
     27  O        -30.1960   -1.6160   -3.7650 O.2    15  HIS15      -0.2864
     28  CB       -33.5020   -2.9750   -3.7060 C.3    15  HIS15       0.0771
     29  CG       -34.2950   -4.2350   -3.5440 C.ar   15  HIS15       0.0820
     30  ND1      -34.2970   -4.9710   -2.3760 N.ar   15  HIS15      -0.2267
     31  CD2      -35.0860   -4.9080   -4.4130 C.ar   15  HIS15       0.1154
     32  CE1      -35.0620   -6.0360   -2.5290 C.ar   15  HIS15       0.1986
     33  NE2      -35.5520   -6.0230   -3.7570 N.ar   15  HIS15      -0.2212
     34  N        -40.1200    1.3720    1.4750 N.3    81  ALA81      -0.1231
     35  CA       -39.6630    0.7880    2.7660 C.3    81  ALA81       0.1694
     36  C        -38.4930    1.5170    3.4850 C.2    81  ALA81       0.2591
     37  O        -38.6900    2.6270    3.9810 O.2    81  ALA81      -0.2718
     38  CB       -39.3930   -0.7170    2.6210 C.3    81  ALA81       0.0304
     39  N        -37.2910    0.9250    3.5370 N.am   82  LEU82      -0.1980
     40  CA       -36.1240    1.6390    4.1100 C.3    82  LEU82       0.1596
     41  C        -35.8450    2.9680    3.3940 C.2    82  LEU82       0.2287
     42  O        -35.3340    3.9110    4.0010 O.2    82  LEU82      -0.2864
     43  CB       -34.8560    0.7660    4.1410 C.3    82  LEU82       0.0297
     44  CG       -33.6380    1.3470    4.8880 C.3    82  LEU82       0.0022
     45  CD1      -33.8540    1.3590    6.4050 C.3    82  LEU82       0.0001
     46  CD2      -32.3450    0.6060    4.5510 C.3    82  LEU82       0.0001
     47  N        -40.9010    3.2310    5.6690 N.3   107  LEU107     -0.1245
     48  CA       -40.6520    3.6280    7.0470 C.3   107  LEU107      0.1561
     49  C        -40.9290    5.1240    7.1220 C.2   107  LEU107      0.2260
     50  O        -40.2970    5.9260    6.4280 O.2   107  LEU107     -0.2867
     51  CB       -39.2210    3.3060    7.4830 C.3   107  LEU107      0.0270
     52  CG       -38.7190    1.8610    7.4590 C.3   107  LEU107      0.0019
     53  CD1      -37.4170    1.7700    8.2460 C.3   107  LEU107      0.0001
     54  CD2      -39.7480    0.8520    7.9890 C.3   107  LEU107      0.0001
     55  N        -36.7660    2.0610   13.1350 N.3   119  CYS119     -0.1221
     56  CA       -35.6780    1.1780   12.7090 C.3   119  CYS119      0.1808
     57  C        -35.5850   -0.1210   13.4990 C.2   119  CYS119      0.2601
     58  O        -35.4070   -1.1930   12.9170 O.2   119  CYS119     -0.2717
     59  CB       -34.3460    1.9110   12.7780 C.3   119  CYS119      0.0970
     60  SG       -34.0580    2.9320   11.3500 S.3   119  CYS119     -0.0800
     61  N        -35.6970   -0.0100   14.8220 N.am  120  THR120     -0.1953
     62  CA       -35.6490   -1.1620   15.7230 C.3   120  THR120      0.1897
     63  C        -36.7740   -2.1490   15.4100 C.2   120  THR120      0.2313
     64  O        -36.5540   -3.3610   15.3880 O.2   120  THR120     -0.2863
     65  CB       -35.7100   -0.7110   17.2020 C.3   120  THR120      0.1794
     66  OG1      -34.6320    0.1970   17.4610 O.3   120  THR120     -0.2208
     67  CG2      -35.6010   -1.9000   18.1550 C.3   120  THR120      0.0378
     68  N        -38.3520   -2.3470   12.4470 N.3   122  ALA122     -0.1231
     69  CA       -38.0510   -2.8660   11.1060 C.3   122  ALA122      0.1694
     70  C        -36.9880   -3.9670   11.1560 C.2   122  ALA122      0.2592
     71  O        -37.0900   -4.9740   10.4490 O.2   122  ALA122     -0.2718
     72  CB       -37.6100   -1.7370   10.1780 C.3   122  ALA122      0.0304
     73  N        -35.9830   -3.7700   12.0080 N.am  123  GLY123     -0.1957
     74  CA       -34.9160   -4.7460   12.2060 C.3   123  GLY123      0.1869
     75  C        -35.4070   -6.1280   12.6010 C.2   123  GLY123      0.2309
     76  O        -34.8910   -7.1330   12.1120 O.2   123  GLY123     -0.2863
     77  N        -36.6300   -8.4110    9.8150 N.3   126  VAL126     -0.1231
     78  CA       -35.6360   -8.8040    8.8090 C.3   126  VAL126      0.1692
     79  C        -34.4930   -9.6410    9.3940 C.2   126  VAL126      0.2591
     80  O        -34.1460  -10.6840    8.8390 O.2   126  VAL126     -0.2718
     81  CB       -35.0750   -7.5830    8.0300 C.3   126  VAL126      0.0266
     82  CG1      -34.2390   -8.0440    6.8490 C.3   126  VAL126      0.0020
     83  CG2      -36.2080   -6.7010    7.5360 C.3   126  VAL126      0.0020
     84  N        -33.9130   -9.1790   10.5030 N.am  127  LEU127     -0.1980
     85  CA       -32.8780   -9.9370   11.2090 C.3   127  LEU127      0.1596
     86  C        -33.4310  -11.2660   11.7260 C.2   127  LEU127      0.2287
     87  O        -34.5080  -11.3150   12.3270 O.2   127  LEU127     -0.2864
     88  CB       -32.2850   -9.1190   12.3630 C.3   127  LEU127      0.0297
     89  CG       -31.3340   -7.9640   12.0250 C.3   127  LEU127      0.0022
     90  CD1      -31.2580   -6.9510   13.1630 C.3   127  LEU127      0.0001
     91  CD2      -29.9530   -8.4850   11.6980 C.3   127  LEU127      0.0001
     92  N        -25.8240   -7.0530    6.9170 N.3   147  LEU147     -0.1245
     93  CA       -26.9350   -7.9740    6.7880 C.3   147  LEU147      0.1561
     94  C        -27.0480   -8.3860    5.3240 C.2   147  LEU147      0.2260
     95  O        -26.9850   -7.5420    4.4280 O.2   147  LEU147     -0.2867
     96  CB       -28.2290   -7.3090    7.2850 C.3   147  LEU147      0.0270
     97  CG       -29.5780   -8.0360    7.1880 C.3   147  LEU147      0.0019
     98  CD1      -29.6220   -9.3560    7.9800 C.3   147  LEU147      0.0001
     99  CD2      -30.6840   -7.1080    7.6490 C.3   147  LEU147      0.0001
    100  N        -35.7730  -16.0180    2.0810 N.3   153  PHE153     -0.1227
    101  CA       -36.4130  -14.8210    2.6210 C.3   153  PHE153      0.1736
    102  C        -37.0060  -13.9320    1.5130 C.2   153  PHE153      0.2595
    103  O        -38.1130  -13.4030    1.6540 O.2   153  PHE153     -0.2718
    104  CB       -35.4260  -14.0130    3.4730 C.3   153  PHE153      0.0547
    105  CG       -35.8840  -12.6110    3.7580 C.ar  153  PHE153     -0.0202
    106  CD1      -35.4240  -11.5460    2.9900 C.ar  153  PHE153     -0.0042
    107  CD2      -36.7940  -12.3560    4.7780 C.ar  153  PHE153     -0.0042
    108  CE1      -35.8530  -10.2490    3.2350 C.ar  153  PHE153     -0.0003
    109  CE2      -37.2260  -11.0590    5.0370 C.ar  153  PHE153     -0.0003
    110  CZ       -36.7560  -10.0040    4.2610 C.ar  153  PHE153     -0.0000
    111  N        -36.2510  -13.7550    0.4280 N.am  154  LEU154     -0.1980
    112  CA       -36.7170  -12.9830   -0.7220 C.3   154  LEU154      0.1596
    113  C        -37.9680  -13.6040   -1.3460 C.2   154  LEU154      0.2287
    114  O        -38.9380  -12.9020   -1.6220 O.2   154  LEU154     -0.2864
    115  CB       -35.6070  -12.8540   -1.7780 C.3   154  LEU154      0.0297
    116  CG       -34.4160  -11.9380   -1.4580 C.3   154  LEU154      0.0022
    117  CD1      -33.3850  -11.9690   -2.5910 C.3   154  LEU154      0.0001
    118  CD2      -34.8860  -10.5110   -1.2030 C.3   154  LEU154      0.0001
    119  N        -40.8550  -11.3050    0.5280 N.3   158  VAL158     -0.1245
    120  CA       -40.7140  -10.1190   -0.3080 C.3   158  VAL158      0.1561
    121  C        -41.3720  -10.2500   -1.6850 C.2   158  VAL158      0.2260
    122  O        -42.2020   -9.4190   -2.0500 O.2   158  VAL158     -0.2867
    123  CB       -39.2240   -9.7010   -0.4530 C.3   158  VAL158      0.0252
    124  CG1      -39.1140   -8.3440   -1.1370 C.3   158  VAL158      0.0019
    125  CG2      -38.5420   -9.6560    0.9170 C.3   158  VAL158      0.0019
    126  N        -26.4530   -4.9410    3.3000 N.3   177  LEU177     -0.1245
    127  CA       -26.7100   -3.6560    3.9330 C.3   177  LEU177      0.1561
    128  C        -25.8260   -3.5580    5.1740 C.2   177  LEU177      0.2260
    129  O        -25.7660   -4.5070    5.9580 O.2   177  LEU177     -0.2867
    130  CB       -28.1920   -3.5380    4.3310 C.3   177  LEU177      0.0270
    131  CG       -28.6500   -2.2600    5.0530 C.3   177  LEU177      0.0019
    132  CD1      -28.7970   -1.0800    4.0860 C.3   177  LEU177      0.0001
    133  CD2      -29.9460   -2.4690    5.8450 C.3   177  LEU177      0.0001
    134  N        -25.1630   -2.6080    8.8430 N.3   179  LEU179     -0.1231
    135  CA       -26.0830   -2.4890    9.9600 C.3   179  LEU179      0.1693
    136  C        -25.7940   -1.1930   10.6860 C.2   179  LEU179      0.2592
    137  O        -24.9930   -1.1620   11.6180 O.2   179  LEU179     -0.2718
    138  CB       -25.9740   -3.7010   10.8860 C.3   179  LEU179      0.0284
    139  CG       -26.6670   -4.9520   10.3340 C.3   179  LEU179      0.0019
    140  CD1      -26.3090   -6.1780   11.1410 C.3   179  LEU179      0.0001
    141  CD2      -28.1920   -4.7550   10.2840 C.3   179  LEU179      0.0001
    142  N        -26.4310   -0.1210   10.2220 N.am  180  TYR180     -0.1976
    143  CA       -26.2120    1.2120   10.7730 C.3   180  TYR180      0.1639
    144  C        -26.6840    1.2910   12.2200 C.2   180  TYR180      0.2290
    145  O        -27.7110    0.7190   12.5730 O.2   180  TYR180     -0.2864
    146  CB       -26.8610    2.2870    9.8870 C.3   180  TYR180      0.0560
    147  CG       -26.2130    2.3260    8.5220 C.ar  180  TYR180     -0.0198
    148  CD1      -24.9260    2.8440    8.3640 C.ar  180  TYR180     -0.0009
    149  CD2      -26.8590    1.7980    7.4000 C.ar  180  TYR180     -0.0009
    150  CE1      -24.3020    2.8560    7.1260 C.ar  180  TYR180      0.0417
    151  CE2      -26.2400    1.8070    6.1420 C.ar  180  TYR180      0.0417
    152  CZ       -24.9590    2.3370    6.0190 C.ar  180  TYR180      0.1957
    153  OH       -24.3180    2.3550    4.8000 O.3   180  TYR180     -0.2866
    154  N        -28.2190    2.6260   15.6650 N.3   182  ALA182     -0.1245
    155  CA       -29.4110    3.3900   16.0320 C.3   182  ALA182      0.1562
    156  C        -29.0560    4.8490   16.3150 C.2   182  ALA182      0.2260
    157  O        -29.7200    5.7680   15.8350 O.2   182  ALA182     -0.2867
    158  CB       -30.0880    2.7500   17.2500 C.3   182  ALA182      0.0290
    159  N        -28.3430    6.7840   13.0280 N.3   185  ILE185     -0.1245
    160  CA       -29.5740    7.0970   12.2990 C.3   185  ILE185      0.1561
    161  C        -30.3310    8.2350   12.9870 C.2   185  ILE185      0.2260
    162  O        -30.8140    9.1560   12.3220 O.2   185  ILE185     -0.2867
    163  CB       -30.4810    5.8550   12.1450 C.3   185  ILE185      0.0252
    164  CG1      -29.7630    4.7720   11.3270 C.3   185  ILE185      0.0019
    165  CG2      -31.8100    6.2290   11.4750 C.3   185  ILE185      0.0019
    166  CD1      -30.2120    3.3570   11.6410 C.3   185  ILE185      0.0001
    167  N        -43.5540   -8.6700    4.3990 N.3   211  ALA211     -0.1231
    168  CA       -42.2640   -8.2420    4.9430 C.3   211  ALA211      0.1694
    169  C        -42.4560   -7.3140    6.1400 C.2   211  ALA211      0.2591
    170  O        -41.8310   -7.5040    7.1820 O.2   211  ALA211     -0.2718
    171  CB       -41.4110   -7.5740    3.8700 C.3   211  ALA211      0.0304
    172  N        -43.3230   -6.3180    5.9830 N.am  212  LEU212     -0.1980
    173  CA       -43.6740   -5.4160    7.0730 C.3   212  LEU212      0.1596
    174  C        -45.1250   -5.6250    7.4960 C.2   212  LEU212      0.2287
    175  O        -46.0520   -5.3570    6.7240 O.2   212  LEU212     -0.2864
    176  CB       -43.4350   -3.9570    6.6720 C.3   212  LEU212      0.0297
    177  CG       -41.9830   -3.5060    6.4760 C.3   212  LEU212      0.0022
    178  CD1      -41.9410   -2.1480    5.7870 C.3   212  LEU212      0.0001
    179  CD2      -41.2220   -3.4630    7.8030 C.3   212  LEU212      0.0001
    180  N        -44.5730   -7.0100   -0.9240 N.3   237  HIS237     -0.1241
    181  CA       -43.7090   -5.9120   -0.4820 C.3   237  HIS237      0.1621
    182  C        -43.1710   -5.0850   -1.6630 C.2   237  HIS237      0.2264
    183  O        -43.1690   -3.8530   -1.6100 O.2   237  HIS237     -0.2867
    184  CB       -42.5690   -6.4700    0.3770 C.3   237  HIS237      0.0745
    185  CG       -41.7330   -5.4220    1.0400 C.ar  237  HIS237      0.0817
    186  ND1      -42.2550   -4.4840    1.9030 N.ar  237  HIS237     -0.2268
    187  CD2      -40.4020   -5.1770    0.9790 C.ar  237  HIS237      0.1154
    188  CE1      -41.2850   -3.7020    2.3410 C.ar  237  HIS237      0.1986
    189  NE2      -40.1510   -4.1010    1.7930 N.ar  237  HIS237     -0.2212
@<TRIPOS>BOND
     1    31    33   ar
     2    31    29   ar
     3    26    27    2
     4    26    25    1
     5    33    32   ar
     6    28    25    1
     7    28    29    1
     8    25    24    1
     9    29    30   ar
    10    16    15    2
    11   117   116    1
    12    32    30   ar
    13    24    15   am
    14   122   121    2
    15    15    14    1
    16   115   116    1
    17   115   112    1
    18   121   120    1
    19   182   183    2
    20   182   181    1
    21   114   113    2
    22   116   118    1
    23     1     2    1
    24   113   112    1
    25   124   123    1
    26   180   181    1
    27     4     3    2
    28   112   111    1
    29   181   184    1
    30    14    17    1
    31    14    13    1
    32   123   120    1
    33   123   125    1
    34     7     5    1
    35   120   119    1
    36    17    18    1
    37     2     3    1
    38     2     5    1
    39     3     8   am
    40    11    10    2
    41   184   185    1
    42     5     6    1
    43    13    10   am
    44   111   102   am
    45    10     9    1
    46   187   185   ar
    47   187   189   ar
    48   185   186   ar
    49     8     9    1
    50    18    20   ar
    51    18    19   ar
    52    34    35    1
    53   102   103    2
    54   102   101    1
    55     9    12    1
    56   189   188   ar
    57   186   188   ar
    58    20    22   ar
    59   100   101    1
    60    19    21   ar
    61   101   104    1
    62    38    35    1
    63    35    36    1
    64   106   108   ar
    65   106   105   ar
    66   108   110   ar
    67    22    23   ar
    68   126   127    1
    69    41    42    2
    70    41    40    1
    71   104   105    1
    72    36    39   am
    73    36    37    2
    74    39    40    1
    75    21    23   ar
    76   105   107   ar
    77   171   168    1
    78   127   130    1
    79   127   128    1
    80   132   131    1
    81    40    43    1
    82    43    44    1
    83   110   109   ar
    84   130   131    1
    85   167   168    1
    86    95    94    2
    87    46    44    1
    88   107   109   ar
    89   153   152    1
    90    44    45    1
    91   168   169    1
    92   131   133    1
    93   128   129    2
    94    94    93    1
    95    47    48    1
    96   178   177    1
    97   172   169   am
    98   172   173    1
    99   152   151   ar
   100   152   150   ar
   101   169   170    2
   102   151   149   ar
   103    50    49    2
   104   177   176    1
   105   177   179    1
   106   176   173    1
   107   175   174    2
   108    93    92    1
   109    93    96    1
   110    82    81    1
   111    48    49    1
   112    48    51    1
   113   173   174    1
   114   150   148   ar
   115    97    96    1
   116    97    99    1
   117    97    98    1
   118   149   147   ar
   119    52    51    1
   120    52    54    1
   121    52    53    1
   122    83    81    1
   123    81    78    1
   124   148   147   ar
   125   147   146    1
   126    78    79    1
   127    78    77    1
   128    80    79    2
   129   134   135    1
   130    79    84   am
   131   146   143    1
   132   135   136    1
   133   135   138    1
   134    72    69    1
   135   142   136   am
   136   142   143    1
   137   141   139    1
   138   139   138    1
   139   139   140    1
   140    71    70    2
   141    84    85    1
   142   136   137    2
   143   143   144    1
   144    69    70    1
   145    69    68    1
   146    70    73   am
   147    85    86    1
   148    85    88    1
   149   164   166    1
   150   164   163    1
   151    60    59    1
   152   165   163    1
   153    91    89    1
   154    86    87    2
   155    73    74    1
   156    89    88    1
   157    89    90    1
   158    76    75    2
   159   163   160    1
   160    74    75    1
   161   144   145    2
   162   160   161    1
   163   160   159    1
   164   162   161    2
   165    56    59    1
   166    56    55    1
   167    56    57    1
   168    58    57    2
   169    57    61   am
   170    61    62    1
   171    64    63    2
   172    63    62    1
   173   154   155    1
   174    62    65    1
   175   157   156    2
   176   155   156    1
   177   155   158    1
   178    65    66    1
   179    65    67    1
