@<TRIPOS>MOLECULE
tmp/3stuA00.pdb
 161 153 0 0 0
SMALL
GASTEIGER

@<TRIPOS>ATOM
      1  N        -22.0870  -10.7300  -21.8630 N.3    11  THR11      -0.1203
      2  CA       -21.2210   -9.9550  -22.7420 C.3    11  THR11       0.1994
      3  C        -20.7780   -8.6410  -22.0820 C.2    11  THR11       0.2618
      4  O        -21.0690   -8.3950  -20.9000 O.2    11  THR11      -0.2717
      5  CB       -21.9340   -9.6600  -24.0930 C.3    11  THR11       0.1784
      6  OG1      -20.9990   -9.1020  -25.0260 O.3    11  THR11      -0.2211
      7  CG2      -23.1160   -8.6900  -23.9130 C.3    11  THR11       0.0376
      8  N        -20.0860   -7.8060  -22.8560 N.am   12  ALA12      -0.1965
      9  CA       -19.6590   -6.4700  -22.4240 C.3    12  ALA12       0.1728
     10  C        -20.7840   -5.6410  -21.8120 C.2    12  ALA12       0.2616
     11  O        -21.9080   -5.6470  -22.3080 O.2    12  ALA12      -0.2715
     12  CB       -19.0300   -5.7050  -23.6000 C.3    12  ALA12       0.0334
     13  N        -20.4510   -4.9330  -20.7340 N.am   13  PHE13      -0.1974
     14  CA       -21.3430   -4.0000  -20.0260 C.3    13  PHE13       0.1639
     15  C        -22.3930   -4.6850  -19.1630 C.2    13  PHE13       0.2290
     16  O        -22.9850   -4.0510  -18.2900 O.2    13  PHE13      -0.2864
     17  CB       -22.0530   -3.0170  -20.9760 C.3    13  PHE13       0.0560
     18  CG       -21.1900   -2.4950  -22.0860 C.ar   13  PHE13      -0.0200
     19  CD1      -19.9980   -1.8300  -21.8110 C.ar   13  PHE13      -0.0042
     20  CD2      -21.5850   -2.6590  -23.4170 C.ar   13  PHE13      -0.0042
     21  CE1      -19.2070   -1.3370  -22.8400 C.ar   13  PHE13      -0.0003
     22  CE2      -20.7990   -2.1740  -24.4610 C.ar   13  PHE13      -0.0003
     23  CZ       -19.6020   -1.5180  -24.1710 C.ar   13  PHE13      -0.0000
     24  N        -21.8840  -13.2860  -26.9160 N.3    80  ALA80      -0.1231
     25  CA       -21.0490  -12.2540  -27.5790 C.3    80  ALA80       0.1694
     26  C        -19.5850  -12.2020  -27.0880 C.2    80  ALA80       0.2591
     27  O        -18.8250  -13.1420  -27.3380 O.2    80  ALA80      -0.2718
     28  CB       -21.7290  -10.8760  -27.5320 C.3    80  ALA80       0.0304
     29  N        -19.1900  -11.1240  -26.4080 N.am   81  LEU81      -0.1980
     30  CA       -17.8570  -11.0560  -25.7880 C.3    81  LEU81       0.1596
     31  C        -17.6030  -12.2110  -24.8020 C.2    81  LEU81       0.2287
     32  O        -16.4530  -12.6200  -24.5990 O.2    81  LEU81      -0.2864
     33  CB       -17.6340   -9.7110  -25.0780 C.3    81  LEU81       0.0297
     34  CG       -16.2270   -9.4480  -24.5140 C.3    81  LEU81       0.0022
     35  CD1      -15.1890   -9.2840  -25.6180 C.3    81  LEU81       0.0001
     36  CD2      -16.2050   -8.2380  -23.5930 C.3    81  LEU81       0.0001
     37  N        -18.1850  -14.4760  -29.7500 N.3   106  LEU106     -0.1245
     38  CA       -16.8850  -14.4320  -30.3980 C.3   106  LEU106      0.1561
     39  C        -16.2910  -15.8270  -30.2410 C.2   106  LEU106      0.2260
     40  O        -16.1260  -16.3180  -29.1250 O.2   106  LEU106     -0.2867
     41  CB       -15.9870  -13.3540  -29.7840 C.3   106  LEU106      0.0270
     42  CG       -16.5490  -11.9230  -29.7610 C.3   106  LEU106      0.0019
     43  CD1      -15.5060  -10.9370  -29.2430 C.3   106  LEU106      0.0001
     44  CD2      -17.0700  -11.4820  -31.1250 C.3   106  LEU106      0.0001
     45  N        -11.6980   -9.6520  -31.8050 N.3   118  CYS118     -0.1221
     46  CA       -11.8420   -8.5040  -30.8950 C.3   118  CYS118      0.1808
     47  C        -11.8720   -7.1530  -31.5840 C.2   118  CYS118      0.2601
     48  O        -12.7520   -6.3380  -31.3070 O.2   118  CYS118     -0.2717
     49  CB       -10.7240   -8.4920  -29.8610 C.3   118  CYS118      0.0970
     50  SG       -11.1030   -9.4980  -28.4620 S.3   118  CYS118     -0.0800
     51  N        -10.8940   -6.9160  -32.4570 N.am  119  THR119     -0.1953
     52  CA       -10.7830   -5.6570  -33.1910 C.3   119  THR119      0.1897
     53  C        -12.0450   -5.4090  -34.0140 C.2   119  THR119      0.2313
     54  O        -12.5240   -4.2760  -34.1080 O.2   119  THR119     -0.2863
     55  CB        -9.5560   -5.6570  -34.1260 C.3   119  THR119      0.1794
     56  OG1       -8.4370   -6.2470  -33.4510 O.3   119  THR119     -0.2208
     57  CG2       -9.2000   -4.2400  -34.5520 C.3   119  THR119      0.0378
     58  N        -15.1440   -6.8360  -33.4010 N.3   121  ALA121     -0.1231
     59  CA       -16.2170   -6.6040  -32.4320 C.3   121  ALA121      0.1694
     60  C        -16.1930   -5.1750  -31.8820 C.2   121  ALA121      0.2592
     61  O        -17.2380   -4.5350  -31.7550 O.2   121  ALA121     -0.2718
     62  CB       -16.1310   -7.6130  -31.2930 C.3   121  ALA121      0.0304
     63  N        -14.9930   -4.6860  -31.5750 N.am  122  GLY122     -0.1957
     64  CA       -14.8030   -3.3440  -31.0240 C.3   122  GLY122      0.1869
     65  C        -15.1990   -2.2120  -31.9540 C.2   122  GLY122      0.2309
     66  O        -15.6940   -1.1820  -31.4970 O.2   122  GLY122     -0.2863
     67  N        -18.7380   -1.0060  -31.6730 N.3   125  VAL125     -0.1231
     68  CA       -19.1330   -0.4000  -30.3980 C.3   125  VAL125      0.1692
     69  C        -18.4380    0.9490  -30.1720 C.2   125  VAL125      0.2591
     70  O        -19.0960    1.9420  -29.8530 O.2   125  VAL125     -0.2718
     71  CB       -18.9090   -1.3560  -29.1860 C.3   125  VAL125      0.0266
     72  CG1      -19.5410   -0.7810  -27.9320 C.3   125  VAL125      0.0020
     73  CG2      -19.4920   -2.7460  -29.4680 C.3   125  VAL125      0.0020
     74  N        -17.1170    0.9780  -30.3430 N.am  126  LEU126     -0.1980
     75  CA       -16.3440    2.2110  -30.2170 C.3   126  LEU126      0.1596
     76  C        -16.8350    3.2580  -31.2100 C.2   126  LEU126      0.2287
     77  O        -16.9760    2.9760  -32.4010 O.2   126  LEU126     -0.2864
     78  CB       -14.8590    1.9350  -30.4450 C.3   126  LEU126      0.0297
     79  CG       -14.0350    1.4260  -29.2610 C.3   126  LEU126      0.0022
     80  CD1      -12.8200    0.6290  -29.7490 C.3   126  LEU126      0.0001
     81  CD2      -13.6070    2.5920  -28.3760 C.3   126  LEU126      0.0001
     82  N        -14.6480    1.9680  -21.7690 N.3   146  LEU146     -0.1245
     83  CA       -15.7210    2.2820  -22.6870 C.3   146  LEU146      0.1561
     84  C        -17.0600    2.1910  -21.9570 C.2   146  LEU146      0.2260
     85  O        -17.3190    1.2160  -21.2470 O.2   146  LEU146     -0.2867
     86  CB       -15.6730    1.3130  -23.8690 C.3   146  LEU146      0.0270
     87  CG       -16.8180    1.2730  -24.8800 C.3   146  LEU146      0.0019
     88  CD1      -16.9400    2.5810  -25.6620 C.3   146  LEU146      0.0001
     89  CD2      -16.6070    0.0880  -25.8170 C.3   146  LEU146      0.0001
     90  N        -16.6380   -1.0880  -19.5600 N.3   176  LEU176     -0.1231
     91  CA       -15.7270   -2.1650  -19.9170 C.3   176  LEU176      0.1693
     92  C        -14.3170   -1.5940  -20.0620 C.2   176  LEU176      0.2592
     93  O        -14.1200   -0.5770  -20.7380 O.2   176  LEU176     -0.2718
     94  CB       -16.1680   -2.8390  -21.2220 C.3   176  LEU176      0.0284
     95  CG       -15.2930   -3.9560  -21.8090 C.3   176  LEU176      0.0019
     96  CD1      -15.4480   -5.2800  -21.0250 C.3   176  LEU176      0.0001
     97  CD2      -15.6080   -4.1470  -23.2860 C.3   176  LEU176      0.0001
     98  N        -13.3450   -2.2220  -19.4030 N.am  177  TYR177     -0.1962
     99  CA       -11.9480   -1.8260  -19.5840 C.3   177  TYR177      0.1771
    100  C        -11.5710   -2.1400  -21.0210 C.2   177  TYR177      0.2619
    101  O        -11.9420   -3.1870  -21.5470 O.2   177  TYR177     -0.2715
    102  CB       -11.0090   -2.5580  -18.6120 C.3   177  TYR177      0.0574
    103  CG        -9.6250   -1.9390  -18.5680 C.ar  177  TYR177     -0.0198
    104  CD1       -9.2950   -1.0010  -17.5910 C.ar  177  TYR177     -0.0009
    105  CD2       -8.6520   -2.2680  -19.5250 C.ar  177  TYR177     -0.0009
    106  CE1       -8.0270   -0.4140  -17.5570 C.ar  177  TYR177      0.0417
    107  CE2       -7.3800   -1.6860  -19.5010 C.ar  177  TYR177      0.0417
    108  CZ        -7.0780   -0.7550  -18.5200 C.ar  177  TYR177      0.1957
    109  OH        -5.8280   -0.1720  -18.4850 O.3   177  TYR177     -0.2866
    110  N        -10.8540   -1.2260  -21.6660 N.am  178  LEU178     -0.1963
    111  CA       -10.4350   -1.4570  -23.0450 C.3   178  LEU178      0.1728
    112  C         -9.1530   -2.2730  -23.0760 C.2   178  LEU178      0.2616
    113  O         -8.0520   -1.7230  -23.1560 O.2   178  LEU178     -0.2715
    114  CB       -10.3170   -0.1370  -23.8210 C.3   178  LEU178      0.0311
    115  CG       -11.6840    0.4920  -24.1200 C.3   178  LEU178      0.0022
    116  CD1      -11.5640    1.9350  -24.5700 C.3   178  LEU178      0.0001
    117  CD2      -12.4400   -0.3400  -25.1620 C.3   178  LEU178      0.0001
    118  N         -9.3150   -3.5940  -22.9860 N.am  179  TYR179     -0.1974
    119  CA        -8.1850   -4.5250  -22.9500 C.3   179  TYR179      0.1639
    120  C         -7.3500   -4.4530  -24.2190 C.2   179  TYR179      0.2290
    121  O         -7.8850   -4.3010  -25.3170 O.2   179  TYR179     -0.2864
    122  CB        -8.6610   -5.9570  -22.6630 C.3   179  TYR179      0.0560
    123  CG        -9.3150   -6.0340  -21.3070 C.ar  179  TYR179     -0.0198
    124  CD1       -8.5470   -5.9750  -20.1480 C.ar  179  TYR179     -0.0009
    125  CD2      -10.7040   -6.0950  -21.1810 C.ar  179  TYR179     -0.0009
    126  CE1       -9.1460   -6.0020  -18.8910 C.ar  179  TYR179      0.0417
    127  CE2      -11.3120   -6.1280  -19.9320 C.ar  179  TYR179      0.0417
    128  CZ       -10.5230   -6.0800  -18.7930 C.ar  179  TYR179      0.1957
    129  OH       -11.1040   -6.0980  -17.5520 O.3   179  TYR179     -0.2866
    130  N         -4.9850   -5.5940  -27.2700 N.3   181  ALA181     -0.1245
    131  CA        -4.9620   -6.7060  -28.2090 C.3   181  ALA181      0.1562
    132  C         -3.8900   -7.7380  -27.8530 C.2   181  ALA181      0.2260
    133  O         -4.1150   -8.9400  -27.9780 O.2   181  ALA181     -0.2867
    134  CB        -4.7550   -6.1770  -29.6250 C.3   181  ALA181      0.0290
    135  N         -5.0570   -9.7760  -24.6610 N.3   184  ILE184     -0.1245
    136  CA        -6.0400  -10.7890  -25.0700 C.3   184  ILE184      0.1561
    137  C         -5.4190  -11.9610  -25.8480 C.2   184  ILE184      0.2260
    138  O         -5.7210  -13.1190  -25.5560 O.2   184  ILE184     -0.2867
    139  CB        -7.2390  -10.1660  -25.8390 C.3   184  ILE184      0.0252
    140  CG1       -8.1070   -9.3430  -24.8770 C.3   184  ILE184      0.0019
    141  CG2       -8.0860  -11.2540  -26.5140 C.3   184  ILE184      0.0019
    142  CD1       -9.0710   -8.3960  -25.5590 C.3   184  ILE184      0.0001
    143  N        -23.1270   -7.7810  -39.3280 N.3   212  LYS212     -0.1245
    144  CA       -22.9140   -8.5830  -38.1190 C.3   212  LYS212      0.1561
    145  C        -23.1230  -10.0660  -38.4060 C.2   212  LYS212      0.2260
    146  O        -22.3600  -10.9060  -37.9290 O.2   212  LYS212     -0.2867
    147  CB       -23.8530   -8.1280  -37.0000 C.3   212  LYS212      0.0271
    148  CG       -23.7880   -8.9440  -35.7140 C.3   212  LYS212      0.0035
    149  CD       -22.6860   -8.4590  -34.7880 C.3   212  LYS212      0.0206
    150  CE       -23.0780   -8.6980  -33.3430 C.3   212  LYS212      0.1093
    151  NZ       -21.9680   -8.3970  -32.4050 N.3   212  LYS212     -0.1314
    152  N        -29.5930   -8.0380  -30.2670 N.3   236  HIS236     -0.1241
    153  CA       -28.3040   -8.4360  -29.6850 C.3   236  HIS236      0.1621
    154  C        -28.4290   -9.1990  -28.3530 C.2   236  HIS236      0.2264
    155  O        -27.5670  -10.0150  -28.0200 O.2   236  HIS236     -0.2867
    156  CB       -27.3700   -7.2320  -29.5320 C.3   236  HIS236      0.0745
    157  CG       -25.9630   -7.6040  -29.1680 C.ar  236  HIS236      0.0817
    158  ND1      -25.1040   -8.2250  -30.0520 N.ar  236  HIS236     -0.2268
    159  CD2      -25.2670   -7.4490  -28.0140 C.ar  236  HIS236      0.1154
    160  CE1      -23.9390   -8.4280  -29.4620 C.ar  236  HIS236      0.1986
    161  NE2      -24.0120   -7.9700  -28.2240 N.ar  236  HIS236     -0.2212
@<TRIPOS>BOND
     1   143   144    1
     2   145   144    1
     3   145   146    2
     4   144   147    1
     5   147   148    1
     6   148   149    1
     7   149   150    1
     8    57    55    1
     9    55    56    1
    10    55    52    1
    11    54    53    2
    12    53    52    1
    13    58    59    1
    14   150   151    1
    15    52    51    1
    16    51    47   am
    17    59    60    1
    18    59    62    1
    19    77    76    2
    20    65    66    2
    21    65    64    1
    22    60    61    2
    23    60    63   am
    24    45    46    1
    25    67    68    1
    26    47    48    2
    27    47    46    1
    28    63    64    1
    29    76    75    1
    30    44    42    1
    31    46    49    1
    32    78    75    1
    33    78    79    1
    34    68    69    1
    35    68    71    1
    36    38    39    1
    37    38    41    1
    38    38    37    1
    39    74    75    1
    40    74    69   am
    41   152   153    1
    42    39    40    2
    43    69    70    2
    44   158   160   ar
    45   158   157   ar
    46    49    50    1
    47    41    42    1
    48    42    43    1
    49    80    79    1
    50   153   156    1
    51   153   154    1
    52   134   131    1
    53   156   157    1
    54    73    71    1
    55   160   161   ar
    56    79    81    1
    57    71    72    1
    58   157   159   ar
    59   154   155    2
    60   161   159   ar
    61   131   132    1
    62   131   130    1
    63   133   132    2
    64    25    28    1
    65    25    26    1
    66    25    24    1
    67    27    26    2
    68    26    29   am
    69   141   139    1
    70    29    30    1
    71   137   138    2
    72   137   136    1
    73   139   136    1
    74   139   140    1
    75    89    87    1
    76    30    33    1
    77    30    31    1
    78    88    87    1
    79    35    34    1
    80   142   140    1
    81   121   120    2
    82   117   115    1
    83    33    34    1
    84   136   135    1
    85     6     5    1
    86    87    86    1
    87    31    32    2
    88   116   115    1
    89    34    36    1
    90    22    23   ar
    91    22    20   ar
    92   120   119    1
    93    23    21   ar
    94   115   114    1
    95     5     7    1
    96     5     2    1
    97    86    83    1
    98   114   111    1
    99    12     9    1
   100    20    18   ar
   101    97    95    1
   102   113   112    2
   103   112   111    1
   104   112   118   am
   105   111   110    1
   106   118   119    1
   107   119   122    1
   108     8     9    1
   109     8     3   am
   110    21    19   ar
   111     2     3    1
   112     2     1    1
   113    83    84    1
   114    83    82    1
   115   122   123    1
   116     9    10    1
   117    11    10    2
   118    18    19   ar
   119    18    17    1
   120     3     4    2
   121    84    85    2
   122    10    13   am
   123    95    94    1
   124    95    96    1
   125   110   100   am
   126   101   100    2
   127   123   125   ar
   128   123   124   ar
   129    94    91    1
   130   125   127   ar
   131   100    99    1
   132    17    14    1
   133    93    92    2
   134    13    14    1
   135   124   126   ar
   136    92    91    1
   137    92    98   am
   138    14    15    1
   139   127   128   ar
   140    91    90    1
   141    99    98    1
   142    99   102    1
   143   105   107   ar
   144   105   103   ar
   145   107   108   ar
   146    15    16    2
   147   126   128   ar
   148   128   129    1
   149   102   103    1
   150   103   104   ar
   151   108   109    1
   152   108   106   ar
   153   104   106   ar
