@<TRIPOS>MOLECULE
tmp/3stwB00.pdb
 212 204 0 0 0
SMALL
GASTEIGER

@<TRIPOS>ATOM
      1  N        -35.3720    0.2880   -1.1240 N.3    12  THR12      -0.1203
      2  CA       -35.2520   -0.1250    0.2630 C.3    12  THR12       0.1994
      3  C        -33.9220   -0.8500    0.4620 C.2    12  THR12       0.2618
      4  O        -33.0410   -0.8160   -0.4030 O.2    12  THR12      -0.2717
      5  CB       -36.4290   -1.0540    0.6910 C.3    12  THR12       0.1784
      6  OG1      -36.4130   -1.2250    2.1150 O.3    12  THR12      -0.2211
      7  CG2      -36.3180   -2.4180    0.0270 C.3    12  THR12       0.0376
      8  N        -33.7770   -1.5000    1.6090 N.am   13  ALA13      -0.1965
      9  CA       -32.5540   -2.2240    1.9250 C.3    13  ALA13       0.1728
     10  C        -32.2740   -3.3250    0.9120 C.2    13  ALA13       0.2616
     11  O        -33.2040   -3.9220    0.3640 O.2    13  ALA13      -0.2715
     12  CB       -32.6610   -2.8250    3.3130 C.3    13  ALA13       0.0334
     13  N        -30.9860   -3.5710    0.6710 N.am   14  PHE14      -0.1960
     14  CA       -30.5080   -4.6150   -0.2380 C.3    14  PHE14       0.1771
     15  C        -30.6950   -4.3410   -1.7160 C.2    14  PHE14       0.2619
     16  O        -29.9440   -4.8540   -2.5470 O.2    14  PHE14      -0.2715
     17  CB       -31.1790   -5.9560    0.0890 C.3    14  PHE14       0.0574
     18  CG       -31.2800   -6.2390    1.5530 C.ar   14  PHE14      -0.0200
     19  CD1      -30.1580   -6.1480    2.3710 C.ar   14  PHE14      -0.0042
     20  CD2      -32.5030   -6.5810    2.1220 C.ar   14  PHE14      -0.0042
     21  CE1      -30.2520   -6.3950    3.7410 C.ar   14  PHE14      -0.0003
     22  CE2      -32.6120   -6.8290    3.4840 C.ar   14  PHE14      -0.0003
     23  CZ       -31.4810   -6.7360    4.3010 C.ar   14  PHE14      -0.0000
     24  N        -31.6980   -3.5350   -2.0400 N.am   15  HIS15      -0.1973
     25  CA       -32.0140   -3.2260   -3.4250 C.3    15  HIS15       0.1656
     26  C        -31.2350   -2.0610   -4.0240 C.2    15  HIS15       0.2291
     27  O        -30.2420   -1.6070   -3.4660 O.2    15  HIS15      -0.2864
     28  CB       -33.5250   -2.9820   -3.5530 C.3    15  HIS15       0.0771
     29  CG       -34.3450   -4.2060   -3.2970 C.ar   15  HIS15       0.0820
     30  ND1      -34.3000   -4.8950   -2.1030 N.ar   15  HIS15      -0.2267
     31  CD2      -35.1740   -4.9090   -4.1050 C.ar   15  HIS15       0.1154
     32  CE1      -35.0620   -5.9720   -2.1900 C.ar   15  HIS15       0.1986
     33  NE2      -35.6020   -6.0040   -3.3950 N.ar   15  HIS15      -0.2212
     34  N        -24.2710    6.3830    8.3380 N.3    55  PHE55      -0.1241
     35  CA       -25.5520    6.4770    7.6370 C.3    55  PHE55       0.1605
     36  C        -25.5220    7.6220    6.6330 C.2    55  PHE55       0.2264
     37  O        -26.1590    7.5620    5.5830 O.2    55  PHE55      -0.2867
     38  CB       -26.6910    6.6900    8.6540 C.3    55  PHE55       0.0534
     39  CG       -28.0730    6.3890    8.1110 C.ar   55  PHE55      -0.0203
     40  CD1      -28.3600    5.1480    7.5460 C.ar   55  PHE55      -0.0042
     41  CD2      -29.0940    7.3340    8.1970 C.ar   55  PHE55      -0.0042
     42  CE1      -29.6420    4.8470    7.0790 C.ar   55  PHE55      -0.0003
     43  CE2      -30.3860    7.0450    7.7320 C.ar   55  PHE55      -0.0003
     44  CZ       -30.6570    5.7990    7.1740 C.ar   55  PHE55      -0.0000
     45  N        -40.2120    1.3760    1.7000 N.3    81  ALA81      -0.1231
     46  CA       -39.7820    0.8840    3.0160 C.3    81  ALA81       0.1694
     47  C        -38.6160    1.6830    3.6190 C.2    81  ALA81       0.2591
     48  O        -38.7710    2.8710    3.9110 O.2    81  ALA81      -0.2718
     49  CB       -39.4210   -0.5950    2.9250 C.3    81  ALA81       0.0304
     50  N        -37.4590    1.0430    3.8060 N.am   82  LEU82      -0.1980
     51  CA       -36.2950    1.7230    4.3850 C.3    82  LEU82       0.1596
     52  C        -35.9770    3.0340    3.6700 C.2    82  LEU82       0.2287
     53  O        -35.3990    3.9450    4.2570 O.2    82  LEU82      -0.2864
     54  CB       -35.0590    0.8260    4.3470 C.3    82  LEU82       0.0297
     55  CG       -33.8170    1.5000    4.9320 C.3    82  LEU82       0.0022
     56  CD1      -34.0420    1.7470    6.4150 C.3    82  LEU82       0.0001
     57  CD2      -32.5860    0.6370    4.7200 C.3    82  LEU82       0.0001
     58  N        -40.8640    3.2970    5.9010 N.3   107  LEU107     -0.1245
     59  CA       -40.6560    3.6480    7.2970 C.3   107  LEU107      0.1561
     60  C        -40.9350    5.1420    7.2780 C.2   107  LEU107      0.2260
     61  O        -40.2380    5.9050    6.6030 O.2   107  LEU107     -0.2867
     62  CB       -39.2110    3.3630    7.7110 C.3   107  LEU107      0.0270
     63  CG       -38.7780    1.9050    7.5220 C.3   107  LEU107      0.0019
     64  CD1      -37.3960    1.6860    8.1330 C.3   107  LEU107      0.0001
     65  CD2      -39.8000    0.9770    8.1710 C.3   107  LEU107      0.0001
     66  N        -36.7490    2.3010   13.2970 N.3   119  CYS119     -0.1221
     67  CA       -35.6640    1.4330   12.8420 C.3   119  CYS119      0.1808
     68  C        -35.5370    0.1610   13.6610 C.2   119  CYS119      0.2601
     69  O        -35.1900   -0.8970   13.1310 O.2   119  CYS119     -0.2717
     70  CB       -34.3350    2.1770   12.8740 C.3   119  CYS119      0.0970
     71  SG       -34.0830    3.2200   11.4450 S.3   119  CYS119     -0.0800
     72  N        -35.8040    0.2730   14.9570 N.am  120  THR120     -0.1953
     73  CA       -35.7320   -0.8750   15.8470 C.3   120  THR120      0.1897
     74  C        -36.8670   -1.8270   15.5010 C.2   120  THR120      0.2313
     75  O        -36.6630   -3.0360   15.3820 O.2   120  THR120     -0.2863
     76  CB       -35.8530   -0.4440   17.3250 C.3   120  THR120      0.1794
     77  OG1      -34.7310    0.3800   17.6720 O.3   120  THR120     -0.2208
     78  CG2      -35.8890   -1.6660   18.2400 C.3   120  THR120      0.0378
     79  N        -38.4170   -1.9870   12.6990 N.3   122  ALA122     -0.1231
     80  CA       -38.1350   -2.5140   11.3710 C.3   122  ALA122      0.1694
     81  C        -37.1090   -3.6320   11.4680 C.2   122  ALA122      0.2592
     82  O        -37.2890   -4.7060   10.8950 O.2   122  ALA122     -0.2718
     83  CB       -37.6180   -1.4060   10.4630 C.3   122  ALA122      0.0304
     84  N        -36.0370   -3.3760   12.2090 N.am  123  GLY123     -0.1957
     85  CA       -34.9910   -4.3660   12.3650 C.3   123  GLY123      0.1869
     86  C        -35.4760   -5.7200   12.8460 C.2   123  GLY123      0.2309
     87  O        -34.9810   -6.7570   12.3980 O.2   123  GLY123     -0.2863
     88  N        -36.6590   -8.0930   10.1190 N.3   126  VAL126     -0.1231
     89  CA       -35.6890   -8.5720    9.1410 C.3   126  VAL126      0.1692
     90  C        -34.6220   -9.4600    9.7740 C.2   126  VAL126      0.2591
     91  O        -34.3850  -10.5750    9.3160 O.2   126  VAL126     -0.2718
     92  CB       -35.0000   -7.4000    8.4080 C.3   126  VAL126      0.0266
     93  CG1      -33.9880   -7.9370    7.4090 C.3   126  VAL126      0.0020
     94  CG2      -36.0430   -6.5560    7.6870 C.3   126  VAL126      0.0020
     95  N        -33.9750   -8.9610   10.8200 N.am  127  LEU127     -0.1980
     96  CA       -32.9450   -9.7280   11.5120 C.3   127  LEU127      0.1596
     97  C        -33.5160  -11.0420   12.0340 C.2   127  LEU127      0.2287
     98  O        -34.5930  -11.0680   12.6360 O.2   127  LEU127     -0.2864
     99  CB       -32.3750   -8.9170   12.6810 C.3   127  LEU127      0.0297
    100  CG       -31.3590   -7.8250   12.3450 C.3   127  LEU127      0.0022
    101  CD1      -31.1540   -6.9090   13.5360 C.3   127  LEU127      0.0001
    102  CD2      -30.0530   -8.4760   11.9420 C.3   127  LEU127      0.0001
    103  N        -25.8350   -6.9770    7.2290 N.3   147  LEU147     -0.1245
    104  CA       -26.9750   -7.8810    7.1330 C.3   147  LEU147      0.1561
    105  C        -27.1090   -8.3060    5.6730 C.2   147  LEU147      0.2260
    106  O        -27.0460   -7.4750    4.7640 O.2   147  LEU147     -0.2867
    107  CB       -28.2600   -7.1880    7.5870 C.3   147  LEU147      0.0270
    108  CG       -29.5600   -7.9720    7.3650 C.3   147  LEU147      0.0019
    109  CD1      -29.4910   -9.3410    8.0360 C.3   147  LEU147      0.0001
    110  CD2      -30.7170   -7.1680    7.9230 C.3   147  LEU147      0.0001
    111  N        -35.8670  -15.8920    2.3750 N.3   153  PHE153     -0.1227
    112  CA       -36.5080  -14.7310    2.9880 C.3   153  PHE153      0.1736
    113  C        -37.1280  -13.8430    1.9030 C.2   153  PHE153      0.2595
    114  O        -38.2020  -13.2680    2.0910 O.2   153  PHE153     -0.2718
    115  CB       -35.4910  -13.9130    3.7780 C.3   153  PHE153      0.0547
    116  CG       -35.9270  -12.4980    4.0410 C.ar  153  PHE153     -0.0202
    117  CD1      -35.5140  -11.4620    3.2060 C.ar  153  PHE153     -0.0042
    118  CD2      -36.7620  -12.2000    5.1120 C.ar  153  PHE153     -0.0042
    119  CE1      -35.9270  -10.1480    3.4350 C.ar  153  PHE153     -0.0003
    120  CE2      -37.1790  -10.8910    5.3480 C.ar  153  PHE153     -0.0003
    121  CZ       -36.7610   -9.8650    4.5080 C.ar  153  PHE153     -0.0000
    122  N        -36.4340  -13.7310    0.7720 N.am  154  LEU154     -0.1980
    123  CA       -36.9070  -12.9140   -0.3370 C.3   154  LEU154      0.1596
    124  C        -38.1520  -13.5110   -0.9800 C.2   154  LEU154      0.2287
    125  O        -39.1230  -12.8100   -1.2320 O.2   154  LEU154     -0.2864
    126  CB       -35.8100  -12.7630   -1.3920 C.3   154  LEU154      0.0297
    127  CG       -34.6080  -11.8830   -1.0560 C.3   154  LEU154      0.0022
    128  CD1      -33.6660  -11.8640   -2.2430 C.3   154  LEU154      0.0001
    129  CD2      -35.0710  -10.4710   -0.7360 C.3   154  LEU154      0.0001
    130  N        -40.8450  -11.1350    0.8850 N.3   158  VAL158     -0.1245
    131  CA       -40.8260   -9.9830    0.0020 C.3   158  VAL158      0.1561
    132  C        -41.4710  -10.1650   -1.3670 C.2   158  VAL158      0.2260
    133  O        -42.3070   -9.3550   -1.7720 O.2   158  VAL158     -0.2867
    134  CB       -39.3750   -9.4860   -0.1980 C.3   158  VAL158      0.0252
    135  CG1      -39.3700   -8.2110   -1.0200 C.3   158  VAL158      0.0019
    136  CG2      -38.7150   -9.2440    1.1590 C.3   158  VAL158      0.0019
    137  N        -26.4150   -4.9680    3.6070 N.3   177  LEU177     -0.1231
    138  CA       -26.7650   -3.6750    4.1890 C.3   177  LEU177      0.1693
    139  C        -25.9650   -3.5200    5.4810 C.2   177  LEU177      0.2592
    140  O        -26.0240   -4.3850    6.3570 O.2   177  LEU177     -0.2718
    141  CB       -28.2540   -3.6010    4.5150 C.3   177  LEU177      0.0284
    142  CG       -28.7240   -2.3340    5.2360 C.3   177  LEU177      0.0019
    143  CD1      -28.7630   -1.1510    4.2740 C.3   177  LEU177      0.0001
    144  CD2      -30.0960   -2.5790    5.8240 C.3   177  LEU177      0.0001
    145  N        -25.1950   -2.4390    5.5910 N.am  178  TYR178     -0.1962
    146  CA       -24.4310   -2.2050    6.8080 C.3   178  TYR178      0.1771
    147  C        -25.4580   -1.9390    7.9030 C.2   178  TYR178      0.2619
    148  O        -26.3910   -1.1580    7.6960 O.2   178  TYR178     -0.2715
    149  CB       -23.5260   -0.9800    6.6710 C.3   178  TYR178      0.0574
    150  CG       -22.6140   -0.8000    7.8670 C.ar  178  TYR178     -0.0198
    151  CD1      -21.3290   -1.3430    7.8790 C.ar  178  TYR178     -0.0009
    152  CD2      -23.0620   -0.1480    9.0150 C.ar  178  TYR178     -0.0009
    153  CE1      -20.5140   -1.2440    9.0020 C.ar  178  TYR178      0.0417
    154  CE2      -22.2600   -0.0460   10.1440 C.ar  178  TYR178      0.0417
    155  CZ       -20.9870   -0.5970   10.1340 C.ar  178  TYR178      0.1957
    156  OH       -20.1920   -0.5050   11.2580 O.3   178  TYR178     -0.2866
    157  N        -25.2920   -2.5860    9.0550 N.am  179  LEU179     -0.1963
    158  CA       -26.2120   -2.4130   10.1800 C.3   179  LEU179      0.1728
    159  C        -25.9520   -1.1190   10.9450 C.2   179  LEU179      0.2616
    160  O        -25.3370   -1.1260   12.0190 O.2   179  LEU179     -0.2715
    161  CB       -26.0990   -3.5980   11.1340 C.3   179  LEU179      0.0311
    162  CG       -26.7340   -4.8940   10.6340 C.3   179  LEU179      0.0022
    163  CD1      -26.4510   -6.0260   11.6150 C.3   179  LEU179      0.0001
    164  CD2      -28.2330   -4.6790   10.4760 C.3   179  LEU179      0.0001
    165  N        -26.4430   -0.0140   10.3930 N.am  180  TYR180     -0.1974
    166  CA       -26.2610    1.3010   10.9890 C.3   180  TYR180      0.1639
    167  C        -26.7500    1.4010   12.4260 C.2   180  TYR180      0.2290
    168  O        -27.7960    0.8650   12.7830 O.2   180  TYR180     -0.2864
    169  CB       -26.9430    2.3590   10.1180 C.3   180  TYR180      0.0560
    170  CG       -26.3130    2.4590    8.7460 C.ar  180  TYR180     -0.0198
    171  CD1      -25.0480    3.0290    8.5760 C.ar  180  TYR180     -0.0009
    172  CD2      -26.9450    1.9120    7.6270 C.ar  180  TYR180     -0.0009
    173  CE1      -24.4270    3.0430    7.3230 C.ar  180  TYR180      0.0417
    174  CE2      -26.3330    1.9210    6.3750 C.ar  180  TYR180      0.0417
    175  CZ       -25.0750    2.4850    6.2300 C.ar  180  TYR180      0.1957
    176  OH       -24.4600    2.4710    4.9980 O.3   180  TYR180     -0.2866
    177  N        -28.4070    2.8790   15.6970 N.3   182  ALA182     -0.1245
    178  CA       -29.5840    3.7060   15.9360 C.3   182  ALA182      0.1562
    179  C        -29.1440    5.1270   16.2970 C.2   182  ALA182      0.2260
    180  O        -29.7290    6.1110   15.8430 O.2   182  ALA182     -0.2867
    181  CB       -30.4120    3.1070   17.0680 C.3   182  ALA182      0.0290
    182  N        -28.3270    6.9650   13.2410 N.3   185  ILE185     -0.1245
    183  CA       -29.5460    7.2410   12.4850 C.3   185  ILE185      0.1561
    184  C        -30.3400    8.3640   13.1480 C.2   185  ILE185      0.2260
    185  O        -30.9210    9.2110   12.4700 O.2   185  ILE185     -0.2867
    186  CB       -30.4570    6.0010   12.4150 C.3   185  ILE185      0.0252
    187  CG1      -29.7600    4.8820   11.6370 C.3   185  ILE185      0.0019
    188  CG2      -31.7880    6.3710   11.7760 C.3   185  ILE185      0.0019
    189  CD1      -30.4270    3.5340   11.7790 C.3   185  ILE185      0.0001
    190  N        -43.7680   -8.5360    4.6660 N.3   211  ALA211     -0.1231
    191  CA       -42.4550   -8.1110    5.1430 C.3   211  ALA211      0.1694
    192  C        -42.6330   -7.1880    6.3380 C.2   211  ALA211      0.2591
    193  O        -41.9190   -7.2970    7.3300 O.2   211  ALA211     -0.2718
    194  CB       -41.6950   -7.3920    4.0350 C.3   211  ALA211      0.0304
    195  N        -43.5870   -6.2730    6.2320 N.am  212  LEU212     -0.1980
    196  CA       -43.8710   -5.3470    7.3150 C.3   212  LEU212      0.1596
    197  C        -45.3420   -5.4520    7.7170 C.2   212  LEU212      0.2287
    198  O        -46.2280   -4.9950    6.9970 O.2   212  LEU212     -0.2864
    199  CB       -43.5290   -3.9130    6.8980 C.3   212  LEU212      0.0297
    200  CG       -42.0420   -3.6310    6.6390 C.3   212  LEU212      0.0022
    201  CD1      -41.8630   -2.1920    6.1710 C.3   212  LEU212      0.0001
    202  CD2      -41.2340   -3.8810    7.9040 C.3   212  LEU212      0.0001
    203  N        -44.7430   -6.9010   -0.5960 N.3   237  HIS237     -0.1241
    204  CA       -43.9030   -5.7850   -0.1830 C.3   237  HIS237      0.1621
    205  C        -43.3730   -4.9740   -1.3730 C.2   237  HIS237      0.2264
    206  O        -43.4080   -3.7450   -1.3540 O.2   237  HIS237     -0.2867
    207  CB       -42.7320   -6.3000    0.6640 C.3   237  HIS237      0.0745
    208  CG       -41.9540   -5.2130    1.3370 C.ar  237  HIS237      0.0817
    209  ND1      -42.5590   -4.2110    2.0660 N.ar  237  HIS237     -0.2268
    210  CD2      -40.6240   -4.9690    1.3950 C.ar  237  HIS237      0.1154
    211  CE1      -41.6350   -3.3960    2.5430 C.ar  237  HIS237      0.1986
    212  NE2      -40.4520   -3.8340    2.1500 N.ar  237  HIS237     -0.2212
@<TRIPOS>BOND
     1    31    33   ar
     2    31    29   ar
     3    26    27    2
     4    26    25    1
     5    28    25    1
     6    28    29    1
     7    25    24    1
     8    33    32   ar
     9    29    30   ar
    10    16    15    2
    11   128   127    1
    12    32    30   ar
    13    24    15   am
    14   133   132    2
    15    15    14    1
    16   126   127    1
    17   126   123    1
    18   205   206    2
    19   205   204    1
    20   132   131    1
    21   125   124    2
    22     1     2    1
    23   127   129    1
    24   135   134    1
    25   124   123    1
    26   203   204    1
    27     4     3    2
    28   123   122    1
    29    14    17    1
    30    14    13    1
    31   134   131    1
    32   134   136    1
    33   204   207    1
    34   131   130    1
    35     7     5    1
    36    17    18    1
    37     2     3    1
    38     2     5    1
    39    11    10    2
    40     3     8   am
    41   207   208    1
    42    13    10   am
    43     5     6    1
    44   122   113   am
    45    10     9    1
    46   208   210   ar
    47   208   209   ar
    48   210   212   ar
    49    18    20   ar
    50    18    19   ar
    51     8     9    1
    52    45    46    1
    53   113   114    2
    54   113   112    1
    55     9    12    1
    56   209   211   ar
    57    20    22   ar
    58   212   211   ar
    59    19    21   ar
    60   111   112    1
    61    49    46    1
    62   112   115    1
    63    46    47    1
    64   117   119   ar
    65   117   116   ar
    66   119   121   ar
    67    22    23   ar
    68   137   138    1
    69    47    50   am
    70    47    48    2
    71    52    53    2
    72    52    51    1
    73    21    23   ar
    74   115   116    1
    75    50    51    1
    76   194   191    1
    77   116   118   ar
    78   138   141    1
    79   138   139    1
    80   143   142    1
    81    54    51    1
    82    54    55    1
    83   121   120   ar
    84   141   142    1
    85   190   191    1
    86    57    55    1
    87   106   105    2
    88    55    56    1
    89   176   175    1
    90   118   120   ar
    91   191   192    1
    92   142   144    1
    93   139   145   am
    94   139   140    2
    95    37    36    2
    96   145   146    1
    97   105   104    1
    98    58    59    1
    99   201   200    1
   100   175   174   ar
   101   175   173   ar
   102   195   192   am
   103   195   196    1
   104   192   193    2
   105   174   172   ar
   106    61    60    2
   107    36    35    1
   108   200   199    1
   109   200   202    1
   110   149   146    1
   111   149   150    1
   112   146   147    1
   113   199   196    1
   114   198   197    2
   115    42    44   ar
   116    42    40   ar
   117   104   103    1
   118   104   107    1
   119    44    43   ar
   120    60    59    1
   121    59    62    1
   122   196   197    1
   123   173   171   ar
   124   108   107    1
   125   108   110    1
   126   108   109    1
   127    93    92    1
   128    63    62    1
   129    63    64    1
   130    63    65    1
   131    40    39   ar
   132   172   170   ar
   133    35    34    1
   134    35    38    1
   135    94    92    1
   136   148   147    2
   137    43    41   ar
   138   150   151   ar
   139   150   152   ar
   140   151   153   ar
   141   147   157   am
   142    39    41   ar
   143    39    38    1
   144    92    89    1
   145   171   170   ar
   146   170   169    1
   147   153   155   ar
   148   152   154   ar
   149   157   158    1
   150    89    90    1
   151    89    88    1
   152    91    90    2
   153    90    95   am
   154   169   166    1
   155   155   154   ar
   156   155   156    1
   157   158   159    1
   158   158   161    1
   159   165   159   am
   160   165   166    1
   161    83    80    1
   162   164   162    1
   163   162   161    1
   164   162   163    1
   165    95    96    1
   166    82    81    2
   167   159   160    2
   168   166   167    1
   169    80    81    1
   170    80    79    1
   171    71    70    1
   172    81    84   am
   173    96    97    1
   174    96    99    1
   175   187   189    1
   176   187   186    1
   177   188   186    1
   178   102   100    1
   179    97    98    2
   180    84    85    1
   181   100    99    1
   182   100   101    1
   183    85    86    1
   184    87    86    2
   185   186   183    1
   186   167   168    2
   187   185   184    2
   188   183   184    1
   189   183   182    1
   190    67    70    1
   191    67    66    1
   192    67    68    1
   193    69    68    2
   194    68    72   am
   195    72    73    1
   196    75    74    2
   197    74    73    1
   198   177   178    1
   199   180   179    2
   200    73    76    1
   201   178   179    1
   202   178   181    1
   203    76    77    1
   204    76    78    1
