@<TRIPOS>MOLECULE
tmp/3stxA00.pdb
 142 133 0 0 0
SMALL
GASTEIGER

@<TRIPOS>ATOM
      1  N         15.4310  -10.1960    6.5860 N.3    11  THR11      -0.1203
      2  CA        16.3220   -9.4620    5.6720 C.3    11  THR11       0.1994
      3  C         16.8380   -8.1390    6.2730 C.2    11  THR11       0.2618
      4  O         16.6170   -7.8650    7.4550 O.2    11  THR11      -0.2717
      5  CB        15.6200   -9.1940    4.3190 C.3    11  THR11       0.1784
      6  OG1       16.5810   -8.7380    3.3570 O.3    11  THR11      -0.2211
      7  CG2       14.4990   -8.1370    4.4670 C.3    11  THR11       0.0376
      8  N         17.5100   -7.3220    5.4530 N.am   12  ALA12      -0.1965
      9  CA        18.0040   -6.0130    5.8750 C.3    12  ALA12       0.1728
     10  C         16.9010   -5.1580    6.4980 C.2    12  ALA12       0.2616
     11  O         15.8080   -5.0660    5.9420 O.2    12  ALA12      -0.2715
     12  CB        18.6240   -5.2800    4.6960 C.3    12  ALA12       0.0334
     13  N         17.2020   -4.5520    7.6530 N.am   13  PHE13      -0.1960
     14  CA        16.3020   -3.6190    8.3760 C.3    13  PHE13       0.1771
     15  C         15.2710   -4.3190    9.2460 C.2    13  PHE13       0.2619
     16  O         14.6290   -3.6900   10.0940 O.2    13  PHE13      -0.2715
     17  CB        15.5630   -2.6340    7.4420 C.3    13  PHE13       0.0574
     18  CG        16.4180   -2.0560    6.3440 C.ar   13  PHE13      -0.0200
     19  CD1       17.6300   -1.4360    6.6330 C.ar   13  PHE13      -0.0042
     20  CD2       16.0000   -2.1330    5.0170 C.ar   13  PHE13      -0.0042
     21  CE1       18.4200   -0.9190    5.6200 C.ar   13  PHE13      -0.0003
     22  CE2       16.7790   -1.6080    3.9950 C.ar   13  PHE13      -0.0003
     23  CZ        17.9950   -1.0010    4.2980 C.ar   13  PHE13      -0.0000
     24  N         15.1050   -5.6180    9.0410 N.am   14  HIS14      -0.1973
     25  CA        13.9820   -6.3140    9.6450 C.3    14  HIS14       0.1656
     26  C         14.3550   -7.0840   10.9040 C.2    14  HIS14       0.2291
     27  O         15.3870   -6.8220   11.5110 O.2    14  HIS14      -0.2864
     28  CB        13.2440   -7.1640    8.5980 C.3    14  HIS14       0.0771
     29  CG        12.4250   -6.3410    7.6500 C.ar   14  HIS14       0.0820
     30  ND1       12.9890   -5.5430    6.6760 N.ar   14  HIS14      -0.2267
     31  CD2       11.0860   -6.1570    7.5570 C.ar   14  HIS14       0.1154
     32  CE1       12.0320   -4.9140    6.0170 C.ar   14  HIS14       0.1986
     33  NE2       10.8690   -5.2630    6.5360 N.ar   14  HIS14      -0.2212
     34  N         15.3010  -15.0190    4.0880 N.3    79  HIS79      -0.1226
     35  CA        14.6410  -14.0800    3.1860 C.3    79  HIS79       0.1752
     36  C         15.5900  -12.9940    2.7070 C.2    79  HIS79       0.2596
     37  O         16.2280  -12.3240    3.5210 O.2    79  HIS79      -0.2718
     38  CB        13.4320  -13.4530    3.8760 C.3    79  HIS79       0.0759
     39  CG        12.7830  -12.3550    3.0940 C.ar   79  HIS79       0.0818
     40  ND1       12.8160  -11.0380    3.4970 N.ar   79  HIS79      -0.2268
     41  CD2       12.0800  -12.3760    1.9380 C.ar   79  HIS79       0.1154
     42  CE1       12.1580  -10.2950    2.6260 C.ar   79  HIS79       0.1986
     43  NE2       11.7030  -11.0820    1.6680 N.ar   79  HIS79      -0.2212
     44  N         15.6670  -12.8310    1.3860 N.am   80  ALA80      -0.1966
     45  CA        16.4930  -11.8030    0.7310 C.3    80  ALA80       0.1728
     46  C         17.9290  -11.7760    1.2650 C.2    80  ALA80       0.2616
     47  O         18.6550  -12.7540    1.0930 O.2    80  ALA80      -0.2715
     48  CB        15.8160  -10.4260    0.7920 C.3    80  ALA80       0.0334
     49  N         18.3310  -10.6950    1.9350 N.am   81  LEU81      -0.1977
     50  CA        19.6590  -10.6470    2.5630 C.3    81  LEU81       0.1596
     51  C         19.8500  -11.7910    3.5680 C.2    81  LEU81       0.2287
     52  O         20.9580  -12.3030    3.7250 O.2    81  LEU81      -0.2864
     53  CB        19.9250   -9.2970    3.2270 C.3    81  LEU81       0.0297
     54  CG        21.3820   -9.0310    3.6180 C.3    81  LEU81       0.0022
     55  CD1       22.1390   -8.3440    2.4700 C.3    81  LEU81       0.0001
     56  CD2       21.4250   -8.1680    4.8590 C.3    81  LEU81       0.0001
     57  N         19.4130  -14.0090   -1.2200 N.3   106  LEU106     -0.1245
     58  CA        20.7740  -13.9490   -1.7570 C.3   106  LEU106      0.1561
     59  C         21.4270  -15.3170   -1.5810 C.2   106  LEU106      0.2260
     60  O         21.6100  -15.7790   -0.4560 O.2   106  LEU106     -0.2867
     61  CB        21.5940  -12.8500   -1.0680 C.3   106  LEU106      0.0270
     62  CG        21.0460  -11.4170   -1.1430 C.3   106  LEU106      0.0019
     63  CD1       22.1180  -10.4250   -0.7360 C.3   106  LEU106      0.0001
     64  CD2       20.5130  -11.0830   -2.5430 C.3   106  LEU106      0.0001
     65  N         25.9490   -9.1870   -3.3990 N.3   118  CYS118     -0.1235
     66  CA        25.7860   -8.0520   -2.4770 C.3   118  CYS118      0.1677
     67  C         25.8820   -6.6710   -3.1250 C.2   118  CYS118      0.2270
     68  O         25.0990   -5.7760   -2.7900 O.2   118  CYS118     -0.2867
     69  CB        26.7860   -8.1460   -1.3270 C.3   118  CYS118      0.0956
     70  SG        26.3250   -9.3410   -0.0750 S.3   118  CYS118     -0.0801
     71  N         22.6090   -6.5010   -5.0400 N.3   121  ALA121     -0.1231
     72  CA        21.4630   -6.3460   -4.1420 C.3   121  ALA121      0.1694
     73  C         21.3810   -4.9190   -3.5970 C.2   121  ALA121      0.2592
     74  O         20.3040   -4.3170   -3.5690 O.2   121  ALA121     -0.2718
     75  CB        21.5230   -7.3600   -3.0090 C.3   121  ALA121      0.0304
     76  N         22.5320   -4.3780   -3.2040 N.am  122  GLY122     -0.1957
     77  CA        22.6090   -3.0350   -2.6450 C.3   122  GLY122      0.1869
     78  C         22.4640   -1.8970   -3.6380 C.2   122  GLY122      0.2309
     79  O         22.4070   -0.7370   -3.2380 O.2   122  GLY122     -0.2863
     80  N         18.8690   -0.7830   -3.6400 N.3   125  VAL125     -0.1245
     81  CA        18.5360   -0.2660   -2.3120 C.3   125  VAL125      0.1561
     82  C         19.1700    1.1030   -2.0190 C.2   125  VAL125      0.2260
     83  O         18.4800    2.0150   -1.5670 O.2   125  VAL125     -0.2867
     84  CB        18.8790   -1.2990   -1.2060 C.3   125  VAL125      0.0252
     85  CG1       18.4570   -0.7950    0.1570 C.3   125  VAL125      0.0019
     86  CG2       18.1890   -2.6280   -1.4990 C.3   125  VAL125      0.0019
     87  N         23.0050    2.1820    6.6130 N.3   146  LEU146     -0.1245
     88  CA        21.9370    2.4560    5.6550 C.3   146  LEU146      0.1561
     89  C         20.5730    2.3460    6.3300 C.2   146  LEU146      0.2260
     90  O         20.2780    1.3680    7.0200 O.2   146  LEU146     -0.2867
     91  CB        22.0280    1.4950    4.4610 C.3   146  LEU146      0.0270
     92  CG        20.8880    1.4390    3.4370 C.3   146  LEU146      0.0019
     93  CD1       20.7280    2.7580    2.6710 C.3   146  LEU146      0.0001
     94  CD2       21.1110    0.2820    2.4760 C.3   146  LEU146      0.0001
     95  N         10.3990    4.7020    0.6430 N.3   152  PHE152     -0.1241
     96  CA        11.0260    3.5440    0.0180 C.3   152  PHE152      0.1605
     97  C         10.2510    2.2740    0.3730 C.2   152  PHE152      0.2264
     98  O          9.9050    1.4930   -0.5090 O.2   152  PHE152     -0.2867
     99  CB        12.5000    3.4210    0.4260 C.3   152  PHE152      0.0534
    100  CG        13.1080    2.0630    0.1280 C.ar  152  PHE152     -0.0203
    101  CD1       13.3960    1.1720    1.1620 C.ar  152  PHE152     -0.0042
    102  CD2       13.3820    1.6760   -1.1810 C.ar  152  PHE152     -0.0042
    103  CE1       13.9540   -0.0800    0.8970 C.ar  152  PHE152     -0.0003
    104  CE2       13.9380    0.4220   -1.4580 C.ar  152  PHE152     -0.0003
    105  CZ        14.2250   -0.4550   -0.4170 C.ar  152  PHE152     -0.0000
    106  N          8.8160   -1.8160   -1.2670 N.3   157  VAL157     -0.1245
    107  CA         8.9260   -3.0340   -0.4460 C.3   157  VAL157      0.1561
    108  C          7.5730   -3.6010   -0.0130 C.2   157  VAL157      0.2260
    109  O          7.3160   -4.7970   -0.1990 O.2   157  VAL157     -0.2867
    110  CB         9.8940   -2.8230    0.7600 C.3   157  VAL157      0.0252
    111  CG1        9.7900   -3.9400    1.7740 C.3   157  VAL157      0.0019
    112  CG2       11.3250   -2.7110    0.2680 C.3   157  VAL157      0.0019
    113  N         21.0510   -0.6730    8.9420 N.3   176  LEU176     -0.1245
    114  CA        21.8640   -1.8280    8.6010 C.3   176  LEU176      0.1561
    115  C         23.2990   -1.3640    8.3650 C.2   176  LEU176      0.2260
    116  O         23.5190   -0.4230    7.5970 O.2   176  LEU176     -0.2867
    117  CB        21.3020   -2.5030    7.3480 C.3   176  LEU176      0.0270
    118  CG        22.2370   -3.4760    6.6250 C.3   176  LEU176      0.0019
    119  CD1       22.2120   -4.8590    7.2800 C.3   176  LEU176      0.0001
    120  CD2       21.8920   -3.5540    5.1500 C.3   176  LEU176      0.0001
    121  N         26.8370   -1.1870    6.7560 N.3   178  LEU178     -0.1245
    122  CA        27.3220   -1.4380    5.4150 C.3   178  LEU178      0.1561
    123  C         28.6490   -2.1860    5.4250 C.2   178  LEU178      0.2260
    124  O         29.7220   -1.5890    5.2780 O.2   178  LEU178     -0.2867
    125  CB        27.4080   -0.1360    4.6260 C.3   178  LEU178      0.0270
    126  CG        26.0230    0.4240    4.3180 C.3   178  LEU178      0.0019
    127  CD1       26.1390    1.7920    3.6860 C.3   178  LEU178      0.0001
    128  CD2       25.2340   -0.5500    3.4210 C.3   178  LEU178      0.0001
    129  N         14.8590   -7.2990  -10.9160 N.3   212  LYS212     -0.1245
    130  CA        15.0120   -8.1190   -9.7280 C.3   212  LYS212      0.1561
    131  C         14.8240   -9.5840  -10.0860 C.2   212  LYS212      0.2260
    132  O         15.6220  -10.4220   -9.6800 O.2   212  LYS212     -0.2867
    133  CB        14.0460   -7.7010   -8.6210 C.3   212  LYS212      0.0271
    134  CG        14.4200   -8.2480   -7.2530 C.3   212  LYS212      0.0035
    135  CD        13.7100   -7.4990   -6.1360 C.3   212  LYS212      0.0206
    136  CE        14.3940   -7.7380   -4.8040 C.3   212  LYS212      0.1093
    137  NZ        13.5370   -7.2930   -3.6710 N.3   212  LYS212     -0.1314
    138  N          8.1460   -7.3530   -2.0240 N.3   236  ALA236     -0.1245
    139  CA         9.4580   -7.7050   -1.4800 C.3   236  ALA236      0.1562
    140  C          9.4190   -8.2780   -0.0470 C.2   236  ALA236      0.2260
    141  O         10.4570   -8.6520    0.4900 O.2   236  ALA236     -0.2867
    142  CB        10.4060   -6.5010   -1.5620 C.3   236  ALA236      0.0290
@<TRIPOS>BOND
     1   129   130    1
     2   131   130    1
     3   131   132    2
     4   130   133    1
     5   133   134    1
     6   134   135    1
     7   135   136    1
     8    71    72    1
     9   136   137    1
    10    72    73    1
    11    72    75    1
    12    80    81    1
    13    78    79    2
    14    78    77    1
    15    73    74    2
    16    73    76   am
    17    65    66    1
    18    76    77    1
    19    67    68    2
    20    67    66    1
    21    64    62    1
    22    66    69    1
    23    81    82    1
    24    81    84    1
    25   138   139    1
    26    82    83    2
    27    58    59    1
    28    58    57    1
    29    58    61    1
    30    59    60    2
    31   142   139    1
    32    86    84    1
    33   139   140    1
    34   104   102   ar
    35   104   105   ar
    36    69    70    1
    37   106   107    1
    38    84    85    1
    39   102   100   ar
    40    62    61    1
    41    62    63    1
    42    98    97    2
    43   107   108    1
    44   107   110    1
    45   105   103   ar
    46   109   108    2
    47   140   141    2
    48    96    97    1
    49    96    99    1
    50    96    95    1
    51   100    99    1
    52   100   101   ar
    53   112   110    1
    54    45    48    1
    55    45    46    1
    56    45    44    1
    57   110   111    1
    58   103   101   ar
    59    47    46    2
    60    46    49   am
    61    44    36   am
    62    43    41   ar
    63    43    42   ar
    64    49    50    1
    65    41    39   ar
    66    55    54    1
    67    94    92    1
    68    50    53    1
    69    50    51    1
    70    42    40   ar
    71    93    92    1
    72    36    35    1
    73    36    37    2
    74    39    40   ar
    75    39    38    1
    76    35    38    1
    77    35    34    1
    78    53    54    1
    79     6     5    1
    80   128   126    1
    81    92    91    1
    82    51    52    2
    83    54    56    1
    84   127   126    1
    85    22    23   ar
    86    22    20   ar
    87    23    21   ar
    88   126   125    1
    89     5     7    1
    90     5     2    1
    91    91    88    1
    92   125   122    1
    93    12     9    1
    94    20    18   ar
    95   120   118    1
    96   124   123    2
    97   122   123    1
    98   122   121    1
    99     8     9    1
   100     8     3   am
   101    21    19   ar
   102    88    89    1
   103    88    87    1
   104     2     3    1
   105     2     1    1
   106     9    10    1
   107    11    10    2
   108    32    33   ar
   109    32    30   ar
   110     3     4    2
   111    89    90    2
   112    18    19   ar
   113    18    17    1
   114    10    13   am
   115    33    31   ar
   116   118   119    1
   117   118   117    1
   118    30    29   ar
   119   117   114    1
   120    17    14    1
   121    31    29   ar
   122   116   115    2
   123    29    28    1
   124    13    14    1
   125   115   114    1
   126    14    15    1
   127    28    25    1
   128   114   113    1
   129    24    15   am
   130    24    25    1
   131    15    16    2
   132    25    26    1
   133    26    27    2
