@<TRIPOS>MOLECULE
tmp/3su4A00.pdb
 188 183 0 0 0
SMALL
GASTEIGER

@<TRIPOS>ATOM
      1  N         37.8070    7.9670   -5.4140 N.3    52  GLN52      -0.1231
      2  CA        37.0520    7.0110   -4.6140 C.3    52  GLN52       0.1698
      3  C         35.6180    7.4460   -4.4350 C.2    52  GLN52       0.2593
      4  O         35.3110    8.6340   -4.4600 O.2    52  GLN52      -0.2718
      5  CB        37.6820    6.8540   -3.2330 C.3    52  GLN52       0.0381
      6  CG        39.1110    6.3790   -3.2410 C.3    52  GLN52       0.0905
      7  CD        39.6050    6.0650   -1.8430 C.2    52  GLN52       0.2608
      8  OE1       39.7950    4.9030   -1.4950 O.2    52  GLN52      -0.2717
      9  NE2       39.7860    7.0980   -1.0220 N.am   52  GLN52      -0.0878
     10  N         34.7410    6.4670   -4.2480 N.am   53  THR53      -0.1939
     11  CA        33.3490    6.7430   -3.9810 C.3    53  THR53       0.2028
     12  C         32.9000    5.8850   -2.7960 C.2    53  THR53       0.2642
     13  O         33.3570    4.7550   -2.6080 O.2    53  THR53      -0.2714
     14  CB        32.4810    6.5350   -5.2360 C.3    53  THR53       0.1808
     15  OG1       31.1030    6.8150   -4.9310 O.3    53  THR53      -0.2208
     16  CG2       32.6230    5.1050   -5.7480 C.3    53  THR53       0.0379
     17  N         32.0350    6.4650   -1.9790 N.am   54  PHE54      -0.1973
     18  CA        31.6530    5.8900   -0.6920 C.3    54  PHE54       0.1639
     19  C         30.3940    6.5940   -0.1910 C.2    54  PHE54       0.2290
     20  O         29.6920    7.2280   -0.9890 O.2    54  PHE54      -0.2864
     21  CB        32.8190    5.9610    0.3100 C.3    54  PHE54       0.0560
     22  CG        33.4780    7.3190    0.4160 C.ar   54  PHE54      -0.0200
     23  CD1       34.3660    7.7600   -0.5570 C.ar   54  PHE54      -0.0042
     24  CD2       33.2440    8.1290    1.5020 C.ar   54  PHE54      -0.0042
     25  CE1       34.9870    9.0170   -0.4640 C.ar   54  PHE54      -0.0003
     26  CE2       33.8720    9.3720    1.6180 C.ar   54  PHE54      -0.0003
     27  CZ        34.7420    9.8170    0.6260 C.ar   54  PHE54      -0.0000
     28  N         34.0210    8.4270    6.5020 N.3    66  VAL66      -0.1231
     29  CA        35.3040    7.8800    6.9070 C.3    66  VAL66       0.1692
     30  C         36.4740    8.7060    6.4180 C.2    66  VAL66       0.2592
     31  O         36.4970    9.2200    5.2960 O.2    66  VAL66      -0.2718
     32  CB        35.5190    6.4070    6.4390 C.3    66  VAL66       0.0266
     33  CG1       34.7430    5.4440    7.3450 C.3    66  VAL66       0.0020
     34  CG2       35.1520    6.2340    4.9560 C.3    66  VAL66       0.0020
     35  N         37.4590    8.8130    7.2920 N.am   67  TYR67      -0.1962
     36  CA        38.6710    9.5230    7.0000 C.3    67  TYR67       0.1771
     37  C         39.3990    8.9020    5.8020 C.2    67  TYR67       0.2620
     38  O         39.9230    9.6090    4.9490 O.2    67  TYR67      -0.2715
     39  CB        39.5590    9.5020    8.2320 C.3    67  TYR67       0.0574
     40  CG        40.9530    9.9520    7.9580 C.ar   67  TYR67      -0.0198
     41  CD1       41.2220   11.2760    7.6100 C.ar   67  TYR67      -0.0009
     42  CD2       42.0110    9.0600    8.0260 C.ar   67  TYR67      -0.0009
     43  CE1       42.5290   11.6910    7.3490 C.ar   67  TYR67       0.0417
     44  CE2       43.2990    9.4590    7.7760 C.ar   67  TYR67       0.0417
     45  CZ        43.5520   10.7680    7.4500 C.ar   67  TYR67       0.1957
     46  OH        44.8380   11.1160    7.1970 O.3    67  TYR67      -0.2866
     47  N         39.4090    7.5820    5.7260 N.am   68  HIS68      -0.1959
     48  CA        40.1180    6.9090    4.6500 C.3    68  HIS68       0.1787
     49  C         39.4690    7.1580    3.2840 C.2    68  HIS68       0.2620
     50  O         40.0880    6.8860    2.2600 O.2    68  HIS68      -0.2715
     51  CB        40.3030    5.4080    4.9370 C.3    68  HIS68       0.0785
     52  CG        39.0810    4.5670    4.7270 C.ar   68  HIS68       0.0821
     53  ND1       38.2760    4.1580    5.7640 N.ar   68  HIS68      -0.2267
     54  CD2       38.5780    3.9860    3.6100 C.ar   68  HIS68       0.1154
     55  CE1       37.3130    3.3860    5.2950 C.ar   68  HIS68       0.1986
     56  NE2       37.4700    3.2700    3.9890 N.ar   68  HIS68      -0.2212
     57  N         38.2360    7.6590    3.2710 N.am   69  GLY69      -0.1954
     58  CA        37.6120    8.1040    2.0370 C.3    69  GLY69       0.1869
     59  C         37.8120    9.5880    1.7740 C.2    69  GLY69       0.2309
     60  O         38.2140    9.9740    0.6840 O.2    69  GLY69      -0.2863
     61  N         41.4290   11.0000   13.0860 N.3    89  VAL89      -0.1231
     62  CA        42.0370    9.9430   12.2920 C.3    89  VAL89       0.1692
     63  C         42.0830    8.6230   13.0630 C.2    89  VAL89       0.2592
     64  O         41.9690    7.5670   12.4570 O.2    89  VAL89      -0.2718
     65  CB        43.4380   10.3290   11.7350 C.3    89  VAL89       0.0266
     66  CG1       43.3270   11.5800   10.8530 C.3    89  VAL89       0.0020
     67  CG2       44.4500   10.5200   12.8430 C.3    89  VAL89       0.0020
     68  N         42.1970    8.6880   14.3890 N.am   90  ASP90      -0.1960
     69  CA        42.2270    7.4760   15.2230 C.3    90  ASP90       0.1840
     70  C         40.9210    6.7120   15.1870 C.2    90  ASP90       0.2622
     71  O         40.9110    5.4950   15.3450 O.2    90  ASP90      -0.2715
     72  CB        42.5770    7.8070   16.6770 C.3    90  ASP90       0.1450
     73  CG        43.9910    8.3050   16.8280 C.2    90  ASP90       0.3671
     74  OD1       44.9010    7.6460   16.2950 O.co2  90  ASP90      -0.2456
     75  OD2       44.1930    9.3520   17.4860 O.co2  90  ASP90      -0.2456
     76  N         39.8260    7.4260   14.9800 N.am   91  LYS91      -0.1963
     77  CA        38.5280    6.7920   14.8100 C.3    91  LYS91       0.1728
     78  C         38.1610    6.5120   13.3440 C.2    91  LYS91       0.2616
     79  O         37.1060    5.9470   13.0790 O.2    91  LYS91      -0.2715
     80  CB        37.4600    7.6570   15.4540 C.3    91  LYS91       0.0311
     81  CG        37.6020    7.7860   16.9540 C.3    91  LYS91       0.0038
     82  CD        36.5490    8.7600   17.4840 C.3    91  LYS91       0.0206
     83  CE        36.5340    8.8490   18.9930 C.3    91  LYS91       0.1093
     84  NZ        35.3360    9.6040   19.4680 N.3    91  LYS91      -0.1314
     85  N         39.0310    6.8790   12.4080 N.am   92  ASP92      -0.1971
     86  CA        38.7360    6.8200   10.9630 C.3    92  ASP92       0.1709
     87  C         37.4890    7.6450   10.6350 C.2    92  ASP92       0.2293
     88  O         36.6790    7.2570    9.7810 O.2    92  ASP92      -0.2864
     89  CB        38.5780    5.3630   10.4770 C.3    92  ASP92       0.1436
     90  CG        38.6390    5.2300    8.9480 C.2    92  ASP92       0.3671
     91  OD1       39.1200    6.1650    8.2690 O.co2  92  ASP92      -0.2456
     92  OD2       38.2050    4.1770    8.4270 O.co2  92  ASP92      -0.2456
     93  N         31.8990   -3.5620   16.8750 N.3   134  ARG134     -0.1245
     94  CA        31.9080   -4.7620   16.0390 C.3   134  ARG134      0.1563
     95  C         30.5510   -5.4190   15.9220 C.2   134  ARG134      0.2260
     96  O         29.7720   -5.4410   16.8710 O.2   134  ARG134     -0.2867
     97  CB        32.8360   -5.8160   16.6170 C.3   134  ARG134      0.0307
     98  CG        34.2610   -5.6050   16.3180 C.3   134  ARG134      0.0489
     99  CD        34.6100   -5.9480   14.8800 C.3   134  ARG134      0.2205
    100  NE        35.9760   -5.5060   14.6480 N.pl3 134  ARG134     -0.0865
    101  CZ        37.0570   -6.1430   15.0800 C.cat 134  ARG134      0.5346
    102  NH1       36.9660   -7.2970   15.7330 N.pl3 134  ARG134      0.1354
    103  NH2       38.2440   -5.6210   14.8410 N.pl3 134  ARG134      0.1354
    104  N         33.7090   -9.1430    0.0980 N.3   143  ILE143     -0.1245
    105  CA        34.2610   -7.8040    0.2890 C.3   143  ILE143      0.1561
    106  C         33.8910   -6.8670   -0.8650 C.2   143  ILE143      0.2260
    107  O         33.5570   -5.7130   -0.6340 O.2   143  ILE143     -0.2867
    108  CB        35.7970   -7.8620    0.4830 C.3   143  ILE143      0.0252
    109  CG1       36.1120   -8.3020    1.9040 C.3   143  ILE143      0.0019
    110  CG2       36.4520   -6.5010    0.2470 C.3   143  ILE143      0.0019
    111  CD1       35.8320   -7.2190    2.9130 C.3   143  ILE143      0.0001
    112  N         30.5860   -5.1070   -0.4200 N.3   146  LEU146     -0.1231
    113  CA        30.4990   -4.0420    0.5830 C.3   146  LEU146      0.1693
    114  C         31.3720   -2.8410    0.2400 C.2   146  LEU146      0.2592
    115  O         31.2180   -1.7710    0.8340 O.2   146  LEU146     -0.2718
    116  CB        30.9160   -4.5740    1.9470 C.3   146  LEU146      0.0284
    117  CG        30.0660   -5.6730    2.5740 C.3   146  LEU146      0.0019
    118  CD1       30.7760   -6.1930    3.8430 C.3   146  LEU146      0.0001
    119  CD2       28.6560   -5.1610    2.8920 C.3   146  LEU146      0.0001
    120  N         32.2950   -3.0290   -0.6980 N.am  147  LYS147     -0.1966
    121  CA        33.2090   -1.9900   -1.1150 C.3   147  LYS147      0.1728
    122  C         32.4570   -0.7360   -1.5740 C.2   147  LYS147      0.2616
    123  O         31.4930   -0.8210   -2.3260 O.2   147  LYS147     -0.2715
    124  CB        34.0980   -2.5030   -2.2460 C.3   147  LYS147      0.0311
    125  CG        35.2610   -1.5730   -2.5770 C.3   147  LYS147      0.0038
    126  CD        36.1240   -2.1850   -3.6620 C.3   147  LYS147      0.0206
    127  CE        37.3720   -1.3830   -3.9270 C.3   147  LYS147      0.1093
    128  NZ        37.1340   -0.3340   -4.9480 N.3   147  LYS147     -0.1314
    129  N         32.9110    0.4210   -1.1030 N.am  148  GLY148     -0.1955
    130  CA        32.2580    1.6930   -1.3870 C.3   148  GLY148      0.1869
    131  C         31.1020    2.0200   -0.4580 C.2   148  GLY148      0.2309
    132  O         30.3760    2.9960   -0.6830 O.2   148  GLY148     -0.2863
    133  N         31.6290    2.2230    3.0070 N.3   150  ALA150     -0.1245
    134  CA        32.1650    2.8840    4.1890 C.3   150  ALA150      0.1562
    135  C         31.5430    4.2730    4.3080 C.2   150  ALA150      0.2260
    136  O         31.3570    4.9720    3.3080 O.2   150  ALA150     -0.2867
    137  CB        33.6830    2.9700    4.1170 C.3   150  ALA150      0.0290
    138  N         29.6680    2.6370    9.4310 N.3   165  PHE165     -0.1227
    139  CA        30.4720    1.5400    8.8840 C.3   165  PHE165      0.1736
    140  C         31.8450    2.0450    8.4550 C.2   165  PHE165      0.2595
    141  O         31.9600    3.0080    7.6920 O.2   165  PHE165     -0.2718
    142  CB        29.7000    0.9760    7.6890 C.3   165  PHE165      0.0547
    143  CG        30.3460   -0.1980    6.9830 C.ar  165  PHE165     -0.0202
    144  CD1       31.0410   -1.1810    7.6670 C.ar  165  PHE165     -0.0042
    145  CD2       30.1890   -0.3340    5.6040 C.ar  165  PHE165     -0.0042
    146  CE1       31.5940   -2.2720    6.9800 C.ar  165  PHE165     -0.0003
    147  CE2       30.7330   -1.4020    4.9190 C.ar  165  PHE165     -0.0003
    148  CZ        31.4370   -2.3810    5.6130 C.ar  165  PHE165     -0.0000
    149  N         32.8990    1.4140    8.9390 N.am  166  LYS166     -0.1966
    150  CA        34.2350    1.8540    8.5430 C.3   166  LYS166      0.1728
    151  C         35.1360    0.8040    7.9350 C.2   166  LYS166      0.2616
    152  O         35.9320    1.1440    7.0770 O.2   166  LYS166     -0.2715
    153  CB        34.9410    2.5630    9.6970 C.3   166  LYS166      0.0311
    154  CG        35.5680    1.7160   10.7450 C.3   166  LYS166      0.0038
    155  CD        36.2860    2.6120   11.7720 C.3   166  LYS166      0.0206
    156  CE        36.3930    1.9340   13.1120 C.3   166  LYS166      0.1093
    157  NZ        36.6240    2.8670   14.2380 N.3   166  LYS166     -0.1314
    158  N         35.0150   -0.4560    8.3600 N.am  167  ALA167     -0.1963
    159  CA        35.9190   -1.5280    7.8960 C.3   167  ALA167      0.1728
    160  C         35.2920   -2.9050    8.0450 C.2   167  ALA167      0.2616
    161  O         34.3700   -3.1040    8.8360 O.2   167  ALA167     -0.2715
    162  CB        37.2270   -1.4890    8.6690 C.3   167  ALA167      0.0334
    163  N         35.8130   -3.8560    7.2830 N.am  168  ALA168     -0.1963
    164  CA        35.3090   -5.2100    7.2920 C.3   168  ALA168      0.1728
    165  C         36.4460   -6.1920    7.5850 C.2   168  ALA168      0.2616
    166  O         37.5480   -6.0370    7.0810 O.2   168  ALA168     -0.2715
    167  CB        34.6770   -5.5240    5.9500 C.3   168  ALA168      0.0334
    168  N         36.1790   -7.1970    8.4080 N.am  169  VAL169     -0.1963
    169  CA        37.1560   -8.2620    8.6440 C.3   169  VAL169      0.1727
    170  C         37.0540   -9.2430    7.4700 C.2   169  VAL169      0.2616
    171  O         36.0690   -9.9710    7.3530 O.2   169  VAL169     -0.2715
    172  CB        36.8990   -8.9980    9.9790 C.3   169  VAL169      0.0290
    173  CG1       37.9130  -10.1560   10.1720 C.3   169  VAL169      0.0023
    174  CG2       36.9540   -8.0180   11.1510 C.3   169  VAL169      0.0023
    175  N         38.0650   -9.2310    6.5980 N.am  170  SER170     -0.1950
    176  CA        38.0680  -10.0450    5.3850 C.3   170  SER170      0.1924
    177  C         38.8340  -11.3450    5.6000 C.2   170  SER170      0.2314
    178  O         39.9700  -11.3270    6.0440 O.2   170  SER170     -0.2863
    179  CB        38.6980   -9.2780    4.2190 C.3   170  SER170      0.2116
    180  OG        38.7510  -10.0770    3.0430 O.3   170  SER170     -0.2180
    181  N         33.1360   -3.4980   11.2250 N.3   179  ASP179     -0.1239
    182  CA        33.5880   -2.5970   12.2670 C.3   179  ASP179      0.1674
    183  C         32.9460   -1.2400   12.0150 C.2   179  ASP179      0.2266
    184  O         32.7920   -0.8510   10.8700 O.2   179  ASP179     -0.2867
    185  CB        35.1090   -2.5200   12.2010 C.3   179  ASP179      0.1410
    186  CG        35.7280   -2.1620   13.5050 C.2   179  ASP179      0.3668
    187  OD1       36.1920   -3.0740   14.2260 O.co2 179  ASP179     -0.2456
    188  OD2       35.7660   -0.9510   13.8060 O.co2 179  ASP179     -0.2456
@<TRIPOS>BOND
     1    16    14    1
     2     1     2    1
     3    14    15    1
     4    14    11    1
     5   128   127    1
     6     2     3    1
     7     2     5    1
     8     4     3    2
     9     3    10   am
    10    10    11    1
    11    11    12    1
    12   127   126    1
    13   126   125    1
    14     6     5    1
    15     6     7    1
    16    12    13    2
    17    12    17   am
    18   125   124    1
    19   123   122    2
    20   124   121    1
    21    17    18    1
    22     7     8    2
    23     7     9   am
    24   122   121    1
    25   122   129   am
    26   130   129    1
    27   130   131    1
    28   121   120    1
    29    20    19    2
    30   106   107    2
    31   106   105    1
    32   120   114   am
    33    18    19    1
    34    18    21    1
    35   132   131    2
    36    23    25   ar
    37    23    22   ar
    38    25    27   ar
    39   112   113    1
    40   104   105    1
    41   114   113    1
    42   114   115    2
    43   110   108    1
    44   105   108    1
    45    21    22    1
    46    22    24   ar
    47   108   109    1
    48   113   116    1
    49    27    26   ar
    50    60    59    2
    51    24    26   ar
    52    59    58    1
    53   109   111    1
    54   116   117    1
    55    58    57    1
    56    50    49    2
    57   117   119    1
    58   117   118    1
    59   133   134    1
    60   180   179    1
    61    57    49   am
    62    49    48    1
    63   136   135    2
    64    54    56   ar
    65    54    52   ar
    66    56    55   ar
    67   137   134    1
    68   134   135    1
    69   179   176    1
    70    48    51    1
    71    48    47    1
    72    52    51    1
    73    52    53   ar
    74   147   145   ar
    75   147   148   ar
    76    38    37    2
    77    34    32    1
    78    55    53   ar
    79    31    30    2
    80   176   177    1
    81   176   175    1
    82   177   178    2
    83   145   143   ar
    84   148   146   ar
    85    47    37   am
    86    37    36    1
    87   167   164    1
    88    30    29    1
    89    30    35   am
    90    32    29    1
    91    32    33    1
    92    28    29    1
    93   175   170   am
    94   146   144   ar
    95   143   144   ar
    96   143   142    1
    97    36    35    1
    98    36    39    1
    99   152   151    2
   100   166   165    2
   101    46    45    1
   102   163   164    1
   103   163   160   am
   104   164   165    1
   105    43    45   ar
   106    43    41   ar
   107   171   170    2
   108    45    44   ar
   109   170   169    1
   110   165   168   am
   111    41    40   ar
   112   142   139    1
   113   141   140    2
   114    44    42   ar
   115   159   160    1
   116   159   158    1
   117   159   162    1
   118   151   158   am
   119   151   150    1
   120    40    42   ar
   121    40    39    1
   122   160   161    2
   123    91    90   ar
   124   168   169    1
   125    92    90   ar
   126   140   139    1
   127   140   149   am
   128   150   149    1
   129   150   153    1
   130   169   172    1
   131   139   138    1
   132    90    89    1
   133   153   154    1
   134    88    87    2
   135   172   173    1
   136   172   174    1
   137    89    86    1
   138    87    86    1
   139   154   155    1
   140    66    65    1
   141   184   183    2
   142    86    85    1
   143   181   182    1
   144    65    62    1
   145    65    67    1
   146   155   156    1
   147   183   182    1
   148   185   182    1
   149   185   186    1
   150    62    63    1
   151    62    61    1
   152    85    78   am
   153    64    63    2
   154    63    68   am
   155    79    78    2
   156   156   157    1
   157    78    77    1
   158   186   188   ar
   159   186   187   ar
   160    68    69    1
   161   100    99    1
   162   100   101    2
   163    77    76    1
   164    77    80    1
   165   103   101    1
   166    99    98    1
   167    76    70   am
   168   101   102    1
   169    70    69    1
   170    70    71    2
   171    69    72    1
   172    80    81    1
   173    95    94    1
   174    95    96    2
   175    94    97    1
   176    94    93    1
   177    74    73   ar
   178    98    97    1
   179    72    73    1
   180    73    75   ar
   181    81    82    1
   182    82    83    1
   183    83    84    1
