@<TRIPOS>MOLECULE
tmp/3suaC00.pdb
 167 162 0 0 0
SMALL
GASTEIGER

@<TRIPOS>ATOM
      1  N        -48.5160   16.1020  -24.0000 N.3    13  ALA13      -0.1231
      2  CA       -48.2580   16.7190  -22.6900 C.3    13  ALA13       0.1694
      3  C        -48.4630   15.8290  -21.4280 C.2    13  ALA13       0.2592
      4  O        -48.8960   16.3240  -20.3780 O.2    13  ALA13      -0.2718
      5  CB       -48.9570   18.0740  -22.5670 C.3    13  ALA13       0.0304
      6  N        -48.0990   14.5250  -21.5180 N.am   14  VAL14      -0.1966
      7  CA       -48.1730   13.6250  -20.3580 C.3    14  VAL14       0.1727
      8  C        -47.0570   13.9490  -19.3620 C.2    14  VAL14       0.2617
      9  O        -47.2160   13.6770  -18.1690 O.2    14  VAL14      -0.2715
     10  CB       -48.2700   12.1070  -20.6630 C.3    14  VAL14       0.0290
     11  CG1      -49.5620   11.7710  -21.3820 C.3    14  VAL14       0.0023
     12  CG2      -47.0590   11.5990  -21.4290 C.3    14  VAL14       0.0023
     13  N        -45.9680   14.5480  -19.8650 N.am   15  GLY15      -0.1940
     14  CA       -44.8170   14.9730  -19.0730 C.3    15  GLY15       0.2014
     15  C        -43.5460   14.1790  -19.2930 C.2    15  GLY15       0.2639
     16  O        -42.7210   14.0980  -18.3780 O.2    15  GLY15      -0.2714
     17  N        -43.3820   13.5970  -20.5170 N.am   16  LYS16      -0.1963
     18  CA       -42.2360   12.7700  -20.9360 C.3    16  LYS16       0.1728
     19  C        -40.9450   13.5830  -20.9430 C.2    16  LYS16       0.2617
     20  O        -40.0150   13.2660  -20.2030 O.2    16  LYS16      -0.2715
     21  CB       -42.4350   12.1950  -22.3500 C.3    16  LYS16       0.0311
     22  CG       -43.6440   11.3280  -22.5790 C.3    16  LYS16       0.0038
     23  CD       -43.6160   10.7570  -23.9850 C.3    16  LYS16       0.0206
     24  CE       -43.7180   11.7430  -25.1280 C.3    16  LYS16       0.1093
     25  NZ       -44.9140   12.6100  -25.0420 N.3    16  LYS16      -0.1314
     26  N        -40.8900   14.6150  -21.8120 N.am   17  THR17      -0.1937
     27  CA       -39.7770   15.5450  -21.9960 C.3    17  THR17       0.2028
     28  C        -39.3140   15.9540  -20.5940 C.2    17  THR17       0.2642
     29  O        -38.1560   15.7330  -20.2500 O.2    17  THR17      -0.2714
     30  CB       -40.2500   16.7290  -22.8940 C.3    17  THR17       0.1808
     31  OG1      -40.9330   16.2230  -24.0380 O.3    17  THR17      -0.2208
     32  CG2      -39.1280   17.6190  -23.3730 C.3    17  THR17       0.0379
     33  N        -40.2690   16.4030  -19.7530 N.am   18  CYS18      -0.1967
     34  CA       -40.0670   16.8220  -18.3700 C.3    18  CYS18       0.1712
     35  C        -39.4370   15.7410  -17.5090 C.2    18  CYS18       0.2296
     36  O        -38.4380   16.0160  -16.8500 O.2    18  CYS18      -0.2864
     37  CB       -41.3680   17.3410  -17.7670 C.3    18  CYS18       0.0983
     38  SG       -41.9180   18.9340  -18.4440 S.3    18  CYS18      -0.0798
     39  N        -36.2520   20.7850  -13.6760 N.3    28  PHE28      -0.1241
     40  CA       -37.5110   20.7030  -14.4130 C.3    28  PHE28       0.1605
     41  C        -37.5890   21.7810  -15.5150 C.2    28  PHE28       0.2264
     42  O        -37.1740   22.9100  -15.2550 O.2    28  PHE28      -0.2867
     43  CB       -38.6800   20.8370  -13.4190 C.3    28  PHE28       0.0534
     44  CG       -40.0550   20.6190  -14.0020 C.ar   28  PHE28      -0.0203
     45  CD1      -40.8290   21.6960  -14.4200 C.ar   28  PHE28      -0.0042
     46  CD2      -40.5820   19.3400  -14.1240 C.ar   28  PHE28      -0.0042
     47  CE1      -42.1000   21.4970  -14.9580 C.ar   28  PHE28      -0.0003
     48  CE2      -41.8570   19.1430  -14.6550 C.ar   28  PHE28      -0.0003
     49  CZ       -42.6050   20.2230  -15.0710 C.ar   28  PHE28      -0.0000
     50  N        -40.2260   23.6260  -17.1360 N.3    30  GLY30      -0.1210
     51  CA       -41.1220   24.7320  -16.8420 C.3    30  GLY30       0.1956
     52  C        -42.0000   24.9760  -18.0430 C.2    30  GLY30       0.2612
     53  O        -43.1350   24.5040  -18.0830 O.2    30  GLY30      -0.2717
     54  N        -41.4430   25.6400  -19.0580 N.am   31  GLU31      -0.1965
     55  CA       -42.1030   25.9860  -20.3160 C.3    31  GLU31       0.1733
     56  C        -42.4980   24.7600  -21.1680 C.2    31  GLU31       0.2616
     57  O        -41.6920   23.8270  -21.3170 O.2    31  GLU31      -0.2715
     58  CB       -41.1710   26.8890  -21.1280 C.3    31  GLU31       0.0429
     59  CG       -41.8810   27.9590  -21.9280 C.3    31  GLU31       0.1163
     60  CD       -40.9100   28.9010  -22.6070 C.2    31  GLU31       0.3649
     61  OE1      -40.4320   29.8490  -21.9430 O.co2  31  GLU31      -0.2457
     62  OE2      -40.5900   28.6640  -23.7940 O.co2  31  GLU31      -0.2457
     63  N        -43.7370   24.7610  -21.7260 N.am   32  TYR32      -0.1960
     64  CA       -44.1520   23.6800  -22.6270 C.3    32  TYR32       0.1771
     65  C        -43.9120   24.0750  -24.0510 C.2    32  TYR32       0.2619
     66  O        -44.3440   25.1290  -24.5340 O.2    32  TYR32      -0.2715
     67  CB       -45.5900   23.1220  -22.4350 C.3    32  TYR32       0.0574
     68  CG       -45.9490   21.9790  -23.3870 C.ar   32  TYR32      -0.0198
     69  CD1      -45.6470   20.6560  -23.0710 C.ar   32  TYR32      -0.0009
     70  CD2      -46.5960   22.2260  -24.5980 C.ar   32  TYR32      -0.0009
     71  CE1      -45.9750   19.6110  -23.9360 C.ar   32  TYR32       0.0417
     72  CE2      -46.9220   21.1870  -25.4730 C.ar   32  TYR32       0.0417
     73  CZ       -46.6130   19.8810  -25.1350 C.ar   32  TYR32       0.1957
     74  OH       -46.9300   18.8590  -25.9930 O.3    32  TYR32      -0.2866
     75  N        -43.2390   23.1690  -24.7160 N.am   33  ILE33      -0.1964
     76  CA       -42.8950   23.2190  -26.1070 C.3    33  ILE33       0.1712
     77  C        -43.1030   21.7930  -26.6110 C.2    33  ILE33       0.2458
     78  O        -42.6600   20.8370  -25.9510 O.2    33  ILE33      -0.2730
     79  CB       -41.4590   23.7650  -26.2840 C.3    33  ILE33       0.0289
     80  CG1      -41.1500   24.0890  -27.7520 C.3    33  ILE33       0.0022
     81  CG2      -40.3640   22.9110  -25.5890 C.3    33  ILE33       0.0023
     82  CD1      -41.9740   25.2220  -28.2900 C.3    33  ILE33       0.0001
     83  N        -43.8800   21.6170  -27.6970 N.am   34  PRO34      -0.2716
     84  CA       -44.1560   20.2550  -28.1740 C.3    34  PRO34       0.1536
     85  C        -42.9280   19.6480  -28.8240 C.2    34  PRO34       0.2599
     86  O        -42.4380   20.1680  -29.8290 O.2    34  PRO34      -0.2715
     87  CB       -45.3040   20.4550  -29.1530 C.3    34  PRO34       0.0310
     88  CG       -45.0670   21.8390  -29.7050 C.3    34  PRO34       0.0237
     89  CD       -44.5120   22.6370  -28.5610 C.3    34  PRO34       0.0939
     90  N        -42.4020   18.5830  -28.2080 N.am   35  THR35      -0.1951
     91  CA       -41.1930   17.9290  -28.6980 C.3    35  THR35       0.1897
     92  C        -41.3680   17.1720  -29.9970 C.2    35  THR35       0.2313
     93  O        -42.4010   16.5260  -30.2220 O.2    35  THR35      -0.2863
     94  CB       -40.3810   17.2220  -27.6060 C.3    35  THR35       0.1794
     95  OG1      -41.1850   16.2260  -26.9660 O.3    35  THR35      -0.2208
     96  CG2      -39.8160   18.1990  -26.5730 C.3    35  THR35       0.0378
     97  N        -40.1920   11.5710  -27.9730 N.3    58  THR58      -0.1218
     98  CA       -41.0710   11.4590  -29.1400 C.3    58  THR58       0.1862
     99  C        -42.2000   12.4860  -28.9800 C.2    58  THR58       0.2287
    100  O        -42.2780   13.1770  -27.9520 O.2    58  THR58      -0.2866
    101  CB       -41.6090   10.0030  -29.3360 C.3    58  THR58       0.1770
    102  OG1      -42.4170    9.6080  -28.2230 O.3    58  THR58      -0.2211
    103  CG2      -40.5100    8.9690  -29.6370 C.3    58  THR58       0.0375
    104  N        -46.4250   13.5290  -28.9520 N.3    60  GLY60      -0.1210
    105  CA       -47.7200   13.0620  -28.4710 C.3    60  GLY60       0.1956
    106  C        -48.8400   13.6650  -29.2970 C.2    60  GLY60       0.2611
    107  O        -50.0010   13.6750  -28.8750 O.2    60  GLY60      -0.2717
    108  N        -48.4750   14.1600  -30.5010 N.am   61  GLN61      -0.1979
    109  CA       -49.3410   14.8330  -31.4690 C.3    61  GLN61       0.1601
    110  C        -49.5090   13.9930  -32.7270 C.2    61  GLN61       0.2287
    111  O        -48.5600   13.3420  -33.1700 O.2    61  GLN61      -0.2864
    112  CB       -48.7520   16.2040  -31.8540 C.3    61  GLN61       0.0394
    113  CG       -48.3980   17.1310  -30.6730 C.3    61  GLN61       0.0908
    114  CD       -47.0330   16.8740  -30.0440 C.2    61  GLN61       0.2608
    115  OE1      -45.9870   16.8950  -30.7070 O.2    61  GLN61      -0.2717
    116  NE2      -47.0040   16.6790  -28.7330 N.am   61  GLN61      -0.0878
    117  N        -47.1890    9.4660  -14.8990 N.3   115  THR115     -0.1203
    118  CA       -46.5210   10.7400  -14.6060 C.3   115  THR115      0.1994
    119  C        -47.4720   11.7100  -13.9170 C.2   115  THR115      0.2617
    120  O        -48.6850   11.4900  -13.9480 O.2   115  THR115     -0.2717
    121  CB       -45.9080   11.3650  -15.8780 C.3   115  THR115      0.1784
    122  OG1      -46.9200   11.5980  -16.8690 O.3   115  THR115     -0.2211
    123  CG2      -44.7420   10.5320  -16.4420 C.3   115  THR115      0.0376
    124  N        -46.9170   12.7870  -13.3090 N.am  116  LYS116     -0.1979
    125  CA       -47.6380   13.8370  -12.5780 C.3   116  LYS116      0.1596
    126  C        -48.3240   13.2890  -11.2890 C.2   116  LYS116      0.2287
    127  O        -49.4980   13.5750  -11.0330 O.2   116  LYS116     -0.2864
    128  CB       -48.6100   14.6390  -13.4930 C.3   116  LYS116      0.0298
    129  CG       -48.0140   15.1960  -14.7830 C.3   116  LYS116      0.0038
    130  CD       -48.9100   16.2740  -15.3650 C.3   116  LYS116      0.0206
    131  CE       -48.7260   16.4490  -16.8470 C.3   116  LYS116      0.1093
    132  NZ       -50.0240   16.7000  -17.5150 N.3   116  LYS116     -0.1314
    133  N        -47.6780   14.0860   -8.1360 N.3   118  ASP118     -0.1225
    134  CA       -47.8970   15.2230   -7.2440 C.3   118  ASP118      0.1805
    135  C        -49.2740   15.8700   -7.4150 C.2   118  ASP118      0.2597
    136  O        -49.8460   16.3380   -6.4310 O.2   118  ASP118     -0.2718
    137  CB       -46.7750   16.2760   -7.4110 C.3   118  ASP118      0.1424
    138  CG       -46.6260   16.9160   -8.7930 C.2   118  ASP118      0.3668
    139  OD1      -45.5310   16.8050   -9.3850 O.co2 118  ASP118     -0.2456
    140  OD2      -47.5560   17.6280   -9.2220 O.co2 118  ASP118     -0.2456
    141  N        -49.7890   15.9110   -8.6650 N.am  119  LEU119     -0.1979
    142  CA       -51.0770   16.5180   -9.0140 C.3   119  LEU119      0.1596
    143  C        -52.3050   15.6760   -8.6520 C.2   119  LEU119      0.2287
    144  O        -53.3750   16.2480   -8.4350 O.2   119  LEU119     -0.2864
    145  CB       -51.1110   16.9460  -10.4910 C.3   119  LEU119      0.0297
    146  CG       -50.3400   18.2180  -10.8450 C.3   119  LEU119      0.0022
    147  CD1      -49.8840   18.1920  -12.2850 C.3   119  LEU119      0.0001
    148  CD2      -51.1600   19.4700  -10.5640 C.3   119  LEU119      0.0001
    149  N        -43.3960   11.2890  -10.6280 N.3   158  SER158     -0.1202
    150  CA       -43.5640   12.7100  -10.9010 C.3   158  SER158      0.2020
    151  C        -42.1980   13.3290  -11.1790 C.2   158  SER158      0.2619
    152  O        -41.2250   13.0130  -10.4880 O.2   158  SER158     -0.2717
    153  CB       -44.2460   13.4130   -9.7320 C.3   158  SER158      0.2103
    154  OG       -44.1430   14.8230   -9.8410 O.3   158  SER158     -0.2182
    155  N        -42.1440   14.2100  -12.2000 N.am  159  ALA159     -0.1965
    156  CA       -40.9600   14.9390  -12.6830 C.3   159  ALA159      0.1728
    157  C        -40.5610   16.1630  -11.8220 C.2   159  ALA159      0.2616
    158  O        -39.3620   16.4060  -11.6430 O.2   159  ALA159     -0.2715
    159  CB       -41.1700   15.3690  -14.1360 C.3   159  ALA159      0.0334
    160  N        -41.5580   16.9300  -11.3090 N.am  160  LEU160     -0.1977
    161  CA       -41.3500   18.1390  -10.5020 C.3   160  LEU160      0.1596
    162  C        -40.8230   17.8390   -9.0880 C.2   160  LEU160      0.2287
    163  O        -40.1790   18.6970   -8.4680 O.2   160  LEU160     -0.2864
    164  CB       -42.6540   18.9590  -10.4540 C.3   160  LEU160      0.0297
    165  CG       -42.5820   20.4170   -9.9690 C.3   160  LEU160      0.0022
    166  CD1      -41.6950   21.2850  -10.8610 C.3   160  LEU160      0.0001
    167  CD2      -43.9660   21.0150   -9.8930 C.3   160  LEU160      0.0001
@<TRIPOS>BOND
     1   111   110    2
     2   110   109    1
     3   112   109    1
     4   112   113    1
     5   109   108    1
     6   115   114    2
     7   113   114    1
     8   108   106   am
     9    93    92    2
    10   114   116   am
    11    92    91    1
    12    86    85    2
    13    88    87    1
    14    88    89    1
    15   103   101    1
    16   101    98    1
    17   101   102    1
    18   106   107    2
    19   106   105    1
    20    87    84    1
    21    98    99    1
    22    98    97    1
    23    99   100    2
    24   104   105    1
    25    85    90   am
    26    85    84    1
    27    91    90    1
    28    91    94    1
    29    89    83    1
    30    82    80    1
    31    84    83    1
    32    80    79    1
    33    83    77   am
    34    94    95    1
    35    94    96    1
    36    77    76    1
    37    77    78    2
    38    79    76    1
    39    79    81    1
    40    76    75    1
    41    74    73    1
    42    72    73   ar
    43    72    70   ar
    44    73    71   ar
    45    24    25    1
    46    24    23    1
    47    75    65   am
    48    70    68   ar
    49    66    65    2
    50    65    64    1
    51    31    30    1
    52     1     2    1
    53    23    22    1
    54    71    69   ar
    55    62    60   ar
    56    68    69   ar
    57    68    67    1
    58    32    30    1
    59    30    27    1
    60     2     5    1
    61     2     3    1
    62    64    67    1
    63    64    63    1
    64    60    61   ar
    65    60    59    1
    66    22    21    1
    67    21    18    1
    68    27    26    1
    69    27    28    1
    70    59    58    1
    71    26    19   am
    72    63    56   am
    73     6     3   am
    74     6     7    1
    75    12    10    1
    76     3     4    2
    77    11    10    1
    78    57    56    2
    79    56    55    1
    80    58    55    1
    81    19    18    1
    82    19    20    2
    83    18    17    1
    84    10     7    1
    85    28    29    2
    86    28    33   am
    87    17    15   am
    88     7     8    1
    89    55    54    1
    90    13     8   am
    91    13    14    1
    92    33    34    1
    93     8     9    2
    94    15    14    1
    95    15    16    2
    96    54    52   am
    97    38    37    1
    98    34    37    1
    99    34    35    1
   100    53    52    2
   101    52    51    1
   102   132   131    1
   103    35    36    2
   104    50    51    1
   105   122   121    1
   106   131   130    1
   107   123   121    1
   108   121   118    1
   109    41    42    2
   110    41    40    1
   111   130   129    1
   112    49    47   ar
   113    49    48   ar
   114    47    45   ar
   115   117   118    1
   116   129   128    1
   117    48    46   ar
   118   118   119    1
   119    45    44   ar
   120    40    39    1
   121    40    43    1
   122   159   156    1
   123    46    44   ar
   124    44    43    1
   125   120   119    2
   126   119   124   am
   127   128   125    1
   128   124   125    1
   129   156   155    1
   130   156   157    1
   131   125   126    1
   132   147   146    1
   133   155   151   am
   134   157   158    2
   135   157   160   am
   136   160   161    1
   137   126   127    2
   138   151   150    1
   139   151   152    2
   140   150   149    1
   141   150   153    1
   142   166   165    1
   143   146   148    1
   144   146   145    1
   145   161   164    1
   146   161   162    1
   147   145   142    1
   148   164   165    1
   149   165   167    1
   150   154   153    1
   151   139   138   ar
   152   140   138   ar
   153   162   163    2
   154   142   141    1
   155   142   143    1
   156   138   137    1
   157   141   135   am
   158   143   144    2
   159   133   134    1
   160   135   134    1
   161   135   136    2
   162   137   134    1
