@<TRIPOS>MOLECULE
tmp/3sucA00.pdb
 141 140 0 0 0
SMALL
GASTEIGER

@<TRIPOS>ATOM
      1  N         46.4020  -45.8660  -22.9300 N.3   611  GLU611     -0.1245
      2  CA        46.5600  -47.3130  -22.8190 C.3   611  GLU611      0.1567
      3  C         47.1520  -47.8700  -24.1030 C.2   611  GLU611      0.2260
      4  O         46.7300  -47.4960  -25.1960 O.2   611  GLU611     -0.2867
      5  CB        45.2150  -47.9740  -22.5240 C.3   611  GLU611      0.0388
      6  CG        45.3190  -49.4200  -22.0540 C.3   611  GLU611      0.1160
      7  CD        43.9640  -50.0800  -21.8530 C.2   611  GLU611      0.3649
      8  OE1       43.9130  -51.3300  -21.8430 O.co2 611  GLU611     -0.2457
      9  OE2       42.9520  -49.3560  -21.7050 O.co2 611  GLU611     -0.2457
     10  N         39.5110  -46.8850   -8.2430 N.3   659  TRP659     -0.1227
     11  CA        39.2660  -47.4570   -9.5610 C.3   659  TRP659      0.1737
     12  C         38.4180  -46.4730  -10.3650 C.2   659  TRP659      0.2595
     13  O         37.5450  -45.7980   -9.8110 O.2   659  TRP659     -0.2718
     14  CB        38.5970  -48.8400   -9.4460 C.3   659  TRP659      0.0564
     15  CG        37.9930  -49.3580  -10.7330 C.ar  659  TRP659      0.0003
     16  CD1       38.6430  -49.5780  -11.9190 C.ar  659  TRP659      0.0946
     17  CD2       36.6230  -49.7210  -10.9550 C.ar  659  TRP659      0.0152
     18  NE1       37.7600  -50.0460  -12.8650 N.ar  659  TRP659     -0.2442
     19  CE2       36.5150  -50.1450  -12.3010 C.ar  659  TRP659      0.0810
     20  CE3       35.4750  -49.7340  -10.1470 C.ar  659  TRP659      0.0012
     21  CZ2       35.3000  -50.5730  -12.8610 C.ar  659  TRP659      0.0191
     22  CZ3       34.2660  -50.1630  -10.7040 C.ar  659  TRP659      0.0001
     23  CH2       34.1910  -50.5720  -12.0490 C.ar  659  TRP659      0.0015
     24  N         38.7010  -46.3810  -11.6620 N.am  660  GLN660     -0.1979
     25  CA        38.0640  -45.3950  -12.5360 C.3   660  GLN660      0.1601
     26  C         36.5330  -45.5230  -12.6290 C.2   660  GLN660      0.2287
     27  O         35.8260  -44.5140  -12.7620 O.2   660  GLN660     -0.2864
     28  CB        38.7190  -45.4010  -13.9240 C.3   660  GLN660      0.0394
     29  CG        38.5800  -46.6980  -14.7230 C.3   660  GLN660      0.0908
     30  CD        37.3640  -46.7050  -15.6400 C.2   660  GLN660      0.2608
     31  OE1       36.7420  -47.7470  -15.8560 O.2   660  GLN660     -0.2717
     32  NE2       37.0220  -45.5410  -16.1870 N.am  660  GLN660     -0.0878
     33  N         28.3420  -51.7330   -9.8910 N.3   692  ASP692     -0.1225
     34  CA        29.2940  -52.7360  -10.3840 C.3   692  ASP692      0.1805
     35  C         30.6340  -52.7100   -9.6400 C.2   692  ASP692      0.2598
     36  O         31.4560  -53.6140   -9.8090 O.2   692  ASP692     -0.2718
     37  CB        29.5250  -52.5730  -11.8920 C.3   692  ASP692      0.1424
     38  CG        28.2290  -52.5710  -12.6850 C.2   692  ASP692      0.3668
     39  OD1       27.5560  -51.5180  -12.7290 O.co2 692  ASP692     -0.2456
     40  OD2       27.8890  -53.6200  -13.2680 O.co2 692  ASP692     -0.2456
     41  N         30.8440  -51.6750   -8.8260 N.am  693  PHE693     -0.1962
     42  CA        32.0520  -51.5460   -8.0100 C.3   693  PHE693      0.1771
     43  C         32.1380  -52.6510   -6.9570 C.2   693  PHE693      0.2619
     44  O         31.1650  -52.9290   -6.2510 O.2   693  PHE693     -0.2715
     45  CB        32.1190  -50.1560   -7.3580 C.3   693  PHE693      0.0574
     46  CG        33.1760  -50.0260   -6.2910 C.ar  693  PHE693     -0.0200
     47  CD1       32.8260  -50.0480   -4.9400 C.ar  693  PHE693     -0.0042
     48  CD2       34.5220  -49.8780   -6.6340 C.ar  693  PHE693     -0.0042
     49  CE1       33.8020  -49.9300   -3.9430 C.ar  693  PHE693     -0.0003
     50  CE2       35.5060  -49.7580   -5.6460 C.ar  693  PHE693     -0.0003
     51  CZ        35.1450  -49.7840   -4.2980 C.ar  693  PHE693     -0.0000
     52  N         33.3100  -53.2760   -6.8700 N.am  694  ASP694     -0.1971
     53  CA        33.5700  -54.3230   -5.8900 C.3   694  ASP694      0.1709
     54  C         34.6800  -53.8840   -4.9290 C.2   694  ASP694      0.2293
     55  O         35.8530  -53.8400   -5.3110 O.2   694  ASP694     -0.2864
     56  CB        33.9290  -55.6410   -6.5970 C.3   694  ASP694      0.1436
     57  CG        34.1540  -56.7970   -5.6240 C.2   694  ASP694      0.3671
     58  OD1       34.9230  -57.7200   -5.9760 O.co2 694  ASP694     -0.2456
     59  OD2       33.5700  -56.7920   -4.5160 O.co2 694  ASP694     -0.2456
     60  N         37.8720  -56.2460   -4.4830 N.3   697  LYS697     -0.1231
     61  CA        38.9620  -56.1220   -5.4520 C.3   697  LYS697      0.1693
     62  C         40.0030  -55.1020   -4.9950 C.2   697  LYS697      0.2592
     63  O         39.6860  -53.9330   -4.7510 O.2   697  LYS697     -0.2718
     64  CB        38.4210  -55.7640   -6.8420 C.3   697  LYS697      0.0285
     65  CG        37.6600  -56.8990   -7.5210 C.3   697  LYS697      0.0035
     66  CD        37.0400  -56.4700   -8.8440 C.3   697  LYS697      0.0206
     67  CE        38.0010  -56.6580  -10.0160 C.3   697  LYS697      0.1093
     68  NZ        38.1390  -58.0860  -10.4200 N.3   697  LYS697     -0.1314
     69  N         41.2400  -55.5730   -4.8590 N.am  698  ASN698     -0.1960
     70  CA        42.3450  -54.7460   -4.3950 C.3   698  ASN698      0.1819
     71  C         42.8400  -53.8460   -5.5240 C.2   698  ASN698      0.2621
     72  O         43.4050  -54.3300   -6.5110 O.2   698  ASN698     -0.2715
     73  CB        43.4760  -55.6320   -3.8600 C.3   698  ASN698      0.1195
     74  CG        44.3450  -54.9200   -2.8420 C.2   698  ASN698      0.2630
     75  OD1       45.0460  -53.9580   -3.1650 O.2   698  ASN698     -0.2716
     76  ND2       44.3130  -55.4000   -1.6030 N.am  698  ASN698     -0.0877
     77  N         42.6130  -52.5410   -5.3770 N.am  699  TYR699     -0.1960
     78  CA        42.9140  -51.5840   -6.4460 C.3   699  TYR699      0.1771
     79  C         44.4070  -51.3420   -6.6770 C.2   699  TYR699      0.2619
     80  O         45.1470  -50.9680   -5.7580 O.2   699  TYR699     -0.2715
     81  CB        42.1830  -50.2470   -6.2440 C.3   699  TYR699      0.0574
     82  CG        42.4370  -49.2660   -7.3730 C.ar  699  TYR699     -0.0198
     83  CD1       42.9910  -48.0090   -7.1240 C.ar  699  TYR699     -0.0009
     84  CD2       42.1510  -49.6100   -8.6970 C.ar  699  TYR699     -0.0009
     85  CE1       43.2370  -47.1120   -8.1670 C.ar  699  TYR699      0.0417
     86  CE2       42.3970  -48.7280   -9.7440 C.ar  699  TYR699      0.0417
     87  CZ        42.9330  -47.4810   -9.4730 C.ar  699  TYR699      0.1957
     88  OH        43.1690  -46.6160  -10.5170 O.3   699  TYR699     -0.2866
     89  N         44.8230  -51.5590   -7.9210 N.am  700  ILE700     -0.1977
     90  CA        46.1530  -51.1860   -8.3940 C.3   700  ILE700      0.1596
     91  C         45.9750  -50.0620   -9.4210 C.2   700  ILE700      0.2287
     92  O         45.3090  -50.2570  -10.4430 O.2   700  ILE700     -0.2864
     93  CB        46.9210  -52.3920   -9.0090 C.3   700  ILE700      0.0276
     94  CG1       47.0070  -53.5490   -8.0020 C.3   700  ILE700      0.0022
     95  CG2       48.3210  -51.9690   -9.4580 C.3   700  ILE700      0.0022
     96  CD1       47.1630  -54.9280   -8.6340 C.3   700  ILE700      0.0001
     97  N         46.6480  -47.0110  -12.3060 N.3   702  ARG702     -0.1245
     98  CA        47.2040  -46.9810  -13.6580 C.3   702  ARG702      0.1563
     99  C         48.7040  -46.6860  -13.6660 C.2   702  ARG702      0.2260
    100  O         49.4370  -47.1770  -14.5290 O.2   702  ARG702     -0.2867
    101  CB        46.4690  -45.9370  -14.5010 C.3   702  ARG702      0.0307
    102  CG        45.0170  -46.2800  -14.8030 C.3   702  ARG702      0.0489
    103  CD        44.2790  -45.0950  -15.3980 C.3   702  ARG702      0.2205
    104  NE        42.9980  -45.4860  -15.9840 N.pl3 702  ARG702     -0.0865
    105  CZ        42.1150  -44.6380  -16.5080 C.cat 702  ARG702      0.5346
    106  NH1       42.3600  -43.3320  -16.5230 N.pl3 702  ARG702      0.1354
    107  NH2       40.9800  -45.1000  -17.0160 N.pl3 702  ARG702      0.1354
    108  N         50.2930  -50.0020  -13.3530 N.3   705  ARG705     -0.1245
    109  CA        50.0200  -50.9330  -14.4510 C.3   705  ARG705      0.1563
    110  C         50.9600  -50.7550  -15.6430 C.2   705  ARG705      0.2260
    111  O         51.4760  -49.6630  -15.8920 O.2   705  ARG705     -0.2867
    112  CB        48.5670  -50.8270  -14.9180 C.3   705  ARG705      0.0307
    113  CG        47.6780  -51.9570  -14.4340 C.3   705  ARG705      0.0489
    114  CD        47.1240  -51.6960  -13.0370 C.3   705  ARG705      0.2205
    115  NE        46.1340  -50.6130  -12.9710 N.pl3 705  ARG705     -0.0865
    116  CZ        45.1690  -50.3760  -13.8600 C.cat 705  ARG705      0.5346
    117  NH1       45.0070  -51.1490  -14.9300 N.pl3 705  ARG705      0.1354
    118  NH2       44.3460  -49.3550  -13.6640 N.pl3 705  ARG705      0.1354
    119  N         50.2830  -51.4150  -19.0250 N.3   707  GLU707     -0.1231
    120  CA        49.6690  -50.9780  -20.2760 C.3   707  GLU707      0.1699
    121  C         49.3710  -49.4760  -20.3270 C.2   707  GLU707      0.2592
    122  O         49.1760  -48.9130  -21.4090 O.2   707  GLU707     -0.2718
    123  CB        48.4100  -51.8150  -20.5800 C.3   707  GLU707      0.0402
    124  CG        47.1890  -51.5610  -19.6810 C.3   707  GLU707      0.1161
    125  CD        47.2520  -52.2460  -18.3160 C.2   707  GLU707      0.3649
    126  OE1       48.2880  -52.8660  -17.9790 O.co2 707  GLU707     -0.2457
    127  OE2       46.2480  -52.1570  -17.5750 O.co2 707  GLU707     -0.2457
    128  N         49.3500  -48.8360  -19.1590 N.am  708  TRP708     -0.1976
    129  CA        49.0580  -47.4060  -19.0670 C.3   708  TRP708      0.1640
    130  C         50.3090  -46.5360  -19.1020 C.2   708  TRP708      0.2290
    131  O         51.2260  -46.7130  -18.2980 O.2   708  TRP708     -0.2864
    132  CB        48.2160  -47.1090  -17.8310 C.3   708  TRP708      0.0576
    133  CG        46.8100  -47.5670  -17.9980 C.ar  708  TRP708      0.0006
    134  CD1       46.2890  -48.7620  -17.6040 C.ar  708  TRP708      0.0946
    135  CD2       45.7450  -46.8510  -18.6290 C.ar  708  TRP708      0.0152
    136  NE1       44.9610  -48.8330  -17.9410 N.ar  708  TRP708     -0.2442
    137  CE2       44.5990  -47.6730  -18.5700 C.ar  708  TRP708      0.0810
    138  CE3       45.6450  -45.5900  -19.2340 C.ar  708  TRP708      0.0012
    139  CZ2       43.3640  -47.2790  -19.0970 C.ar  708  TRP708      0.0191
    140  CZ3       44.4180  -45.1970  -19.7580 C.ar  708  TRP708      0.0001
    141  CH2       43.2930  -46.0420  -19.6860 C.ar  708  TRP708      0.0015
@<TRIPOS>BOND
     1     4     3    2
     2     3     2    1
     3     1     2    1
     4     2     5    1
     5     5     6    1
     6     6     7    1
     7     7     8   ar
     8     7     9   ar
     9   122   121    2
    10   123   120    1
    11   123   124    1
    12   121   120    1
    13   121   128   am
    14   120   119    1
    15   140   141   ar
    16   140   138   ar
    17   141   139   ar
    18   124   125    1
    19   138   135   ar
    20   128   129    1
    21   130   129    1
    22   130   131    2
    23   139   137   ar
    24   129   132    1
    25   135   137   ar
    26   135   133   ar
    27   137   136   ar
    28   125   126   ar
    29   125   127   ar
    30   133   132    1
    31   133   134   ar
    32   136   134   ar
    33   107   105    1
    34   106   105    1
    35   105   104    2
    36    32    30   am
    37   104   103    1
    38   111   110    2
    39    31    30    2
    40   110   109    1
    41    30    29    1
    42   103   102    1
    43   117   116    1
    44   112   109    1
    45   112   113    1
    46   102   101    1
    47    29    28    1
    48   100    99    2
    49   101    98    1
    50   109   108    1
    51   113   114    1
    52    28    25    1
    53   116   118    1
    54   116   115    2
    55    99    98    1
    56    98    97    1
    57    40    38   ar
    58   114   115    1
    59    18    19   ar
    60    18    16   ar
    61    21    19   ar
    62    21    23   ar
    63    27    26    2
    64    39    38   ar
    65    38    37    1
    66    26    25    1
    67    25    24    1
    68    19    17   ar
    69    23    22   ar
    70    16    15   ar
    71    37    34    1
    72    24    12   am
    73    17    15   ar
    74    17    20   ar
    75    15    14    1
    76    22    20   ar
    77    88    87    1
    78    92    91    2
    79    68    67    1
    80    34    33    1
    81    34    35    1
    82    12    13    2
    83    12    11    1
    84    67    66    1
    85    36    35    2
    86    86    87   ar
    87    86    84   ar
    88    35    41   am
    89    11    14    1
    90    11    10    1
    91    87    85   ar
    92    95    93    1
    93    91    90    1
    94    93    90    1
    95    93    94    1
    96    66    65    1
    97    41    42    1
    98    84    82   ar
    99    96    94    1
   100    90    89    1
   101    85    83   ar
   102    42    45    1
   103    42    43    1
   104    89    79   am
   105    65    64    1
   106    82    83   ar
   107    82    81    1
   108    45    46    1
   109    43    52   am
   110    43    44    2
   111    52    53    1
   112    64    61    1
   113    79    78    1
   114    79    80    2
   115    48    46   ar
   116    48    50   ar
   117    56    53    1
   118    56    57    1
   119    72    71    2
   120    78    81    1
   121    78    77    1
   122    46    47   ar
   123    58    57   ar
   124    53    54    1
   125    50    51   ar
   126    57    59   ar
   127    71    77   am
   128    71    70    1
   129    61    62    1
   130    61    60    1
   131    55    54    2
   132    62    69   am
   133    62    63    2
   134    47    49   ar
   135    69    70    1
   136    70    73    1
   137    51    49   ar
   138    73    74    1
   139    75    74    2
   140    74    76   am
