@<TRIPOS>MOLECULE
tmp/3sufC01.pdb
 172 166 0 0 0
SMALL
GASTEIGER

@<TRIPOS>ATOM
      1  N          1.3060    4.3670  -19.8200 N.3    52  GLN52      -0.1231
      2  CA         0.1270    4.0800  -18.9900 C.3    52  GLN52       0.1698
      3  C          0.2010    2.7000  -18.3340 C.2    52  GLN52       0.2593
      4  O          0.9250    1.8080  -18.7870 O.2    52  GLN52      -0.2718
      5  CB        -1.1660    4.2320  -19.8220 C.3    52  GLN52       0.0381
      6  CG        -1.4850    5.6870  -20.1900 C.3    52  GLN52       0.0905
      7  CD        -2.7700    5.8550  -20.9890 C.2    52  GLN52       0.2608
      8  OE1       -3.7420    6.4580  -20.5120 O.2    52  GLN52      -0.2717
      9  NE2       -2.7830    5.3310  -22.2140 N.am   52  GLN52      -0.0878
     10  N         -0.5300    2.5400  -17.2420 N.am   53  THR53      -0.1939
     11  CA        -0.6000    1.2570  -16.5730 C.3    53  THR53       0.2028
     12  C         -2.0520    1.0300  -16.1810 C.2    53  THR53       0.2642
     13  O         -2.7210    1.9420  -15.6900 O.2    53  THR53      -0.2714
     14  CB         0.3460    1.1800  -15.3460 C.3    53  THR53       0.1808
     15  OG1       -0.2370    1.8420  -14.2250 O.3    53  THR53      -0.2208
     16  CG2        1.6760    1.8460  -15.6360 C.3    53  THR53       0.0379
     17  N         -2.5460   -0.1810  -16.4210 N.am   54  PHE54      -0.1973
     18  CA        -3.9470   -0.4750  -16.1550 C.3    54  PHE54       0.1639
     19  C         -4.1290   -1.9400  -15.7450 C.2    54  PHE54       0.2290
     20  O         -3.1370   -2.6510  -15.5610 O.2    54  PHE54      -0.2864
     21  CB        -4.7860   -0.0860  -17.3800 C.3    54  PHE54       0.0560
     22  CG        -4.1510   -0.4350  -18.6880 C.ar   54  PHE54      -0.0200
     23  CD1       -3.0850    0.3020  -19.1840 C.ar   54  PHE54      -0.0042
     24  CD2       -4.6230   -1.4940  -19.4340 C.ar   54  PHE54      -0.0042
     25  CE1       -2.5040   -0.0220  -20.3910 C.ar   54  PHE54      -0.0003
     26  CE2       -4.0450   -1.8280  -20.6320 C.ar   54  PHE54      -0.0003
     27  CZ        -2.9910   -1.0930  -21.1210 C.ar   54  PHE54      -0.0000
     28  N         -8.9820   -1.2230  -25.1520 N.3    67  TYR67      -0.1227
     29  CA        -8.2270   -0.7370  -26.3070 C.3    67  TYR67       0.1736
     30  C         -7.5520    0.5830  -26.0240 C.2    67  TYR67       0.2595
     31  O         -6.4510    0.8370  -26.5220 O.2    67  TYR67      -0.2718
     32  CB        -9.1200   -0.5530  -27.5470 C.3    67  TYR67       0.0548
     33  CG        -8.3380   -0.1120  -28.7830 C.ar   67  TYR67      -0.0200
     34  CD1       -8.1200    1.2380  -29.0620 C.ar   67  TYR67      -0.0009
     35  CD2       -7.8080   -1.0500  -29.6570 C.ar   67  TYR67      -0.0009
     36  CE1       -7.3900    1.6360  -30.1890 C.ar   67  TYR67       0.0417
     37  CE2       -7.0850   -0.6720  -30.7690 C.ar   67  TYR67       0.0417
     38  CZ        -6.8730    0.6680  -31.0360 C.ar   67  TYR67       0.1957
     39  OH        -6.1470    1.0080  -32.1600 O.3    67  TYR67      -0.2866
     40  N         -8.2240    1.4570  -25.2810 N.am   68  HIS68      -0.1961
     41  CA        -7.6410    2.7780  -24.9950 C.3    68  HIS68       0.1787
     42  C         -6.3670    2.6480  -24.1690 C.2    68  HIS68       0.2620
     43  O         -5.4240    3.4330  -24.3070 O.2    68  HIS68      -0.2715
     44  CB        -8.6850    3.7310  -24.3960 C.3    68  HIS68       0.0785
     45  CG        -9.1080    3.4110  -22.9820 C.ar   68  HIS68       0.0821
     46  ND1      -10.2280    2.7290  -22.6990 N.ar   68  HIS68      -0.2267
     47  CD2       -8.5760    3.8050  -21.7670 C.ar   68  HIS68       0.1154
     48  CE1      -10.3660    2.6250  -21.3790 C.ar   68  HIS68       0.1986
     49  NE2       -9.3580    3.2970  -20.8070 N.ar   68  HIS68      -0.2212
     50  N         -6.3090    1.6160  -23.3380 N.am   69  GLY69      -0.1954
     51  CA        -5.0470    1.2090  -22.7420 C.3    69  GLY69       0.1869
     52  C         -4.0840    0.6110  -23.7520 C.2    69  GLY69       0.2309
     53  O         -3.0920    1.2410  -24.1460 O.2    69  GLY69      -0.2863
     54  N        -11.9370   -1.9950  -31.6790 N.3    89  VAL89      -0.1231
     55  CA       -11.7860   -0.5980  -31.3100 C.3    89  VAL89       0.1692
     56  C        -13.0780   -0.0110  -30.7400 C.2    89  VAL89       0.2592
     57  O        -13.0610    0.6280  -29.6800 O.2    89  VAL89      -0.2718
     58  CB       -11.2740    0.2180  -32.5300 C.3    89  VAL89       0.0266
     59  CG1      -12.3690    0.3870  -33.5820 C.3    89  VAL89       0.0020
     60  CG2      -10.7120    1.5610  -32.0900 C.3    89  VAL89       0.0020
     61  N        -14.2030   -0.2840  -31.3900 N.am   90  ASP90      -0.1974
     62  CA       -15.4940    0.2740  -30.9780 C.3    90  ASP90       0.1709
     63  C        -15.9920   -0.3260  -29.6690 C.2    90  ASP90       0.2293
     64  O        -16.7050    0.3340  -28.9140 O.2    90  ASP90      -0.2864
     65  CB       -16.5400    0.0640  -32.0790 C.3    90  ASP90       0.1436
     66  CG       -16.3480    1.0110  -33.2510 C.2    90  ASP90       0.3671
     67  OD1      -16.4190    2.2450  -33.0320 O.co2  90  ASP90      -0.2456
     68  OD2      -16.1420    0.5300  -34.3870 O.co2  90  ASP90      -0.2456
     69  N        -13.8080   -1.1070  -27.4540 N.3    92  ASP92      -0.1239
     70  CA       -12.7320   -0.7780  -26.5160 C.3    92  ASP92       0.1674
     71  C        -12.2840   -2.0730  -25.8410 C.2    92  ASP92       0.2266
     72  O        -12.2740   -2.1650  -24.6110 O.2    92  ASP92      -0.2867
     73  CB       -13.1880    0.2520  -25.4520 C.3    92  ASP92       0.1410
     74  CG       -12.0160    1.0340  -24.8280 C.2    92  ASP92       0.3668
     75  OD1      -10.8830    0.8950  -25.2950 O.co2  92  ASP92      -0.2456
     76  OD2      -12.2250    1.8020  -23.8620 O.co2  92  ASP92      -0.2456
     77  N        -23.9670   -1.5000  -17.2530 N.3   134  ARG134     -0.1245
     78  CA       -23.7830   -0.4480  -16.2460 C.3   134  ARG134      0.1563
     79  C        -23.9770   -0.8470  -14.8150 C.2   134  ARG134      0.2260
     80  O        -24.7690   -1.6850  -14.5030 O.2   134  ARG134     -0.2867
     81  CB       -24.6530    0.7760  -16.5250 C.3   134  ARG134      0.0307
     82  CG       -23.9280    2.0640  -16.9200 C.3   134  ARG134      0.0489
     83  CD       -24.7920    3.2780  -16.6220 C.3   134  ARG134      0.2205
     84  NE       -24.5290    4.5500  -17.3170 N.pl3 134  ARG134     -0.0865
     85  CZ       -23.9650    4.7160  -18.4980 C.cat 134  ARG134      0.5346
     86  NH1      -23.5650    3.6930  -19.1860 N.pl3 134  ARG134      0.1354
     87  NH2      -23.8000    5.9120  -18.9940 N.pl3 134  ARG134      0.1354
     88  N        -12.7020   10.7320   -9.7420 N.3   143  ILE143     -0.1245
     89  CA       -12.3500    9.8500  -10.8570 C.3   143  ILE143      0.1561
     90  C        -10.8650    9.5330  -10.9580 C.2   143  ILE143      0.2260
     91  O        -10.4980    8.5580  -11.5980 O.2   143  ILE143     -0.2867
     92  CB       -12.8720   10.3910  -12.2160 C.3   143  ILE143      0.0252
     93  CG1      -12.1040   11.6370  -12.6600 C.3   143  ILE143      0.0019
     94  CG2      -14.3690   10.6210  -12.1210 C.3   143  ILE143      0.0019
     95  CD1      -12.7550   12.4360  -13.7710 C.3   143  ILE143      0.0001
     96  N        -10.2420    6.1880   -9.5510 N.3   146  LEU146     -0.1231
     97  CA       -10.5390    5.0580  -10.4290 C.3   146  LEU146      0.1693
     98  C         -9.5500    4.9860  -11.5750 C.2   146  LEU146      0.2592
     99  O         -9.3430    3.9250  -12.1400 O.2   146  LEU146     -0.2718
    100  CB       -11.9690    5.1380  -10.9530 C.3   146  LEU146      0.0284
    101  CG       -13.0370    5.0940   -9.8570 C.3   146  LEU146      0.0019
    102  CD1      -14.4250    5.2210  -10.4780 C.3   146  LEU146      0.0001
    103  CD2      -12.9400    3.8230   -9.0120 C.3   146  LEU146      0.0001
    104  N         -8.9340    6.1180  -11.9100 N.am  147  LYS147     -0.1966
    105  CA        -7.8670    6.1550  -12.8910 C.3   147  LYS147      0.1728
    106  C         -6.9740    4.9270  -12.7820 C.2   147  LYS147      0.2616
    107  O         -6.5710    4.5480  -11.6890 O.2   147  LYS147     -0.2715
    108  CB        -7.0030    7.3980  -12.6790 C.3   147  LYS147      0.0311
    109  CG        -6.0750    7.7250  -13.8300 C.3   147  LYS147      0.0038
    110  CD        -4.9640    8.6660  -13.3650 C.3   147  LYS147      0.0206
    111  CE        -4.2300    9.2810  -14.5390 C.3   147  LYS147      0.1093
    112  NZ        -3.6660    8.2230  -15.4120 N.3   147  LYS147     -0.1314
    113  N         -6.6480    4.3340  -13.9260 N.am  148  GLY148     -0.1955
    114  CA        -5.8300    3.1320  -13.9750 C.3   148  GLY148      0.1869
    115  C         -6.5810    1.8520  -13.6160 C.2   148  GLY148      0.2309
    116  O         -5.9850    0.7690  -13.6620 O.2   148  GLY148     -0.2863
    117  N         -9.2150    0.5390  -15.2350 N.3   150  SER150     -0.1217
    118  CA        -9.9150   -0.0260  -16.3810 C.3   150  SER150      0.1889
    119  C         -9.2040   -1.2660  -16.8370 C.2   150  SER150      0.2288
    120  O         -7.9740   -1.2920  -16.9390 O.2   150  SER150     -0.2866
    121  CB        -9.9480    0.9370  -17.5630 C.3   150  SER150      0.2089
    122  OG        -8.8260    0.7310  -18.4110 O.3   150  SER150     -0.2183
    123  N        -14.1390   -3.3620  -16.6580 N.3   165  PHE165     -0.1227
    124  CA       -14.3950   -1.9460  -16.4020 C.3   165  PHE165      0.1736
    125  C        -13.8750   -1.0990  -17.5560 C.2   165  PHE165      0.2595
    126  O        -12.7550   -1.2720  -17.9850 O.2   165  PHE165     -0.2718
    127  CB       -13.7270   -1.5420  -15.0770 C.3   165  PHE165      0.0547
    128  CG       -13.8900   -0.0870  -14.7040 C.ar  165  PHE165     -0.0202
    129  CD1      -15.1240    0.5550  -14.7930 C.ar  165  PHE165     -0.0042
    130  CD2      -12.8090    0.6310  -14.2180 C.ar  165  PHE165     -0.0042
    131  CE1      -15.2580    1.8870  -14.4210 C.ar  165  PHE165     -0.0003
    132  CE2      -12.9420    1.9560  -13.8390 C.ar  165  PHE165     -0.0003
    133  CZ       -14.1670    2.5900  -13.9480 C.ar  165  PHE165     -0.0000
    134  N        -14.6900   -0.2100  -18.0620 N.am  166  ARG166     -0.1966
    135  CA       -14.2880    0.5880  -19.1940 C.3   166  ARG166      0.1729
    136  C        -14.2020    2.0660  -18.9050 C.2   166  ARG166      0.2616
    137  O        -13.2240    2.6450  -19.2110 O.2   166  ARG166     -0.2715
    138  CB       -15.1800    0.3200  -20.3970 C.3   166  ARG166      0.0348
    139  CG       -14.8100    1.1070  -21.6130 C.3   166  ARG166      0.0492
    140  CD       -15.5450    0.6490  -22.8200 C.3   166  ARG166      0.2205
    141  NE       -16.9460    0.8630  -22.6390 N.pl3 166  ARG166     -0.0865
    142  CZ       -17.8650    0.5040  -23.5080 C.cat 166  ARG166      0.5346
    143  NH1      -19.1340    0.7310  -23.2520 N.pl3 166  ARG166      0.1354
    144  NH2      -17.5160   -0.0820  -24.6280 N.pl3 166  ARG166      0.1354
    145  N        -15.2330    2.6620  -18.3360 N.am  167  ALA167     -0.1963
    146  CA       -15.2140    4.1120  -18.0870 C.3   167  ALA167      0.1728
    147  C        -16.0850    4.5340  -16.9320 C.2   167  ALA167      0.2616
    148  O        -16.9760    3.7820  -16.5050 O.2   167  ALA167     -0.2715
    149  CB       -15.5750    4.8920  -19.3490 C.3   167  ALA167      0.0334
    150  N        -15.7860    5.7310  -16.4190 N.am  168  ALA168     -0.1963
    151  CA       -16.4790    6.3250  -15.2760 C.3   168  ALA168      0.1728
    152  C        -17.5930    7.2890  -15.7080 C.2   168  ALA168      0.2616
    153  O        -17.4010    8.1290  -16.5920 O.2   168  ALA168     -0.2715
    154  CB       -15.4740    7.0560  -14.3880 C.3   168  ALA168      0.0334
    155  N        -18.7520    7.1660  -15.0690 N.am  169  VAL169     -0.1963
    156  CA       -19.9450    7.9360  -15.4250 C.3   169  VAL169      0.1727
    157  C        -20.0490    9.1290  -14.4730 C.2   169  VAL169      0.2616
    158  O        -20.7270    9.0300  -13.4660 O.2   169  VAL169     -0.2715
    159  CB       -21.2160    7.0490  -15.2810 C.3   169  VAL169      0.0290
    160  CG1      -22.5000    7.8560  -15.4670 C.3   169  VAL169      0.0023
    161  CG2      -21.1680    5.8740  -16.2430 C.3   169  VAL169      0.0023
    162  N        -19.4170   10.2630  -14.7880 N.am  170  CYS170     -0.1968
    163  CA       -19.1730   11.2750  -13.7400 C.3   170  CYS170      0.1712
    164  C        -19.5490   12.7500  -14.0160 C.2   170  CYS170      0.2296
    165  O        -19.2540   13.2980  -15.0820 O.2   170  CYS170     -0.2864
    166  CB       -17.6990   11.1960  -13.3330 C.3   170  CYS170      0.0983
    167  SG       -16.5960   12.2460  -14.2790 S.3   170  CYS170     -0.0798
    168  N        -19.2590    2.1700  -16.4120 N.3   179  ALA179     -0.1245
    169  CA       -19.5910    1.5190  -17.6640 C.3   179  ALA179      0.1562
    170  C        -18.5790    0.4160  -17.9130 C.2   179  ALA179      0.2260
    171  O        -17.3820    0.6670  -17.9370 O.2   179  ALA179     -0.2867
    172  CB       -19.5440    2.5250  -18.8070 C.3   179  ALA179      0.0290
@<TRIPOS>BOND
     1    68    66   ar
     2    59    58    1
     3    66    67   ar
     4    66    65    1
     5    58    60    1
     6    58    55    1
     7    39    38    1
     8    65    62    1
     9    54    55    1
    10    61    62    1
    11    61    56   am
    12    55    56    1
    13    38    37   ar
    14    38    36   ar
    15    62    63    1
    16    37    35   ar
    17    56    57    2
    18    36    34   ar
    19    63    64    2
    20    35    33   ar
    21    34    33   ar
    22    33    32    1
    23    32    29    1
    24    69    70    1
    25    31    30    2
    26    70    71    1
    27    70    73    1
    28    29    30    1
    29    29    28    1
    30    30    40   am
    31    71    72    2
    32    73    74    1
    33    75    74   ar
    34    40    41    1
    35    41    44    1
    36    41    42    1
    37    74    76   ar
    38   144   142    1
    39    44    45    1
    40    43    42    2
    41    42    50   am
    42    53    52    2
    43    52    51    1
    44   142   143    1
    45   142   141    2
    46    50    51    1
    47    45    46   ar
    48    45    47   ar
    49   140   141    1
    50   140   139    1
    51    46    48   ar
    52     9     7   am
    53    47    49   ar
    54   139   138    1
    55    48    49   ar
    56    27    26   ar
    57    27    25   ar
    58     7     8    2
    59     7     6    1
    60    26    24   ar
    61   138   135    1
    62    25    23   ar
    63     6     5    1
    64     5     2    1
    65     1     2    1
    66    24    22   ar
    67   149   146    1
    68   137   136    2
    69   135   136    1
    70   135   134    1
    71    86    85    1
    72    23    22   ar
    73    87    85    1
    74     2     3    1
    75   136   145   am
    76   172   169    1
    77     4     3    2
    78    22    21    1
    79    85    84    2
    80   122   121    1
    81   145   146    1
    82     3    10   am
    83   146   147    1
    84   134   125   am
    85   126   125    2
    86   171   170    2
    87   170   169    1
    88   169   168    1
    89   121   118    1
    90   125   124    1
    91    21    18    1
    92    84    83    1
    93    77    78    1
    94    10    11    1
    95   120   119    2
    96   147   148    2
    97   147   150   am
    98    82    83    1
    99    82    81    1
   100   119   118    1
   101   123   124    1
   102   153   152    2
   103    11    12    1
   104    11    14    1
   105    81    78    1
   106    17    12   am
   107    17    18    1
   108   150   151    1
   109   124   127    1
   110   118   117    1
   111    78    79    1
   112   161   159    1
   113    12    13    2
   114    18    19    1
   115    19    20    2
   116   152   151    1
   117   152   155   am
   118    16    14    1
   119   160   159    1
   120   156   159    1
   121   156   155    1
   122   156   157    1
   123   112   111    1
   124    14    15    1
   125   151   154    1
   126   165   164    2
   127   127   128    1
   128    79    80    2
   129   129   128   ar
   130   129   131   ar
   131   162   157   am
   132   162   163    1
   133   128   130   ar
   134   111   110    1
   135   157   158    2
   136   131   133   ar
   137   167   166    1
   138   130   132   ar
   139   164   163    1
   140   114   113    1
   141   114   115    1
   142   133   132   ar
   143   113   106   am
   144   109   110    1
   145   109   108    1
   146    95    93    1
   147   163   166    1
   148   116   115    2
   149   105   106    1
   150   105   108    1
   151   105   104    1
   152   106   107    2
   153    93    92    1
   154    92    94    1
   155    92    89    1
   156    99    98    2
   157   104    98   am
   158    91    90    2
   159    98    97    1
   160    90    89    1
   161   100    97    1
   162   100   101    1
   163    89    88    1
   164   102   101    1
   165    97    96    1
   166   101   103    1
