@<TRIPOS>MOLECULE
tmp/3sugA00.pdb
 181 176 0 0 0
SMALL
GASTEIGER

@<TRIPOS>ATOM
      1  N          2.7290   -5.9510   -8.6680 N.3    61  GLN61      -0.1231
      2  CA         3.5390   -5.4700   -9.7920 C.3    61  GLN61       0.1698
      3  C          2.6730   -4.8470  -10.8850 C.2    61  GLN61       0.2593
      4  O          1.4840   -5.1980  -11.0400 O.2    61  GLN61      -0.2718
      5  CB         4.3450   -6.6350  -10.4070 C.3    61  GLN61       0.0381
      6  CG         5.4030   -7.2390   -9.4770 C.3    61  GLN61       0.0905
      7  CD         5.8320   -8.6510   -9.8440 C.2    61  GLN61       0.2608
      8  OE1        6.2130   -8.9320  -10.9820 O.2    61  GLN61      -0.2717
      9  NE2        5.7950   -9.5520   -8.8640 N.am   61  GLN61      -0.0878
     10  N          3.2780   -3.9390  -11.6550 N.am   62  THR62      -0.1939
     11  CA         2.6590   -3.3770  -12.8560 C.3    62  THR62       0.2028
     12  C          3.6310   -3.5050  -14.0240 C.2    62  THR62       0.2642
     13  O          4.8310   -3.2140  -13.8890 O.2    62  THR62      -0.2714
     14  CB         2.2590   -1.8900  -12.6980 C.3    62  THR62       0.1808
     15  OG1        1.3010   -1.7480  -11.6450 O.3    62  THR62      -0.2208
     16  CG2        1.6010   -1.3800  -13.9400 C.3    62  THR62       0.0379
     17  N          3.1120   -3.9760  -15.1530 N.am   63  PHE63      -0.1973
     18  CA         3.9310   -4.2990  -16.3350 C.3    63  PHE63       0.1639
     19  C          3.0560   -4.1710  -17.6000 C.2    63  PHE63       0.2290
     20  O          1.9890   -3.5540  -17.5440 O.2    63  PHE63      -0.2864
     21  CB         4.6410   -5.6670  -16.1500 C.3    63  PHE63       0.0560
     22  CG         3.7340   -6.8110  -15.7400 C.ar   63  PHE63      -0.0200
     23  CD1        3.3210   -6.9670  -14.4250 C.ar   63  PHE63      -0.0042
     24  CD2        3.3030   -7.7480  -16.6650 C.ar   63  PHE63      -0.0042
     25  CE1        2.5150   -8.0220  -14.0390 C.ar   63  PHE63      -0.0003
     26  CE2        2.5050   -8.8120  -16.2870 C.ar   63  PHE63      -0.0003
     27  CZ         2.0740   -8.9410  -14.9860 C.ar   63  PHE63      -0.0000
     28  N          4.9240  -11.5670  -19.6740 N.3    75  VAL75      -0.1231
     29  CA         5.9470  -12.3720  -19.0180 C.3    75  VAL75       0.1692
     30  C          5.3890  -13.2000  -17.8420 C.2    75  VAL75       0.2592
     31  O          4.6040  -12.7010  -17.0470 O.2    75  VAL75      -0.2718
     32  CB         7.1480  -11.5140  -18.5350 C.3    75  VAL75       0.0266
     33  CG1        7.9740  -11.0370  -19.7390 C.3    75  VAL75       0.0020
     34  CG2        6.6830  -10.3440  -17.6690 C.3    75  VAL75       0.0020
     35  N          5.8230  -14.4610  -17.7520 N.am   76  TYR76      -0.1962
     36  CA         5.5510  -15.3240  -16.6040 C.3    76  TYR76       0.1771
     37  C          6.0330  -14.7030  -15.2840 C.2    76  TYR76       0.2620
     38  O          5.3840  -14.8260  -14.2530 O.2    76  TYR76      -0.2715
     39  CB         6.1940  -16.7090  -16.8130 C.3    76  TYR76       0.0574
     40  CG         5.7780  -17.7020  -15.7630 C.ar   76  TYR76      -0.0198
     41  CD1        6.4560  -17.7810  -14.5600 C.ar   76  TYR76      -0.0009
     42  CD2        4.6680  -18.5210  -15.9440 C.ar   76  TYR76      -0.0009
     43  CE1        6.0560  -18.6540  -13.5720 C.ar   76  TYR76       0.0417
     44  CE2        4.2660  -19.4120  -14.9560 C.ar   76  TYR76       0.0417
     45  CZ         4.9610  -19.4740  -13.7730 C.ar   76  TYR76       0.1957
     46  OH         4.5840  -20.3360  -12.7620 O.3    76  TYR76      -0.2866
     47  N          7.1970  -14.0560  -15.2970 N.am   77  HIS77      -0.1959
     48  CA         7.7000  -13.4570  -14.0770 C.3    77  HIS77       0.1787
     49  C          6.8320  -12.3550  -13.5390 C.2    77  HIS77       0.2620
     50  O          6.9100  -12.0380  -12.3460 O.2    77  HIS77      -0.2715
     51  CB         9.1790  -13.0590  -14.1900 C.3    77  HIS77       0.0785
     52  CG         9.4340  -11.7340  -14.8510 C.ar   77  HIS77       0.0821
     53  ND1        9.8100  -11.6390  -16.1450 N.ar   77  HIS77      -0.2267
     54  CD2        9.4450  -10.4410  -14.3360 C.ar   77  HIS77       0.1154
     55  CE1       10.0180  -10.3440  -16.4470 C.ar   77  HIS77       0.1986
     56  NE2        9.7850   -9.6110  -15.3450 N.ar   77  HIS77      -0.2212
     57  N          5.9630  -11.7770  -14.3740 N.am   78  GLY78      -0.1954
     58  CA         4.9510  -10.8470  -13.8790 C.3    78  GLY78       0.1869
     59  C          3.6120  -11.4690  -13.5300 C.2    78  GLY78       0.2309
     60  O          3.0450  -11.2300  -12.4570 O.2    78  GLY78      -0.2863
     61  N          7.0510  -21.2170  -18.5670 N.3    98  VAL98      -0.1245
     62  CA         8.0330  -20.6990  -17.6300 C.3    98  VAL98       0.1561
     63  C          9.4420  -20.6360  -18.2620 C.2    98  VAL98       0.2260
     64  O         10.2180  -19.7110  -17.9860 O.2    98  VAL98      -0.2867
     65  CB         8.0030  -21.5130  -16.3120 C.3    98  VAL98       0.0252
     66  CG1        8.4330  -22.9630  -16.5410 C.3    98  VAL98       0.0019
     67  CG2        8.8490  -20.8480  -15.2260 C.3    98  VAL98       0.0019
     68  N          9.6550  -17.6220  -20.2570 N.3   101  ASP101     -0.1239
     69  CA         9.1330  -16.4950  -19.4670 C.3   101  ASP101      0.1674
     70  C          7.9380  -15.8700  -20.1890 C.2   101  ASP101      0.2266
     71  O          7.8150  -14.6570  -20.2840 O.2   101  ASP101     -0.2867
     72  CB        10.2280  -15.4600  -19.1470 C.3   101  ASP101      0.1410
     73  CG         9.8430  -14.4920  -18.0380 C.2   101  ASP101      0.3668
     74  OD1        8.8930  -14.7660  -17.2720 O.co2 101  ASP101     -0.2456
     75  OD2       10.5260  -13.4490  -17.9160 O.co2 101  ASP101     -0.2456
     76  N         18.3120  -10.8360  -28.2770 N.3   143  ARG143     -0.1245
     77  CA        19.1350   -9.7840  -27.6740 C.3   143  ARG143      0.1563
     78  C         19.1230   -8.5440  -28.5730 C.2   143  ARG143      0.2260
     79  O         19.1670   -8.6790  -29.7850 O.2   143  ARG143     -0.2867
     80  CB        20.5880  -10.2550  -27.6020 C.3   143  ARG143      0.0307
     81  CG        20.9220  -11.1600  -26.4380 C.3   143  ARG143      0.0489
     82  CD        21.5830  -10.3670  -25.3200 C.3   143  ARG143      0.2205
     83  NE        21.4700  -11.0750  -24.0500 N.pl3 143  ARG143     -0.0865
     84  CZ        22.2780  -10.9050  -23.0090 C.cat 143  ARG143      0.5346
     85  NH1       23.2930  -10.0450  -23.0630 N.pl3 143  ARG143      0.1354
     86  NH2       22.0700  -11.6180  -21.9070 N.pl3 143  ARG143      0.1354
     87  N         18.4110    1.2810  -15.0000 N.3   152  ILE152     -0.1245
     88  CA        17.3940    0.2090  -15.0080 C.3   152  ILE152      0.1561
     89  C         16.0090    0.6650  -14.5190 C.2   152  ILE152      0.2260
     90  O         14.9960    0.0720  -14.8950 O.2   152  ILE152     -0.2867
     91  CB        17.8320   -1.0380  -14.2040 C.3   152  ILE152      0.0252
     92  CG1       18.2350   -0.6710  -12.7720 C.3   152  ILE152      0.0019
     93  CG2       18.9870   -1.7390  -14.8970 C.3   152  ILE152      0.0019
     94  CD1       18.3850   -1.8720  -11.8620 C.3   152  ILE152      0.0001
     95  N         13.4520    1.1890  -17.4190 N.3   155  LEU155     -0.1231
     96  CA        12.8250    0.0220  -18.0510 C.3   155  LEU155      0.1693
     97  C         11.9490   -0.8110  -17.1090 C.2   155  LEU155      0.2592
     98  O         11.1800   -1.6490  -17.5710 O.2   155  LEU155     -0.2718
     99  CB        13.8990   -0.8890  -18.6680 C.3   155  LEU155      0.0284
    100  CG        14.7880   -0.2430  -19.7390 C.3   155  LEU155      0.0019
    101  CD1       15.8990   -1.1850  -20.1830 C.3   155  LEU155      0.0001
    102  CD2       13.9390    0.1980  -20.9180 C.3   155  LEU155      0.0001
    103  N         12.0690   -0.5770  -15.8100 N.am  156  LYS156     -0.1966
    104  CA        11.2890   -1.2860  -14.8230 C.3   156  LYS156      0.1728
    105  C          9.8140   -1.2000  -15.1610 C.2   156  LYS156      0.2617
    106  O          9.3070   -0.1380  -15.4120 O.2   156  LYS156     -0.2715
    107  CB        11.5410   -0.7310  -13.4200 C.3   156  LYS156      0.0311
    108  CG        10.9330   -1.5460  -12.3010 C.3   156  LYS156      0.0038
    109  CD        11.2460   -0.9710  -10.9310 C.3   156  LYS156      0.0206
    110  CE        11.3060   -2.0450   -9.8650 C.3   156  LYS156      0.1093
    111  NZ         9.9490   -2.5060   -9.4970 N.3   156  LYS156     -0.1314
    112  N          9.1530   -2.3470  -15.1760 N.am  157  GLY157     -0.1940
    113  CA         7.7400   -2.4320  -15.4930 C.3   157  GLY157      0.2014
    114  C          7.3970   -2.4890  -16.9670 C.2   157  GLY157      0.2640
    115  O          6.2160   -2.4160  -17.3150 O.2   157  GLY157     -0.2714
    116  N          8.3960   -2.5930  -17.8440 N.am  158  SER158     -0.1935
    117  CA         8.1340   -2.6550  -19.2870 C.3   158  SER158      0.2055
    118  C          8.1450   -4.0660  -19.8680 C.2   158  SER158      0.2642
    119  O          7.7850   -4.2610  -21.0300 O.2   158  SER158     -0.2714
    120  CB         9.1100   -1.7470  -20.0500 C.3   158  SER158      0.2130
    121  OG         8.9430   -0.4010  -19.6430 O.3   158  SER158     -0.2179
    122  N          8.5150   -5.0480  -19.0510 N.am  159  ALA159     -0.1977
    123  CA         8.4430   -6.4620  -19.4460 C.3   159  ALA159      0.1597
    124  C          7.0420   -6.7720  -19.9550 C.2   159  ALA159      0.2287
    125  O          6.0460   -6.2830  -19.3980 O.2   159  ALA159     -0.2864
    126  CB         8.8140   -7.3770  -18.2820 C.3   159  ALA159      0.0319
    127  N          9.4900   -7.7260  -24.7800 N.3   174  PHE174     -0.1227
    128  CA        10.5800   -7.3970  -23.8610 C.3   174  PHE174      0.1736
    129  C         10.5320   -8.2980  -22.6180 C.2   174  PHE174      0.2595
    130  O          9.4810   -8.4340  -22.0120 O.2   174  PHE174     -0.2718
    131  CB        10.5080   -5.9240  -23.4770 C.3   174  PHE174      0.0547
    132  CG        11.5260   -5.4870  -22.4470 C.ar  174  PHE174     -0.0202
    133  CD1       12.8380   -5.9250  -22.4820 C.ar  174  PHE174     -0.0042
    134  CD2       11.1490   -4.6030  -21.4380 C.ar  174  PHE174     -0.0042
    135  CE1       13.7600   -5.4790  -21.5330 C.ar  174  PHE174     -0.0003
    136  CE2       12.0630   -4.1510  -20.4960 C.ar  174  PHE174     -0.0003
    137  CZ        13.3710   -4.5970  -20.5440 C.ar  174  PHE174     -0.0000
    138  N         11.6550   -8.8840  -22.2480 N.am  175  ARG175     -0.1966
    139  CA        11.7130   -9.8260  -21.1490 C.3   175  ARG175      0.1729
    140  C         12.5040   -9.2870  -19.9750 C.2   175  ARG175      0.2617
    141  O         12.0230   -9.2080  -18.8970 O.2   175  ARG175     -0.2715
    142  CB        12.3330  -11.1450  -21.6210 C.3   175  ARG175      0.0348
    143  CG        12.4390  -12.2220  -20.5640 C.3   175  ARG175      0.0492
    144  CD        12.8050  -13.5750  -21.1450 C.3   175  ARG175      0.2205
    145  NE        14.1060  -13.5870  -21.8030 N.pl3 175  ARG175     -0.0865
    146  CZ        15.2760  -13.6200  -21.1610 C.cat 175  ARG175      0.5346
    147  NH1       16.4100  -13.6260  -21.8480 N.pl3 175  ARG175      0.1354
    148  NH2       15.3200  -13.6710  -19.8380 N.pl3 175  ARG175      0.1354
    149  N         13.7490   -8.9300  -20.2260 N.am  176  THR176     -0.1937
    150  CA        14.6450   -8.5110  -19.1520 C.3   176  THR176      0.2028
    151  C         15.7240   -7.5610  -19.6530 C.2   176  THR176      0.2642
    152  O         16.1350   -7.6200  -20.8210 O.2   176  THR176     -0.2714
    153  CB        15.3070   -9.7210  -18.4550 C.3   176  THR176      0.1808
    154  OG1       16.3990  -10.1910  -19.2350 O.3   176  THR176     -0.2208
    155  CG2       14.3460  -10.8630  -18.2640 C.3   176  THR176      0.0379
    156  N         16.1760   -6.6850  -18.7570 N.am  177  ALA177     -0.1963
    157  CA        17.2190   -5.7160  -19.0630 C.3   177  ALA177      0.1728
    158  C         18.5140   -6.3290  -18.5860 C.2   177  ALA177      0.2616
    159  O         18.5590   -6.9880  -17.5430 O.2   177  ALA177     -0.2715
    160  CB        16.9580   -4.3960  -18.3470 C.3   177  ALA177      0.0334
    161  N         19.5670   -6.0930  -19.3570 N.am  178  VAL178     -0.1963
    162  CA        20.9030   -6.5400  -19.0210 C.3   178  VAL178      0.1727
    163  C         21.6260   -5.2880  -18.5670 C.2   178  VAL178      0.2616
    164  O         21.7150   -4.3100  -19.3100 O.2   178  VAL178     -0.2715
    165  CB        21.6100   -7.1450  -20.2450 C.3   178  VAL178      0.0290
    166  CG1       22.9270   -7.8030  -19.8390 C.3   178  VAL178      0.0023
    167  CG2       20.6700   -8.1250  -20.9400 C.3   178  VAL178      0.0023
    168  N         22.1130   -5.2960  -17.3380 N.am  179  SER179     -0.1950
    169  CA        22.7190   -4.0900  -16.7930 C.3   179  SER179      0.1924
    170  C         24.0420   -4.3520  -16.0950 C.2   179  SER179      0.2314
    171  O         24.3430   -5.4760  -15.6870 O.2   179  SER179     -0.2863
    172  CB        21.7560   -3.4160  -15.8250 C.3   179  SER179      0.2116
    173  OG        21.0470   -4.3910  -15.0940 O.3   179  SER179     -0.2180
    174  N         16.9580   -8.2610  -23.3200 N.3   188  ASP188     -0.1239
    175  CA        16.5900   -9.5860  -23.7460 C.3   188  ASP188      0.1674
    176  C         15.0910   -9.5920  -24.0440 C.2   188  ASP188      0.2266
    177  O         14.3230   -9.0550  -23.3020 O.2   188  ASP188     -0.2867
    178  CB        16.9360  -10.6230  -22.6850 C.3   188  ASP188      0.1410
    179  CG        18.4290  -10.8860  -22.5840 C.2   188  ASP188      0.3668
    180  OD1       19.1490  -10.6390  -23.5350 O.co2 188  ASP188     -0.2456
    181  OD2       18.8810  -11.3530  -21.5510 O.co2 188  ASP188     -0.2456
@<TRIPOS>BOND
     1    79    78    2
     2    78    77    1
     3    76    77    1
     4    77    80    1
     5    80    81    1
     6    81    82    1
     7    82    83    1
     8   127   128    1
     9    83    84    2
    10   176   175    1
    11   176   177    2
    12   128   131    1
    13   128   129    1
    14   175   174    1
    15   175   178    1
    16   180   179   ar
    17   131   132    1
    18    85    84    1
    19    84    86    1
    20   178   179    1
    21   129   138   am
    22   129   130    2
    23   179   181   ar
    24   133   132   ar
    25   133   135   ar
    26   132   134   ar
    27   138   139    1
    28   147   146    1
    29   145   146    2
    30   145   144    1
    31   142   139    1
    32   142   143    1
    33   135   137   ar
    34   134   136   ar
    35   146   148    1
    36   139   140    1
    37   144   143    1
    38   119   118    2
    39   167   165    1
    40   102   100    1
    41   152   151    2
    42   137   136   ar
    43    71    70    2
    44    68    69    1
    45   165   166    1
    46   165   162    1
    47   149   140   am
    48   149   150    1
    49    70    69    1
    50   101   100    1
    51   120   121    1
    52   120   117    1
    53   140   141    2
    54   124   123    1
    55   124   125    2
    56   118   117    1
    57   118   122   am
    58   100    99    1
    59    33    32    1
    60    28    29    1
    61   151   150    1
    62   151   156   am
    63    69    72    1
    64   123   122    1
    65   123   126    1
    66   161   162    1
    67   161   158   am
    68   164   163    2
    69   117   116    1
    70   154   153    1
    71   150   153    1
    72    72    73    1
    73   157   156    1
    74   157   158    1
    75   157   160    1
    76   162   163    1
    77    29    32    1
    78    29    30    1
    79    99    96    1
    80   158   159    2
    81    61    62    1
    82   163   168   am
    83    32    34    1
    84   153   155    1
    85    63    64    2
    86    63    62    1
    87    96    95    1
    88    96    97    1
    89    73    75   ar
    90    73    74   ar
    91   116   114   am
    92    30    35   am
    93    30    31    2
    94    35    36    1
    95    62    65    1
    96    19    20    2
    97    19    18    1
    98    98    97    2
    99   168   169    1
   100   115   114    2
   101    97   103   am
   102   114   113    1
   103    39    36    1
   104    39    40    1
   105   169   170    1
   106   169   172    1
   107    24    26   ar
   108    24    22   ar
   109    36    37    1
   110    66    65    1
   111    55    53   ar
   112    55    56   ar
   113    18    21    1
   114    18    17    1
   115    65    67    1
   116    26    27   ar
   117    21    22    1
   118    53    52   ar
   119   170   171    2
   120    42    40   ar
   121    42    44   ar
   122   172   173    1
   123   103   104    1
   124    40    41   ar
   125    22    23   ar
   126   113   112    1
   127   106   105    2
   128    56    54   ar
   129    47    37   am
   130    47    48    1
   131    37    38    2
   132   112   105   am
   133   105   104    1
   134    17    12   am
   135    88    87    1
   136    88    89    1
   137    88    91    1
   138    27    25   ar
   139    44    45   ar
   140    93    91    1
   141    90    89    2
   142    52    54   ar
   143    52    51    1
   144   104   107    1
   145    41    43   ar
   146    23    25   ar
   147    57    58    1
   148    57    49   am
   149    91    92    1
   150    51    48    1
   151    48    49    1
   152    12    13    2
   153    12    11    1
   154    16    14    1
   155    58    59    1
   156    45    43   ar
   157    45    46    1
   158    49    50    2
   159    59    60    2
   160   107   108    1
   161    11    14    1
   162    11    10    1
   163    92    94    1
   164    14    15    1
   165   108   109    1
   166    10     3   am
   167     4     3    2
   168     8     7    2
   169   109   110    1
   170     3     2    1
   171     5     2    1
   172     5     6    1
   173   110   111    1
   174     7     6    1
   175     7     9   am
   176     2     1    1
