@<TRIPOS>MOLECULE
tmp/3surA00.pdb
 154 151 0 0 0
SMALL
GASTEIGER

@<TRIPOS>ATOM
      1  N         32.3730    7.5340  -15.9350 N.3   172  ARG172     -0.1245
      2  CA        33.6240    7.3300  -15.1990 C.3   172  ARG172      0.1563
      3  C         33.5540    6.1270  -14.2600 C.2   172  ARG172      0.2260
      4  O         34.4930    5.3260  -14.2080 O.2   172  ARG172     -0.2867
      5  CB        34.0380    8.6130  -14.4640 C.3   172  ARG172      0.0307
      6  CG        34.8310    9.6260  -15.3620 C.3   172  ARG172      0.0489
      7  CD        34.1550    9.9530  -16.7190 C.3   172  ARG172      0.2205
      8  NE        35.0000   10.9130  -17.4270 N.pl3 172  ARG172     -0.0865
      9  CZ        34.9450   12.2240  -17.2230 C.cat 172  ARG172      0.5346
     10  NH1       35.7930   13.0200  -17.8520 N.pl3 172  ARG172      0.1354
     11  NH2       34.0200   12.7380  -16.4010 N.pl3 172  ARG172      0.1354
     12  N         31.7500    9.1150  -22.0910 N.3   201  ASP201     -0.1239
     13  CA        32.9750    9.8830  -21.9600 C.3   201  ASP201      0.1674
     14  C         34.1660    9.0550  -22.4590 C.2   201  ASP201      0.2266
     15  O         34.0130    8.1330  -23.2790 O.2   201  ASP201     -0.2867
     16  CB        33.1660   10.3300  -20.5040 C.3   201  ASP201      0.1410
     17  CG        33.9050   11.6660  -20.3880 C.2   201  ASP201      0.3668
     18  OD1       35.1460   11.7180  -20.6010 O.co2 201  ASP201     -0.2456
     19  OD2       33.2390   12.6750  -20.0530 O.co2 201  ASP201     -0.2456
     20  N         35.9350   14.2730  -25.2500 N.3   260  HIS260     -0.1241
     21  CA        35.4720   13.2840  -24.2800 C.3   260  HIS260      0.1621
     22  C         34.7960   12.0860  -24.9840 C.2   260  HIS260      0.2264
     23  O         33.7640   11.5530  -24.5300 O.2   260  HIS260     -0.2867
     24  CB        34.5400   13.9390  -23.2280 C.3   260  HIS260      0.0745
     25  CG        35.2710   14.7930  -22.2380 C.ar  260  HIS260      0.0817
     26  ND1       35.8520   14.2710  -21.1020 N.ar  260  HIS260     -0.2268
     27  CD2       35.5590   16.1190  -22.2350 C.ar  260  HIS260      0.1154
     28  CE1       36.4430   15.2410  -20.4220 C.ar  260  HIS260      0.1986
     29  NE2       36.2810   16.3750  -21.0880 N.ar  260  HIS260     -0.2212
     30  N         41.8500   14.3770  -19.1020 N.3   286  VAL286     -0.1245
     31  CA        40.8030   14.9430  -19.9670 C.3   286  VAL286      0.1561
     32  C         41.4210   15.7520  -21.1110 C.2   286  VAL286      0.2260
     33  O         42.5910   16.1450  -21.0250 O.2   286  VAL286     -0.2867
     34  CB        39.8000   15.8500  -19.1760 C.3   286  VAL286      0.0252
     35  CG1       39.1940   15.1000  -17.9540 C.3   286  VAL286      0.0019
     36  CG2       40.4670   17.1760  -18.7490 C.3   286  VAL286      0.0019
     37  N         32.5120   20.3300  -23.9740 N.3   323  ASP323     -0.1225
     38  CA        33.5660   20.7700  -23.0620 C.3   323  ASP323      0.1805
     39  C         34.9430   20.2060  -23.4400 C.2   323  ASP323      0.2597
     40  O         35.0420   19.1030  -23.9700 O.2   323  ASP323     -0.2718
     41  CB        33.2350   20.3130  -21.6330 C.3   323  ASP323      0.1424
     42  CG        33.0790   18.7800  -21.5100 C.2   323  ASP323      0.3668
     43  OD1       32.3350   18.1770  -22.3180 O.co2 323  ASP323     -0.2456
     44  OD2       33.6840   18.1720  -20.5960 O.co2 323  ASP323     -0.2456
     45  N         36.0030   20.9480  -23.1150 N.am  324  GLU324     -0.1979
     46  CA        37.3850   20.4230  -23.1730 C.3   324  GLU324      0.1602
     47  C         37.7390   19.6910  -24.4730 C.2   324  GLU324      0.2287
     48  O         38.2980   18.5900  -24.4500 O.2   324  GLU324     -0.2864
     49  CB        37.6330   19.5200  -21.9610 C.3   324  GLU324      0.0415
     50  CG        37.4940   20.3050  -20.6330 C.3   324  GLU324      0.1163
     51  CD        37.6580   19.4610  -19.3800 C.2   324  GLU324      0.3649
     52  OE1       37.4500   18.2240  -19.4090 O.co2 324  GLU324     -0.2457
     53  OE2       38.0020   20.0600  -18.3280 O.co2 324  GLU324     -0.2457
     54  N         27.8750   22.4970  -22.8210 N.3   354  TRP354     -0.1241
     55  CA        28.8090   23.2280  -21.9560 C.3   354  TRP354      0.1605
     56  C         29.4440   24.4210  -22.6960 C.2   354  TRP354      0.2264
     57  O         29.6310   24.3760  -23.9090 O.2   354  TRP354     -0.2867
     58  CB        29.9530   22.2980  -21.5000 C.3   354  TRP354      0.0550
     59  CG        29.5410   20.9760  -20.8920 C.ar  354  TRP354      0.0003
     60  CD1       29.5920   19.7440  -21.4900 C.ar  354  TRP354      0.0946
     61  CD2       29.0540   20.7540  -19.5600 C.ar  354  TRP354      0.0152
     62  NE1       29.1470   18.7830  -20.6260 N.ar  354  TRP354     -0.2442
     63  CE2       28.8130   19.3680  -19.4320 C.ar  354  TRP354      0.0810
     64  CE3       28.7940   21.5930  -18.4680 C.ar  354  TRP354      0.0012
     65  CZ2       28.3320   18.7890  -18.2520 C.ar  354  TRP354      0.0191
     66  CZ3       28.3150   21.0130  -17.2780 C.ar  354  TRP354      0.0001
     67  CH2       28.0880   19.6250  -17.1860 C.ar  354  TRP354      0.0015
     68  N         29.6370   26.4510  -16.9700 N.3   372  TRP372     -0.1241
     69  CA        30.4410   25.9610  -15.8340 C.3   372  TRP372      0.1605
     70  C         31.6570   26.8530  -15.5300 C.2   372  TRP372      0.2264
     71  O         32.0830   26.9500  -14.3840 O.2   372  TRP372     -0.2867
     72  CB        30.8920   24.5050  -16.0550 C.3   372  TRP372      0.0550
     73  CG        31.7330   24.2740  -17.3330 C.ar  372  TRP372      0.0003
     74  CD1       31.3060   24.3630  -18.6430 C.ar  372  TRP372      0.0946
     75  CD2       33.1280   23.9380  -17.3940 C.ar  372  TRP372      0.0152
     76  NE1       32.3550   24.0970  -19.5080 N.ar  372  TRP372     -0.2442
     77  CE2       33.4800   23.8320  -18.7700 C.ar  372  TRP372      0.0810
     78  CE3       34.1120   23.7170  -16.4260 C.ar  372  TRP372      0.0012
     79  CZ2       34.7710   23.5020  -19.1930 C.ar  372  TRP372      0.0191
     80  CZ3       35.4090   23.3770  -16.8470 C.ar  372  TRP372      0.0001
     81  CH2       35.7250   23.2770  -18.2220 C.ar  372  TRP372      0.0015
     82  N         29.6970   22.2780   -8.0960 N.3   397  TYR397     -0.1241
     83  CA        30.5610   21.1350   -8.4280 C.3   397  TYR397      0.1605
     84  C         30.7200   20.2540   -7.2000 C.2   397  TYR397      0.2264
     85  O         31.6750   20.3830   -6.4280 O.2   397  TYR397     -0.2867
     86  CB        31.9240   21.5980   -9.0150 C.3   397  TYR397      0.0534
     87  CG        31.8760   21.6010  -10.5090 C.ar  397  TYR397     -0.0201
     88  CD1       30.9860   22.4450  -11.1890 C.ar  397  TYR397     -0.0009
     89  CD2       32.6500   20.7010  -11.2590 C.ar  397  TYR397     -0.0009
     90  CE1       30.8780   22.4070  -12.5880 C.ar  397  TYR397      0.0417
     91  CE2       32.5680   20.6750  -12.6540 C.ar  397  TYR397      0.0417
     92  CZ        31.6610   21.5240  -13.3130 C.ar  397  TYR397      0.1957
     93  OH        31.5500   21.4900  -14.7010 O.3   397  TYR397     -0.2866
     94  N         31.3240   17.2100   -6.7530 N.3   399  ASP399     -0.1225
     95  CA        32.4380   16.2440   -6.7230 C.3   399  ASP399      0.1805
     96  C         33.7300   16.8200   -6.0790 C.2   399  ASP399      0.2597
     97  O         34.7010   16.0790   -5.8250 O.2   399  ASP399     -0.2718
     98  CB        32.7230   15.6950   -8.1410 C.3   399  ASP399      0.1424
     99  CG        33.2040   16.7820   -9.1070 C.2   399  ASP399      0.3668
    100  OD1       32.5850   17.8810   -9.1360 O.co2 399  ASP399     -0.2456
    101  OD2       34.2050   16.5360   -9.8240 O.co2 399  ASP399     -0.2456
    102  N         33.7390   18.1140   -5.7780 N.am  400  MET400     -0.1979
    103  CA        34.8650   18.7080   -5.0600 C.3   400  MET400      0.1605
    104  C         34.8890   18.1960   -3.6100 C.2   400  MET400      0.2287
    105  O         33.8460   18.1090   -2.9530 O.2   400  MET400     -0.2864
    106  CB        34.7910   20.2430   -5.0640 C.3   400  MET400      0.0413
    107  CG        35.0660   20.9520   -6.4420 C.3   400  MET400      0.0598
    108  SD        36.5330   20.3540   -7.3440 S.3   400  MET400     -0.1393
    109  CE        35.7450   19.4940   -8.6990 C.3   400  MET400      0.0692
    110  N         37.5550   15.5570   -6.0330 N.3   410  LEU410     -0.1245
    111  CA        38.6100   16.3080   -6.7100 C.3   410  LEU410      0.1561
    112  C         38.7770   17.6600   -6.0410 C.2   410  LEU410      0.2260
    113  O         38.1040   17.9490   -5.0320 O.2   410  LEU410     -0.2867
    114  CB        38.3040   16.4810   -8.2090 C.3   410  LEU410      0.0270
    115  CG        38.2670   15.1960   -9.0370 C.3   410  LEU410      0.0019
    116  CD1       38.0910   15.5220  -10.5500 C.3   410  LEU410      0.0001
    117  CD2       39.5180   14.3230   -8.7720 C.3   410  LEU410      0.0001
    118  N         40.1480   20.6050   -8.2580 N.3   412  TRP412     -0.1241
    119  CA        40.5860   21.5930   -9.2650 C.3   412  TRP412      0.1605
    120  C         39.7460   22.8910   -9.2500 C.2   412  TRP412      0.2264
    121  O         40.1420   23.8880   -9.8710 O.2   412  TRP412     -0.2867
    122  CB        40.6740   20.9820  -10.6700 C.3   412  TRP412      0.0550
    123  CG        39.3410   20.6150  -11.2290 C.ar  412  TRP412      0.0003
    124  CD1       38.6770   19.4300  -11.0550 C.ar  412  TRP412      0.0946
    125  CD2       38.4940   21.4360  -12.0450 C.ar  412  TRP412      0.0152
    126  NE1       37.4800   19.4600  -11.7240 N.ar  412  TRP412     -0.2442
    127  CE2       37.3400   20.6740  -12.3410 C.ar  412  TRP412      0.0810
    128  CE3       38.6040   22.7340  -12.5690 C.ar  412  TRP412      0.0012
    129  CZ2       36.2830   21.1770  -13.1120 C.ar  412  TRP412      0.0191
    130  CZ3       37.5470   23.2370  -13.3510 C.ar  412  TRP412      0.0001
    131  CH2       36.4130   22.4550  -13.6180 C.ar  412  TRP412      0.0015
    132  N         30.4140   14.6260  -11.0110 N.3   443  TRP443     -0.1241
    133  CA        31.4090   13.8470  -11.7760 C.3   443  TRP443      0.1605
    134  C         31.8810   12.6830  -10.9110 C.2   443  TRP443      0.2264
    135  O         31.8260   12.7750   -9.6790 O.2   443  TRP443     -0.2867
    136  CB        32.5790   14.7630  -12.1740 C.3   443  TRP443      0.0550
    137  CG        32.0850   15.9520  -12.9540 C.ar  443  TRP443      0.0003
    138  CD1       31.8650   17.2140  -12.4870 C.ar  443  TRP443      0.0946
    139  CD2       31.6980   15.9520  -14.3380 C.ar  443  TRP443      0.0152
    140  NE1       31.3750   18.0130  -13.4960 N.ar  443  TRP443     -0.2442
    141  CE2       31.2550   17.2660  -14.6430 C.ar  443  TRP443      0.0810
    142  CE3       31.6650   14.9560  -15.3460 C.ar  443  TRP443      0.0012
    143  CZ2       30.8050   17.6320  -15.9310 C.ar  443  TRP443      0.0191
    144  CZ3       31.2130   15.3060  -16.6230 C.ar  443  TRP443      0.0001
    145  CH2       30.7810   16.6400  -16.9030 C.ar  443  TRP443      0.0015
    146  N         34.9680   10.5030  -11.2740 N.3   445  GLU445     -0.1245
    147  CA        36.3710   10.0380  -11.2900 C.3   445  GLU445      0.1567
    148  C         36.7510    9.2370  -10.0460 C.2   445  GLU445      0.2260
    149  O         37.4480    8.2050  -10.1380 O.2   445  GLU445     -0.2867
    150  CB        37.3540   11.2160  -11.4150 C.3   445  GLU445      0.0388
    151  CG        37.5280   11.7400  -12.8470 C.3   445  GLU445      0.1160
    152  CD        36.5250   12.8030  -13.2520 C.2   445  GLU445      0.3649
    153  OE1       35.4600   12.9390  -12.6000 O.co2 445  GLU445     -0.2457
    154  OE2       36.8140   13.5140  -14.2420 O.co2 445  GLU445     -0.2457
@<TRIPOS>BOND
     1    20    21    1
     2    22    23    2
     3    22    21    1
     4    47    48    2
     5    47    46    1
     6    21    24    1
     7    37    38    1
     8    40    39    2
     9    57    56    2
    10    39    45   am
    11    39    38    1
    12    15    14    2
    13    24    25    1
    14    46    45    1
    15    46    49    1
    16    38    41    1
    17    54    55    1
    18    56    55    1
    19    14    13    1
    20    43    42   ar
    21    25    27   ar
    22    25    26   ar
    23    27    29   ar
    24    12    13    1
    25    49    50    1
    26    13    16    1
    27    55    58    1
    28    41    42    1
    29    42    44   ar
    30    58    59    1
    31    60    59   ar
    32    60    62   ar
    33    32    33    2
    34    32    31    1
    35    26    28   ar
    36    29    28   ar
    37    59    61   ar
    38    50    51    1
    39    62    63   ar
    40    18    17   ar
    41    16    17    1
    42    17    19   ar
    43    31    34    1
    44    31    30    1
    45    61    63   ar
    46    61    64   ar
    47    76    77   ar
    48    76    74   ar
    49    63    65   ar
    50    52    51   ar
    51    51    53   ar
    52    79    77   ar
    53    79    81   ar
    54    34    36    1
    55    34    35    1
    56    77    75   ar
    57    74    73   ar
    58    64    66   ar
    59    65    67   ar
    60    81    80   ar
    61    10     9    1
    62     8     9    2
    63     8     7    1
    64    75    73   ar
    65    75    78   ar
    66    73    72    1
    67    66    67   ar
    68     9    11    1
    69    68    69    1
    70   145   144   ar
    71   145   143   ar
    72    80    78   ar
    73     7     6    1
    74   144   142   ar
    75    72    69    1
    76     1     2    1
    77   143   141   ar
    78    69    70    1
    79    70    71    2
    80     6     5    1
    81   142   139   ar
    82     2     5    1
    83     2     3    1
    84    93    92    1
    85   141   139   ar
    86   141   140   ar
    87   139   137   ar
    88     3     4    2
    89   154   152   ar
    90   131   130   ar
    91   131   129   ar
    92   140   138   ar
    93   130   128   ar
    94    92    91   ar
    95    92    90   ar
    96   152   151    1
    97   152   153   ar
    98   129   127   ar
    99   137   138   ar
   100   137   136    1
   101   151   150    1
   102    91    89   ar
   103    90    88   ar
   104   128   125   ar
   105   127   125   ar
   106   127   126   ar
   107   136   133    1
   108   125   123   ar
   109   133   132    1
   110   133   134    1
   111   126   124   ar
   112   150   147    1
   113   147   146    1
   114   147   148    1
   115    89    87   ar
   116   123   124   ar
   117   123   122    1
   118    88    87   ar
   119   134   135    2
   120   122   119    1
   121   116   115    1
   122    87    86    1
   123   149   148    2
   124   121   120    2
   125   101    99   ar
   126   119   120    1
   127   119   118    1
   128   100    99   ar
   129    99    98    1
   130   115   117    1
   131   115   114    1
   132    86    83    1
   133   109   108    1
   134    83    82    1
   135    83    84    1
   136   114   111    1
   137    98    95    1
   138   108   107    1
   139    84    85    2
   140    94    95    1
   141    95    96    1
   142   111   112    1
   143   111   110    1
   144   107   106    1
   145    96    97    2
   146    96   102   am
   147   112   113    2
   148   102   103    1
   149   106   103    1
   150   103   104    1
   151   104   105    2
