@<TRIPOS>MOLECULE
tmp/3sutA00.pdb
 154 151 0 0 0
SMALL
GASTEIGER

@<TRIPOS>ATOM
      1  N         32.2990   -7.7050   15.9660 N.3   172  ARG172     -0.1245
      2  CA        33.5500   -7.5200   15.2190 C.3   172  ARG172      0.1563
      3  C         33.5010   -6.3110   14.2990 C.2   172  ARG172      0.2260
      4  O         34.4660   -5.5240   14.2380 O.2   172  ARG172     -0.2867
      5  CB        33.9250   -8.7990   14.4460 C.3   172  ARG172      0.0307
      6  CG        34.7480   -9.8220   15.3020 C.3   172  ARG172      0.0489
      7  CD        34.1640  -10.0700   16.7120 C.3   172  ARG172      0.2205
      8  NE        34.9630  -11.0890   17.3880 N.pl3 172  ARG172     -0.0865
      9  CZ        34.8220  -12.3970   17.2110 C.cat 172  ARG172      0.5346
     10  NH1       35.6420  -13.2220   17.8350 N.pl3 172  ARG172      0.1354
     11  NH2       33.8610  -12.8860   16.4290 N.pl3 172  ARG172      0.1354
     12  N         31.6930   -9.2900   22.0620 N.3   201  ASP201     -0.1239
     13  CA        32.8950  -10.0810   21.9450 C.3   201  ASP201      0.1674
     14  C         34.0900   -9.2480   22.4580 C.2   201  ASP201      0.2266
     15  O         33.9230   -8.3390   23.2730 O.2   201  ASP201     -0.2867
     16  CB        33.0800  -10.5550   20.5010 C.3   201  ASP201      0.1410
     17  CG        33.8150  -11.8930   20.4130 C.2   201  ASP201      0.3668
     18  OD1       35.0360  -11.9430   20.6490 O.co2 201  ASP201     -0.2456
     19  OD2       33.1600  -12.9050   20.1010 O.co2 201  ASP201     -0.2456
     20  N         35.8120  -14.4330   25.2950 N.3   260  HIS260     -0.1241
     21  CA        35.3540  -13.4650   24.3240 C.3   260  HIS260      0.1621
     22  C         34.6890  -12.2670   25.0110 C.2   260  HIS260      0.2264
     23  O         33.6680  -11.7460   24.5560 O.2   260  HIS260     -0.2867
     24  CB        34.4170  -14.1300   23.2950 C.3   260  HIS260      0.0745
     25  CG        35.1390  -14.9790   22.2940 C.ar  260  HIS260      0.0817
     26  ND1       35.6880  -14.4560   21.1390 N.ar  260  HIS260     -0.2268
     27  CD2       35.4140  -16.3070   22.2750 C.ar  260  HIS260      0.1154
     28  CE1       36.2590  -15.4300   20.4450 C.ar  260  HIS260      0.1986
     29  NE2       36.1120  -16.5610   21.1150 N.ar  260  HIS260     -0.2212
     30  N         41.6550  -14.6650   19.1340 N.3   286  VAL286     -0.1245
     31  CA        40.5840  -15.2150   19.9610 C.3   286  VAL286      0.1561
     32  C         41.2130  -16.0040   21.0980 C.2   286  VAL286      0.2260
     33  O         42.3910  -16.3840   21.0050 O.2   286  VAL286     -0.2867
     34  CB        39.5950  -16.1330   19.1640 C.3   286  VAL286      0.0252
     35  CG1       38.9690  -15.3940   17.9660 C.3   286  VAL286      0.0019
     36  CG2       40.2620  -17.4890   18.7270 C.3   286  VAL286      0.0019
     37  N         32.4220  -20.4960   24.0370 N.3   323  ASP323     -0.1225
     38  CA        33.4990  -20.9360   23.1490 C.3   323  ASP323      0.1805
     39  C         34.8540  -20.3360   23.5470 C.2   323  ASP323      0.2597
     40  O         34.9290  -19.1820   23.9880 O.2   323  ASP323     -0.2718
     41  CB        33.1880  -20.5340   21.6960 C.3   323  ASP323      0.1424
     42  CG        33.0490  -19.0190   21.5200 C.2   323  ASP323      0.3668
     43  OD1       32.3210  -18.3890   22.3340 O.co2 323  ASP323     -0.2456
     44  OD2       33.6430  -18.4650   20.5560 O.co2 323  ASP323     -0.2456
     45  N         35.9200  -21.1120   23.3450 N.am  324  GLU324     -0.1979
     46  CA        37.2900  -20.5880   23.3880 C.3   324  GLU324      0.1602
     47  C         37.6210  -19.8230   24.6680 C.2   324  GLU324      0.2287
     48  O         38.2190  -18.7420   24.6350 O.2   324  GLU324     -0.2864
     49  CB        37.5780  -19.7440   22.1340 C.3   324  GLU324      0.0415
     50  CG        37.5020  -20.6290   20.8720 C.3   324  GLU324      0.1163
     51  CD        37.4220  -19.8600   19.5760 C.2   324  GLU324      0.3649
     52  OE1       37.1520  -18.6390   19.5880 O.co2 324  GLU324     -0.2457
     53  OE2       37.6370  -20.5060   18.5240 O.co2 324  GLU324     -0.2457
     54  N         27.8210  -22.6690   22.9170 N.3   354  TRP354     -0.1241
     55  CA        28.7440  -23.3550   22.0140 C.3   354  TRP354      0.1605
     56  C         29.3660  -24.5440   22.7520 C.2   354  TRP354      0.2264
     57  O         29.5320  -24.4880   23.9780 O.2   354  TRP354     -0.2867
     58  CB        29.8910  -22.4070   21.6110 C.3   354  TRP354      0.0550
     59  CG        29.4760  -21.0870   20.9730 C.ar  354  TRP354      0.0003
     60  CD1       29.5320  -19.8530   21.5520 C.ar  354  TRP354      0.0946
     61  CD2       28.9930  -20.8800   19.6390 C.ar  354  TRP354      0.0152
     62  NE1       29.1080  -18.8940   20.6740 N.ar  354  TRP354     -0.2442
     63  CE2       28.7630  -19.4890   19.4930 C.ar  354  TRP354      0.0810
     64  CE3       28.7470  -21.7280   18.5470 C.ar  354  TRP354      0.0012
     65  CZ2       28.2780  -18.9230   18.3130 C.ar  354  TRP354      0.0191
     66  CZ3       28.2600  -21.1600   17.3610 C.ar  354  TRP354      0.0001
     67  CH2       28.0330  -19.7670   17.2580 C.ar  354  TRP354      0.0015
     68  N         29.5800  -26.5480   17.0070 N.3   372  TRP372     -0.1241
     69  CA        30.3860  -25.9900   15.9070 C.3   372  TRP372      0.1605
     70  C         31.6140  -26.8500   15.6050 C.2   372  TRP372      0.2264
     71  O         32.0980  -26.8720   14.4790 O.2   372  TRP372     -0.2867
     72  CB        30.7930  -24.5280   16.1830 C.3   372  TRP372      0.0550
     73  CG        31.6420  -24.3170   17.4380 C.ar  372  TRP372      0.0003
     74  CD1       31.2430  -24.4910   18.7520 C.ar  372  TRP372      0.0946
     75  CD2       33.0080  -23.8760   17.4950 C.ar  372  TRP372      0.0152
     76  NE1       32.2770  -24.1830   19.6020 N.ar  372  TRP372     -0.2442
     77  CE2       33.3750  -23.8170   18.8660 C.ar  372  TRP372      0.0810
     78  CE3       33.9530  -23.5290   16.5290 C.ar  372  TRP372      0.0012
     79  CZ2       34.6450  -23.4100   19.2940 C.ar  372  TRP372      0.0191
     80  CZ3       35.2320  -23.1090   16.9540 C.ar  372  TRP372      0.0001
     81  CH2       35.5620  -23.0590   18.3330 C.ar  372  TRP372      0.0015
     82  N         29.7280  -22.3510    8.1910 N.3   397  TYR397     -0.1241
     83  CA        30.5850  -21.2170    8.5170 C.3   397  TYR397      0.1605
     84  C         30.7120  -20.3080    7.2880 C.2   397  TYR397      0.2264
     85  O         31.6620  -20.4070    6.5050 O.2   397  TYR397     -0.2867
     86  CB        31.9610  -21.6750    9.1000 C.3   397  TYR397      0.0534
     87  CG        31.9330  -21.6730   10.6090 C.ar  397  TYR397     -0.0201
     88  CD1       30.9870  -22.4470   11.3140 C.ar  397  TYR397     -0.0009
     89  CD2       32.8030  -20.8690   11.3430 C.ar  397  TYR397     -0.0009
     90  CE1       30.9160  -22.4060   12.7090 C.ar  397  TYR397      0.0417
     91  CE2       32.7560  -20.8500   12.7450 C.ar  397  TYR397      0.0417
     92  CZ        31.8070  -21.6100   13.4130 C.ar  397  TYR397      0.1957
     93  OH        31.7360  -21.5620   14.7920 O.3   397  TYR397     -0.2866
     94  N         31.2820  -17.2770    6.7940 N.3   399  ASP399     -0.1225
     95  CA        32.4160  -16.3290    6.7550 C.3   399  ASP399      0.1805
     96  C         33.6720  -16.9340    6.0750 C.2   399  ASP399      0.2597
     97  O         34.6510  -16.2220    5.7880 O.2   399  ASP399     -0.2718
     98  CB        32.7650  -15.8240    8.1710 C.3   399  ASP399      0.1424
     99  CG        33.2250  -16.9420    9.1170 C.2   399  ASP399      0.3668
    100  OD1       32.5630  -18.0100    9.1440 O.co2 399  ASP399     -0.2456
    101  OD2       34.2460  -16.7350    9.8430 O.co2 399  ASP399     -0.2456
    102  N         33.6510  -18.2290    5.7940 N.am  400  MET400     -0.1979
    103  CA        34.7730  -18.8340    5.0680 C.3   400  MET400      0.1605
    104  C         34.7890  -18.3410    3.6190 C.2   400  MET400      0.2287
    105  O         33.7490  -18.2930    2.9380 O.2   400  MET400     -0.2864
    106  CB        34.7240  -20.3690    5.0820 C.3   400  MET400      0.0413
    107  CG        34.9920  -21.0720    6.4340 C.3   400  MET400      0.0598
    108  SD        36.4570  -20.4830    7.3430 S.3   400  MET400     -0.1393
    109  CE        35.6620  -19.6120    8.7100 C.3   400  MET400      0.0692
    110  N         37.5010  -15.6910    6.0440 N.3   410  LEU410     -0.1245
    111  CA        38.5500  -16.4220    6.7420 C.3   410  LEU410      0.1561
    112  C         38.7010  -17.7940    6.0690 C.2   410  LEU410      0.2260
    113  O         38.0250  -18.0860    5.0610 O.2   410  LEU410     -0.2867
    114  CB        38.2120  -16.5650    8.2330 C.3   410  LEU410      0.0270
    115  CG        38.1730  -15.3070    9.0930 C.3   410  LEU410      0.0019
    116  CD1       37.9770  -15.7040   10.5660 C.3   410  LEU410      0.0001
    117  CD2       39.4470  -14.4480    8.9220 C.3   410  LEU410      0.0001
    118  N         40.0470  -20.7330    8.2150 N.3   412  TRP412     -0.1241
    119  CA        40.4750  -21.7410    9.1930 C.3   412  TRP412      0.1605
    120  C         39.6950  -23.0830    9.1520 C.2   412  TRP412      0.2264
    121  O         40.1600  -24.0840    9.7090 O.2   412  TRP412     -0.2867
    122  CB        40.5560  -21.1580   10.6090 C.3   412  TRP412      0.0550
    123  CG        39.2190  -20.8910   11.2650 C.ar  412  TRP412      0.0003
    124  CD1       38.5010  -19.7280   11.2260 C.ar  412  TRP412      0.0946
    125  CD2       38.4590  -21.8060   12.0740 C.ar  412  TRP412      0.0152
    126  NE1       37.3380  -19.8630   11.9500 N.ar  412  TRP412     -0.2442
    127  CE2       37.2800  -21.1230   12.4810 C.ar  412  TRP412      0.0810
    128  CE3       38.6580  -23.1240   12.4960 C.ar  412  TRP412      0.0012
    129  CZ2       36.3040  -21.7260   13.2910 C.ar  412  TRP412      0.0191
    130  CZ3       37.6730  -23.7400   13.3070 C.ar  412  TRP412      0.0001
    131  CH2       36.5270  -23.0320   13.7030 C.ar  412  TRP412      0.0015
    132  N         30.3650  -14.7030   10.9830 N.3   443  TRP443     -0.1241
    133  CA        31.3330  -13.9450   11.7440 C.3   443  TRP443      0.1605
    134  C         31.8200  -12.7740   10.8920 C.2   443  TRP443      0.2264
    135  O         31.8450  -12.8650    9.6630 O.2   443  TRP443     -0.2867
    136  CB        32.4860  -14.8650   12.1510 C.3   443  TRP443      0.0550
    137  CG        31.9880  -16.0660   12.9370 C.ar  443  TRP443      0.0003
    138  CD1       31.8110  -17.3430   12.4740 C.ar  443  TRP443      0.0946
    139  CD2       31.5940  -16.0770   14.3190 C.ar  443  TRP443      0.0152
    140  NE1       31.3320  -18.1530   13.4770 N.ar  443  TRP443     -0.2442
    141  CE2       31.1900  -17.4060   14.6240 C.ar  443  TRP443      0.0810
    142  CE3       31.5400  -15.0900   15.3290 C.ar  443  TRP443      0.0012
    143  CZ2       30.7530  -17.7810   15.8960 C.ar  443  TRP443      0.0191
    144  CZ3       31.0980  -15.4540   16.5970 C.ar  443  TRP443      0.0001
    145  CH2       30.7070  -16.8060   16.8720 C.ar  443  TRP443      0.0015
    146  N         34.8830  -10.6200   11.3150 N.3   445  GLU445     -0.1245
    147  CA        36.2860  -10.1580   11.3130 C.3   445  GLU445      0.1567
    148  C         36.6650   -9.3550   10.0770 C.2   445  GLU445      0.2260
    149  O         37.3770   -8.3370   10.1850 O.2   445  GLU445     -0.2867
    150  CB        37.2710  -11.3330   11.4160 C.3   445  GLU445      0.0388
    151  CG        37.4570  -11.8870   12.8480 C.3   445  GLU445      0.1160
    152  CD        36.4150  -12.9120   13.2820 C.2   445  GLU445      0.3649
    153  OE1       35.3820  -13.1090   12.5870 O.co2 445  GLU445     -0.2457
    154  OE2       36.6450  -13.5310   14.3420 O.co2 445  GLU445     -0.2457
@<TRIPOS>BOND
     1   105   104    2
     2   104   103    1
     3   113   112    2
     4   103   106    1
     5   103   102    1
     6   106   107    1
     7    97    96    2
     8   102    96   am
     9   110   111    1
    10   112   111    1
    11    96    95    1
    12   107   108    1
    13    85    84    2
    14   111   114    1
    15    95    94    1
    16    95    98    1
    17    84    83    1
    18   108   109    1
    19    98    99    1
    20    82    83    1
    21   118   119    1
    22   114   115    1
    23    83    86    1
    24   117   115    1
    25   115   116    1
    26    86    87    1
    27    99   100   ar
    28    99   101   ar
    29   120   119    1
    30   120   121    2
    31   119   122    1
    32   135   134    2
    33   148   149    2
    34   148   147    1
    35    87    88   ar
    36    87    89   ar
    37   122   123    1
    38   134   133    1
    39   132   133    1
    40   124   123   ar
    41   124   126   ar
    42   123   125   ar
    43   147   146    1
    44   147   150    1
    45    88    90   ar
    46    89    91   ar
    47   150   151    1
    48   133   136    1
    49   126   127   ar
    50   125   127   ar
    51   125   128   ar
    52   136   137    1
    53   138   137   ar
    54   138   140   ar
    55   127   129   ar
    56   128   130   ar
    57   153   152   ar
    58    90    92   ar
    59    91    92   ar
    60   151   152    1
    61   137   139   ar
    62   152   154   ar
    63   129   131   ar
    64   130   131   ar
    65    92    93    1
    66   140   141   ar
    67     4     3    2
    68     3     2    1
    69   139   141   ar
    70   139   142   ar
    71     5     2    1
    72     5     6    1
    73    71    70    2
    74   141   143   ar
    75     2     1    1
    76     6     7    1
    77   142   144   ar
    78    70    69    1
    79   143   145   ar
    80    69    72    1
    81    69    68    1
    82    72    73    1
    83    11     9    1
    84    78    80   ar
    85    78    75   ar
    86   144   145   ar
    87     7     8    1
    88    80    81   ar
    89     9     8    2
    90     9    10    1
    91    67    66   ar
    92    67    65   ar
    93    66    64   ar
    94    73    75   ar
    95    73    74   ar
    96    75    77   ar
    97    35    34    1
    98    65    63   ar
    99    81    79   ar
   100    53    51   ar
   101    64    61   ar
   102    36    34    1
   103    74    76   ar
   104    77    79   ar
   105    77    76   ar
   106    30    31    1
   107    34    31    1
   108    63    61   ar
   109    63    62   ar
   110    51    52   ar
   111    51    50    1
   112    61    59   ar
   113    31    32    1
   114    19    17   ar
   115    17    16    1
   116    17    18   ar
   117    28    29   ar
   118    28    26   ar
   119    16    13    1
   120    44    42   ar
   121    62    60   ar
   122    50    49    1
   123    59    60   ar
   124    59    58    1
   125    33    32    2
   126    29    27   ar
   127    26    25   ar
   128    42    41    1
   129    42    43   ar
   130    58    55    1
   131    41    38    1
   132    13    12    1
   133    13    14    1
   134    55    56    1
   135    55    54    1
   136    49    46    1
   137    27    25   ar
   138    25    24    1
   139    14    15    2
   140    56    57    2
   141    38    39    1
   142    38    37    1
   143    24    21    1
   144    45    46    1
   145    45    39   am
   146    46    47    1
   147    39    40    2
   148    21    22    1
   149    21    20    1
   150    23    22    2
   151    48    47    2
