@<TRIPOS>MOLECULE
tmp/3suvA00.pdb
 145 142 0 0 0
SMALL
GASTEIGER

@<TRIPOS>ATOM
      1  N         32.3320    7.7180  -15.8680 N.3   172  ARG172     -0.1245
      2  CA        33.5970    7.5030  -15.1510 C.3   172  ARG172      0.1563
      3  C         33.5150    6.2920  -14.2390 C.2   172  ARG172      0.2260
      4  O         34.4570    5.5010  -14.1620 O.2   172  ARG172     -0.2867
      5  CB        34.0050    8.7550  -14.3770 C.3   172  ARG172      0.0307
      6  CG        34.7710    9.7970  -15.2140 C.3   172  ARG172      0.0489
      7  CD        34.1440   10.1180  -16.5870 C.3   172  ARG172      0.2205
      8  NE        34.9670   11.1080  -17.2830 N.pl3 172  ARG172     -0.0865
      9  CZ        34.8820   12.4180  -17.0790 C.cat 172  ARG172      0.5346
     10  NH1       35.6980   13.2460  -17.7180 N.pl3 172  ARG172      0.1354
     11  NH2       33.9920   12.9010  -16.2200 N.pl3 172  ARG172      0.1354
     12  N         31.6770    9.2200  -22.0380 N.3   201  ASP201     -0.1239
     13  CA        32.8860   10.0020  -21.8590 C.3   201  ASP201      0.1674
     14  C         34.0580    9.1720  -22.3760 C.2   201  ASP201      0.2266
     15  O         33.8620    8.2420  -23.1630 O.2   201  ASP201     -0.2867
     16  CB        33.0620   10.4150  -20.3960 C.3   201  ASP201      0.1410
     17  CG        33.8440   11.7080  -20.2450 C.2   201  ASP201      0.3668
     18  OD1       35.0710   11.6840  -20.4640 O.co2 201  ASP201     -0.2456
     19  OD2       33.2330   12.7520  -19.9170 O.co2 201  ASP201     -0.2456
     20  N         35.8230   14.2990  -25.1900 N.3   260  HIS260     -0.1241
     21  CA        35.3490   13.3070  -24.2180 C.3   260  HIS260      0.1621
     22  C         34.7000   12.1050  -24.9020 C.2   260  HIS260      0.2264
     23  O         33.6890   11.5710  -24.4450 O.2   260  HIS260     -0.2867
     24  CB        34.4110   13.9750  -23.1940 C.3   260  HIS260      0.0745
     25  CG        35.1490   14.7900  -22.1840 C.ar  260  HIS260      0.0817
     26  ND1       35.7630   14.2200  -21.0900 N.ar  260  HIS260     -0.2268
     27  CD2       35.4200   16.1170  -22.1230 C.ar  260  HIS260      0.1154
     28  CE1       36.3680   15.1630  -20.3870 C.ar  260  HIS260      0.1986
     29  NE2       36.1690   16.3240  -20.9870 N.ar  260  HIS260     -0.2212
     30  N         42.1610    9.2340  -15.6360 N.3   284  THR284     -0.1218
     31  CA        41.2770   10.3860  -15.4410 C.3   284  THR284      0.1862
     32  C         41.6760   11.6210  -16.2620 C.2   284  THR284      0.2287
     33  O         41.1260   12.7120  -16.0660 O.2   284  THR284     -0.2866
     34  CB        41.1850   10.7670  -13.9460 C.3   284  THR284      0.1770
     35  OG1       42.4910   11.0970  -13.4550 O.3   284  THR284     -0.2211
     36  CG2       40.6060    9.6190  -13.1360 C.3   284  THR284      0.0375
     37  N         41.9060   14.2830  -19.3280 N.3   286  VAL286     -0.1245
     38  CA        40.8650   14.8560  -20.1790 C.3   286  VAL286      0.1561
     39  C         41.4780   15.6500  -21.3290 C.2   286  VAL286      0.2260
     40  O         42.6690   15.9960  -21.2980 O.2   286  VAL286     -0.2867
     41  CB        39.9150   15.8060  -19.3820 C.3   286  VAL286      0.0252
     42  CG1       39.2830   15.1020  -18.1670 C.3   286  VAL286      0.0019
     43  CG2       40.6420   17.1110  -18.9640 C.3   286  VAL286      0.0019
     44  N         32.4840   20.2710  -23.9570 N.3   323  ASP323     -0.1225
     45  CA        33.5180   20.7070  -23.0110 C.3   323  ASP323      0.1805
     46  C         34.8840   20.1140  -23.3610 C.2   323  ASP323      0.2597
     47  O         34.9650   18.9950  -23.8760 O.2   323  ASP323     -0.2718
     48  CB        33.1600   20.2640  -21.5880 C.3   323  ASP323      0.1424
     49  CG        33.0200   18.7570  -21.4650 C.2   323  ASP323      0.3668
     50  OD1       32.2770   18.1700  -22.2700 O.co2 323  ASP323     -0.2456
     51  OD2       33.6290   18.1640  -20.5540 O.co2 323  ASP323     -0.2456
     52  N         35.9480   20.8660  -23.0530 N.am  324  GLU324     -0.1979
     53  CA        37.3160   20.3420  -23.1080 C.3   324  GLU324      0.1602
     54  C         37.6500   19.6510  -24.4320 C.2   324  GLU324      0.2287
     55  O         38.2820   18.5920  -24.4530 O.2   324  GLU324     -0.2864
     56  CB        37.5880   19.4090  -21.9100 C.3   324  GLU324      0.0415
     57  CG        37.5670   20.1470  -20.5810 C.3   324  GLU324      0.1163
     58  CD        37.8210   19.2570  -19.3820 C.2   324  GLU324      0.3649
     59  OE1       37.4490   18.0680  -19.4180 O.co2 324  GLU324     -0.2457
     60  OE2       38.3920   19.7650  -18.3870 O.co2 324  GLU324     -0.2457
     61  N         27.8100   22.5070  -22.9370 N.3   354  TRP354     -0.1241
     62  CA        28.7170   23.1800  -22.0050 C.3   354  TRP354      0.1605
     63  C         29.3510   24.3750  -22.7080 C.2   354  TRP354      0.2264
     64  O         29.5860   24.3070  -23.9200 O.2   354  TRP354     -0.2867
     65  CB        29.8580   22.2320  -21.6080 C.3   354  TRP354      0.0550
     66  CG        29.4380   20.9430  -20.9680 C.ar  354  TRP354      0.0003
     67  CD1       29.4910   19.6980  -21.5340 C.ar  354  TRP354      0.0946
     68  CD2       28.9420   20.7540  -19.6330 C.ar  354  TRP354      0.0152
     69  NE1       29.0420   18.7490  -20.6460 N.ar  354  TRP354     -0.2442
     70  CE2       28.7030   19.3680  -19.4690 C.ar  354  TRP354      0.0810
     71  CE3       28.6890   21.6180  -18.5550 C.ar  354  TRP354      0.0012
     72  CZ2       28.2040   18.8290  -18.2810 C.ar  354  TRP354      0.0191
     73  CZ3       28.2020   21.0780  -17.3690 C.ar  354  TRP354      0.0001
     74  CH2       27.9650   19.6930  -17.2410 C.ar  354  TRP354      0.0015
     75  N         29.5620   26.4060  -17.0680 N.3   372  TRP372     -0.1241
     76  CA        30.3530   25.8530  -15.9580 C.3   372  TRP372      0.1605
     77  C         31.5750   26.7100  -15.6260 C.2   372  TRP372      0.2264
     78  O         31.9920   26.7920  -14.4690 O.2   372  TRP372     -0.2867
     79  CB        30.7560   24.3880  -16.2120 C.3   372  TRP372      0.0550
     80  CG        31.6160   24.1510  -17.4500 C.ar  372  TRP372      0.0003
     81  CD1       31.2380   24.3130  -18.7590 C.ar  372  TRP372      0.0946
     82  CD2       32.9760   23.6890  -17.4820 C.ar  372  TRP372      0.0152
     83  NE1       32.2840   23.9960  -19.6000 N.ar  372  TRP372     -0.2442
     84  CE2       33.3620   23.6100  -18.8440 C.ar  372  TRP372      0.0810
     85  CE3       33.9110   23.3420  -16.4930 C.ar  372  TRP372      0.0012
     86  CZ2       34.6390   23.1950  -19.2410 C.ar  372  TRP372      0.0191
     87  CZ3       35.1880   22.9280  -16.8920 C.ar  372  TRP372      0.0001
     88  CH2       35.5370   22.8560  -18.2540 C.ar  372  TRP372      0.0015
     89  N         29.6610   22.2900   -8.1850 N.3   397  TYR397     -0.1241
     90  CA        30.4930   21.1290   -8.5370 C.3   397  TYR397      0.1605
     91  C         30.6450   20.2620   -7.2890 C.2   397  TYR397      0.2264
     92  O         31.6150   20.3710   -6.5240 O.2   397  TYR397     -0.2867
     93  CB        31.8460   21.5570   -9.1630 C.3   397  TYR397      0.0534
     94  CG        31.7590   21.5610  -10.6740 C.ar  397  TYR397     -0.0201
     95  CD1       30.8490   22.3970  -11.3300 C.ar  397  TYR397     -0.0009
     96  CD2       32.5390   20.7010  -11.4490 C.ar  397  TYR397     -0.0009
     97  CE1       30.7230   22.3840  -12.7200 C.ar  397  TYR397      0.0417
     98  CE2       32.4330   20.6900  -12.8500 C.ar  397  TYR397      0.0417
     99  CZ        31.5150   21.5330  -13.4750 C.ar  397  TYR397      0.1957
    100  OH        31.3700   21.5210  -14.8440 O.3   397  TYR397     -0.2866
    101  N         37.4300   15.5060   -6.0750 N.3   410  LEU410     -0.1245
    102  CA        38.4940   16.2420   -6.7540 C.3   410  LEU410      0.1561
    103  C         38.6430   17.6200   -6.1210 C.2   410  LEU410      0.2260
    104  O         37.9710   17.9380   -5.1380 O.2   410  LEU410     -0.2867
    105  CB        38.2260   16.3530   -8.2620 C.3   410  LEU410      0.0270
    106  CG        38.2510   15.0450   -9.0650 C.3   410  LEU410      0.0019
    107  CD1       38.0380   15.3640  -10.5430 C.3   410  LEU410      0.0001
    108  CD2       39.5640   14.3100   -8.8760 C.3   410  LEU410      0.0001
    109  N         39.9530   20.5710   -8.3020 N.3   412  TRP412     -0.1241
    110  CA        40.3890   21.5360   -9.3220 C.3   412  TRP412      0.1605
    111  C         39.5550   22.8320   -9.3500 C.2   412  TRP412      0.2264
    112  O         39.9350   23.7870  -10.0320 O.2   412  TRP412     -0.2867
    113  CB        40.4880   20.8870  -10.7130 C.3   412  TRP412      0.0550
    114  CG        39.1870   20.3820  -11.2160 C.ar  412  TRP412      0.0003
    115  CD1       38.6560   19.1460  -11.0020 C.ar  412  TRP412      0.0946
    116  CD2       38.2400   21.0970  -12.0190 C.ar  412  TRP412      0.0152
    117  NE1       37.4320   19.0420  -11.6200 N.ar  412  TRP412     -0.2442
    118  CE2       37.1490   20.2230  -12.2500 C.ar  412  TRP412      0.0810
    119  CE3       38.2110   22.3890  -12.5760 C.ar  412  TRP412      0.0012
    120  CZ2       36.0290   20.5990  -13.0040 C.ar  412  TRP412      0.0191
    121  CZ3       37.0930   22.7630  -13.3270 C.ar  412  TRP412      0.0001
    122  CH2       36.0220   21.8640  -13.5370 C.ar  412  TRP412      0.0015
    123  N         30.3780   14.6500  -10.9480 N.3   443  TRP443     -0.1241
    124  CA        31.3510   13.8620  -11.7180 C.3   443  TRP443      0.1605
    125  C         31.8360   12.7040  -10.8630 C.2   443  TRP443      0.2264
    126  O         31.8150   12.7960   -9.6350 O.2   443  TRP443     -0.2867
    127  CB        32.5050   14.7660  -12.1500 C.3   443  TRP443      0.0550
    128  CG        31.9620   15.9350  -12.9210 C.ar  443  TRP443      0.0003
    129  CD1       31.7160   17.1950  -12.4470 C.ar  443  TRP443      0.0946
    130  CD2       31.5410   15.9300  -14.2930 C.ar  443  TRP443      0.0152
    131  NE1       31.1840   17.9810  -13.4460 N.ar  443  TRP443     -0.2442
    132  CE2       31.0740   17.2320  -14.5900 C.ar  443  TRP443      0.0810
    133  CE3       31.5290   14.9540  -15.3010 C.ar  443  TRP443      0.0012
    134  CZ2       30.5920   17.5850  -15.8550 C.ar  443  TRP443      0.0191
    135  CZ3       31.0680   15.3040  -16.5680 C.ar  443  TRP443      0.0001
    136  CH2       30.5960   16.6080  -16.8300 C.ar  443  TRP443      0.0015
    137  N         34.8860   10.5810  -11.2080 N.3   445  GLU445     -0.1245
    138  CA        36.2620   10.0690  -11.2780 C.3   445  GLU445      0.1567
    139  C         36.6590    9.2710  -10.0430 C.2   445  GLU445      0.2260
    140  O         37.3690    8.2650  -10.1570 O.2   445  GLU445     -0.2867
    141  CB        37.2850   11.1960  -11.4580 C.3   445  GLU445      0.0388
    142  CG        37.4530   11.6830  -12.8870 C.3   445  GLU445      0.1160
    143  CD        36.4840   12.7910  -13.2740 C.2   445  GLU445      0.3649
    144  OE1       35.4640   12.9940  -12.5730 O.co2 445  GLU445     -0.2457
    145  OE2       36.7500   13.4570  -14.2990 O.co2 445  GLU445     -0.2457
@<TRIPOS>BOND
     1    20    21    1
     2    22    23    2
     3    22    21    1
     4    55    54    2
     5    54    53    1
     6    21    24    1
     7    44    45    1
     8    64    63    2
     9    47    46    2
    10    46    52   am
    11    46    45    1
    12    24    25    1
    13    15    14    2
    14    53    52    1
    15    53    56    1
    16    45    48    1
    17    61    62    1
    18    63    62    1
    19    14    13    1
    20    50    49   ar
    21    25    27   ar
    22    25    26   ar
    23    27    29   ar
    24    12    13    1
    25    62    65    1
    26    56    57    1
    27    13    16    1
    28    65    66    1
    29    48    49    1
    30    67    66   ar
    31    67    69   ar
    32    49    51   ar
    33    39    40    2
    34    39    38    1
    35    26    28   ar
    36    29    28   ar
    37    66    68   ar
    38    69    70   ar
    39    57    58    1
    40    18    17   ar
    41    16    17    1
    42    17    19   ar
    43    38    41    1
    44    38    37    1
    45    68    70   ar
    46    68    71   ar
    47    83    84   ar
    48    83    81   ar
    49    70    72   ar
    50    59    58   ar
    51    58    60   ar
    52    41    43    1
    53    41    42    1
    54    86    84   ar
    55    86    88   ar
    56    84    82   ar
    57    81    80   ar
    58    71    73   ar
    59    72    74   ar
    60    88    87   ar
    61    10     9    1
    62    82    80   ar
    63    82    85   ar
    64    80    79    1
    65    73    74   ar
    66     8     9    2
    67     8     7    1
    68     9    11    1
    69    75    76    1
    70    87    85   ar
    71   136   135   ar
    72   136   134   ar
    73     7     6    1
    74   135   133   ar
    75    32    33    2
    76    32    31    1
    77    79    76    1
    78    76    77    1
    79     1     2    1
    80   134   132   ar
    81    30    31    1
    82    77    78    2
    83    31    34    1
    84   133   130   ar
    85     6     5    1
    86     2     5    1
    87     2     3    1
    88   100    99    1
    89   132   130   ar
    90   132   131   ar
    91   145   143   ar
    92   130   128   ar
    93     3     4    2
    94    34    35    1
    95    34    36    1
    96   122   121   ar
    97   122   120   ar
    98    99    98   ar
    99    99    97   ar
   100   131   129   ar
   101   121   119   ar
   102   143   142    1
   103   143   144   ar
   104   120   118   ar
   105   128   129   ar
   106   128   127    1
   107   142   141    1
   108    98    96   ar
   109    97    95   ar
   110   119   116   ar
   111   118   116   ar
   112   118   117   ar
   113   127   124    1
   114   116   114   ar
   115   124   123    1
   116   124   125    1
   117   117   115   ar
   118   141   138    1
   119    96    94   ar
   120    95    94   ar
   121   138   137    1
   122   138   139    1
   123   114   115   ar
   124   114   113    1
   125   125   126    2
   126   113   110    1
   127    94    93    1
   128   107   106    1
   129   140   139    2
   130   112   111    2
   131   111   110    1
   132   110   109    1
   133    93    90    1
   134   106   108    1
   135   106   105    1
   136    90    89    1
   137    90    91    1
   138   105   102    1
   139    91    92    2
   140   102   103    1
   141   102   101    1
   142   103   104    2
