@<TRIPOS>MOLECULE
tmp/3suwA00.pdb
 153 149 0 0 0
SMALL
GASTEIGER

@<TRIPOS>ATOM
      1  N         32.3990    7.6700  -15.8520 N.3   172  ARG172     -0.1245
      2  CA        33.6380    7.4580  -15.0890 C.3   172  ARG172      0.1563
      3  C         33.5490    6.2450  -14.1440 C.2   172  ARG172      0.2260
      4  O         34.5080    5.4630  -14.0380 O.2   172  ARG172     -0.2867
      5  CB        34.0460    8.7230  -14.3460 C.3   172  ARG172      0.0307
      6  CG        34.8110    9.7990  -15.1820 C.3   172  ARG172      0.0489
      7  CD        34.1490   10.1420  -16.5230 C.3   172  ARG172      0.2205
      8  NE        34.9660   11.1210  -17.2310 N.pl3 172  ARG172     -0.0865
      9  CZ        34.8850   12.4320  -17.0020 C.cat 172  ARG172      0.5346
     10  NH1       35.6810   13.2610  -17.6440 N.pl3 172  ARG172      0.1354
     11  NH2       33.9860   12.9140  -16.1470 N.pl3 172  ARG172      0.1354
     12  N         31.7540    9.1670  -21.9200 N.3   201  ASP201     -0.1239
     13  CA        32.9670    9.9500  -21.7670 C.3   201  ASP201      0.1674
     14  C         34.1510    9.1040  -22.2680 C.2   201  ASP201      0.2266
     15  O         33.9670    8.1360  -23.0250 O.2   201  ASP201     -0.2867
     16  CB        33.1260   10.4060  -20.3100 C.3   201  ASP201      0.1410
     17  CG        33.9070   11.7200  -20.1730 C.2   201  ASP201      0.3668
     18  OD1       35.1390   11.7330  -20.4100 O.co2 201  ASP201     -0.2456
     19  OD2       33.2770   12.7420  -19.8010 O.co2 201  ASP201     -0.2456
     20  N         35.9210   14.3050  -25.1010 N.3   260  HIS260     -0.1241
     21  CA        35.4620   13.2920  -24.1450 C.3   260  HIS260      0.1621
     22  C         34.8050   12.0890  -24.8410 C.2   260  HIS260      0.2264
     23  O         33.7860   11.5670  -24.3880 O.2   260  HIS260     -0.2867
     24  CB        34.5190   13.9170  -23.0900 C.3   260  HIS260      0.0745
     25  CG        35.2280   14.8110  -22.1240 C.ar  260  HIS260      0.0817
     26  ND1       35.7850   14.3350  -20.9520 N.ar  260  HIS260     -0.2268
     27  CD2       35.5150   16.1370  -22.1730 C.ar  260  HIS260      0.1154
     28  CE1       36.3590   15.3380  -20.3050 C.ar  260  HIS260      0.1986
     29  NE2       36.2220   16.4400  -21.0310 N.ar  260  HIS260     -0.2212
     30  N         42.4680    9.4290  -15.7000 N.3   284  THR284     -0.1218
     31  CA        41.5990   10.5880  -15.5400 C.3   284  THR284      0.1862
     32  C         42.0650   11.7930  -16.3470 C.2   284  THR284      0.2287
     33  O         41.6260   12.9270  -16.1250 O.2   284  THR284     -0.2866
     34  CB        41.4340   10.9720  -14.0660 C.3   284  THR284      0.1770
     35  OG1       42.7180   11.2790  -13.5050 O.3   284  THR284     -0.2211
     36  CG2       40.7900    9.8470  -13.2860 C.3   284  THR284      0.0375
     37  N         41.6420   13.9940  -19.6310 N.3   286  VAL286     -0.1245
     38  CA        42.2970   15.3150  -19.5280 C.3   286  VAL286      0.1561
     39  C         42.2750   16.0470  -20.9270 C.2   286  VAL286      0.2260
     40  O         43.2460   16.6740  -21.3210 O.2   286  VAL286     -0.2867
     41  CB        43.6620   15.3400  -18.7120 C.3   286  VAL286      0.0252
     42  CG1       44.8900   14.9280  -19.5620 C.3   286  VAL286      0.0019
     43  CG2       43.8980   16.7090  -18.0330 C.3   286  VAL286      0.0019
     44  N         32.5210   20.3260  -23.8630 N.3   323  ASP323     -0.1225
     45  CA        33.5560   20.7910  -22.9330 C.3   323  ASP323      0.1805
     46  C         34.9410   20.2330  -23.2890 C.2   323  ASP323      0.2597
     47  O         35.0410   19.1270  -23.8100 O.2   323  ASP323     -0.2718
     48  CB        33.2070   20.3370  -21.5140 C.3   323  ASP323      0.1424
     49  CG        33.0860   18.8000  -21.3910 C.2   323  ASP323      0.3668
     50  OD1       32.3600   18.1920  -22.2090 O.co2 323  ASP323     -0.2456
     51  OD2       33.6950   18.2040  -20.4740 O.co2 323  ASP323     -0.2456
     52  N         36.0050   20.9820  -22.9620 N.am  324  GLU324     -0.1979
     53  CA        37.3870   20.4940  -23.1070 C.3   324  GLU324      0.1602
     54  C         37.6970   19.7590  -24.4250 C.2   324  GLU324      0.2287
     55  O         38.2860   18.6710  -24.4090 O.2   324  GLU324     -0.2864
     56  CB        37.7310   19.5720  -21.9310 C.3   324  GLU324      0.0415
     57  CG        37.5730   20.2430  -20.5710 C.3   324  GLU324      0.1163
     58  CD        37.9490   19.3390  -19.4210 C.2   324  GLU324      0.3649
     59  OE1       37.7160   18.1100  -19.5110 O.co2 324  GLU324     -0.2457
     60  OE2       38.4560   19.8710  -18.3960 O.co2 324  GLU324     -0.2457
     61  N         27.8610   22.4900  -22.7730 N.3   354  TRP354     -0.1241
     62  CA        28.7930   23.2130  -21.9010 C.3   354  TRP354      0.1605
     63  C         29.4400   24.3940  -22.6580 C.2   354  TRP354      0.2264
     64  O         29.6240   24.3040  -23.8680 O.2   354  TRP354     -0.2867
     65  CB        29.9230   22.2690  -21.4560 C.3   354  TRP354      0.0550
     66  CG        29.4980   20.9670  -20.8380 C.ar  354  TRP354      0.0003
     67  CD1       29.5070   19.7340  -21.4430 C.ar  354  TRP354      0.0946
     68  CD2       28.9940   20.7540  -19.5090 C.ar  354  TRP354      0.0152
     69  NE1       29.0670   18.7780  -20.5740 N.ar  354  TRP354     -0.2442
     70  CE2       28.7440   19.3630  -19.3810 C.ar  354  TRP354      0.0810
     71  CE3       28.7630   21.5920  -18.4060 C.ar  354  TRP354      0.0012
     72  CZ2       28.2340   18.7870  -18.2090 C.ar  354  TRP354      0.0191
     73  CZ3       28.2720   21.0100  -17.2080 C.ar  354  TRP354      0.0001
     74  CH2       28.0070   19.6250  -17.1330 C.ar  354  TRP354      0.0015
     75  N         29.6410   26.3870  -16.9490 N.3   372  TRP372     -0.1241
     76  CA        30.4280   25.8400  -15.8470 C.3   372  TRP372      0.1605
     77  C         31.6370   26.6830  -15.5100 C.2   372  TRP372      0.2264
     78  O         32.0320   26.7530  -14.3480 O.2   372  TRP372     -0.2867
     79  CB        30.8360   24.3820  -16.0850 C.3   372  TRP372      0.0550
     80  CG        31.7220   24.1360  -17.3250 C.ar  372  TRP372      0.0003
     81  CD1       31.3630   24.2740  -18.6520 C.ar  372  TRP372      0.0946
     82  CD2       33.0940   23.7190  -17.3240 C.ar  372  TRP372      0.0152
     83  NE1       32.4360   23.9450  -19.4740 N.ar  372  TRP372     -0.2442
     84  CE2       33.5060   23.6000  -18.6800 C.ar  372  TRP372      0.0810
     85  CE3       34.0100   23.4180  -16.3110 C.ar  372  TRP372      0.0012
     86  CZ2       34.7970   23.2130  -19.0380 C.ar  372  TRP372      0.0191
     87  CZ3       35.3020   23.0160  -16.6700 C.ar  372  TRP372      0.0001
     88  CH2       35.6840   22.9140  -18.0270 C.ar  372  TRP372      0.0015
     89  N         29.6480   22.2610   -8.1370 N.3   397  TYR397     -0.1241
     90  CA        30.4760   21.0860   -8.4360 C.3   397  TYR397      0.1605
     91  C         30.6200   20.2170   -7.1900 C.2   397  TYR397      0.2264
     92  O         31.6050   20.3090   -6.4610 O.2   397  TYR397     -0.2867
     93  CB        31.8420   21.5010   -9.0270 C.3   397  TYR397      0.0534
     94  CG        31.8050   21.4980  -10.5250 C.ar  397  TYR397     -0.0201
     95  CD1       30.8850   22.3130  -11.2120 C.ar  397  TYR397     -0.0009
     96  CD2       32.6500   20.6640  -11.2730 C.ar  397  TYR397     -0.0009
     97  CE1       30.8010   22.3020  -12.6060 C.ar  397  TYR397      0.0417
     98  CE2       32.5850   20.6540  -12.6890 C.ar  397  TYR397      0.0417
     99  CZ        31.6410   21.4770  -13.3400 C.ar  397  TYR397      0.1957
    100  OH        31.5250   21.4880  -14.7180 O.3   397  TYR397     -0.2866
    101  N         31.2070   17.2360   -6.5820 N.3   399  ASP399     -0.1239
    102  CA        32.2760   16.2230   -6.5280 C.3   399  ASP399      0.1674
    103  C         33.5790   16.7650   -5.9130 C.2   399  ASP399      0.2266
    104  O         34.5250   15.9990   -5.6500 O.2   399  ASP399     -0.2867
    105  CB        32.5410   15.6380   -7.9290 C.3   399  ASP399      0.1410
    106  CG        33.0320   16.6780   -8.9200 C.2   399  ASP399      0.3668
    107  OD1       32.3600   17.7420   -9.0570 O.co2 399  ASP399     -0.2456
    108  OD2       34.1030   16.4300   -9.5470 O.co2 399  ASP399     -0.2456
    109  N         37.4620   15.4480   -5.9490 N.3   410  LEU410     -0.1245
    110  CA        38.5230   16.1990   -6.6220 C.3   410  LEU410      0.1561
    111  C         38.6870   17.5680   -5.9820 C.2   410  LEU410      0.2260
    112  O         38.0280   17.8820   -4.9780 O.2   410  LEU410     -0.2867
    113  CB        38.2660   16.3100   -8.1490 C.3   410  LEU410      0.0270
    114  CG        38.3080   14.9680   -8.9190 C.3   410  LEU410      0.0019
    115  CD1       38.1360   15.2030  -10.4360 C.3   410  LEU410      0.0001
    116  CD2       39.6290   14.1850   -8.6050 C.3   410  LEU410      0.0001
    117  N         40.0220   20.4880   -8.2120 N.3   412  TRP412     -0.1241
    118  CA        40.4450   21.4450   -9.2540 C.3   412  TRP412      0.1605
    119  C         39.5920   22.7320   -9.2980 C.2   412  TRP412      0.2264
    120  O         39.9430   23.6760  -10.0100 O.2   412  TRP412     -0.2867
    121  CB        40.5520   20.7780  -10.6430 C.3   412  TRP412      0.0550
    122  CG        39.2360   20.2140  -11.1030 C.ar  412  TRP412      0.0003
    123  CD1       38.7380   18.9720  -10.8170 C.ar  412  TRP412      0.0946
    124  CD2       38.2520   20.8660  -11.9110 C.ar  412  TRP412      0.0152
    125  NE1       37.4940   18.8240  -11.3900 N.ar  412  TRP412     -0.2442
    126  CE2       37.1750   19.9680  -12.0670 C.ar  412  TRP412      0.0810
    127  CE3       38.1720   22.1360  -12.5230 C.ar  412  TRP412      0.0012
    128  CZ2       36.0170   20.2920  -12.8050 C.ar  412  TRP412      0.0191
    129  CZ3       37.0250   22.4520  -13.2630 C.ar  412  TRP412      0.0001
    130  CH2       35.9620   21.5320  -13.3820 C.ar  412  TRP412      0.0015
    131  N         30.4170   14.5770  -10.8270 N.3   443  TRP443     -0.1241
    132  CA        31.3860   13.8150  -11.6030 C.3   443  TRP443      0.1605
    133  C         31.8930   12.6830  -10.7390 C.2   443  TRP443      0.2264
    134  O         31.8770   12.7970   -9.5000 O.2   443  TRP443     -0.2867
    135  CB        32.5380   14.7180  -12.0120 C.3   443  TRP443      0.0550
    136  CG        32.0270   15.8860  -12.7920 C.ar  443  TRP443      0.0003
    137  CD1       31.8480   17.1550  -12.3430 C.ar  443  TRP443      0.0946
    138  CD2       31.5970   15.8660  -14.1580 C.ar  443  TRP443      0.0152
    139  NE1       31.3290   17.9340  -13.3370 N.ar  443  TRP443     -0.2442
    140  CE2       31.1620   17.1700  -14.4680 C.ar  443  TRP443      0.0810
    141  CE3       31.5390   14.8640  -15.1550 C.ar  443  TRP443      0.0012
    142  CZ2       30.6700   17.5150  -15.7340 C.ar  443  TRP443      0.0191
    143  CZ3       31.0560   15.1960  -16.4070 C.ar  443  TRP443      0.0001
    144  CH2       30.6390   16.5270  -16.6940 C.ar  443  TRP443      0.0015
    145  N         34.9420   10.5490  -11.1150 N.3   445  GLU445     -0.1245
    146  CA        36.3250   10.0300  -11.1630 C.3   445  GLU445      0.1567
    147  C         36.6930    9.2000   -9.9240 C.2   445  GLU445      0.2260
    148  O         37.3380    8.1380  -10.0470 O.2   445  GLU445     -0.2867
    149  CB        37.3380   11.1630  -11.3190 C.3   445  GLU445      0.0388
    150  CG        37.5030   11.6540  -12.7600 C.3   445  GLU445      0.1160
    151  CD        36.5300   12.7530  -13.1550 C.2   445  GLU445      0.3649
    152  OE1       35.5170   12.9780  -12.4490 O.co2 445  GLU445     -0.2457
    153  OE2       36.7940   13.4160  -14.1770 O.co2 445  GLU445     -0.2457
@<TRIPOS>BOND
     1    20    21    1
     2    22    23    2
     3    22    21    1
     4    54    55    2
     5    54    53    1
     6    21    24    1
     7    64    63    2
     8    44    45    1
     9    47    46    2
    10    46    52   am
    11    46    45    1
    12    53    52    1
    13    53    56    1
    14    24    25    1
    15    15    14    2
    16    45    48    1
    17    61    62    1
    18    63    62    1
    19    14    13    1
    20    50    49   ar
    21    27    25   ar
    22    27    29   ar
    23    25    26   ar
    24    56    57    1
    25    12    13    1
    26    62    65    1
    27    13    16    1
    28    48    49    1
    29    65    66    1
    30    67    66   ar
    31    67    69   ar
    32    49    51   ar
    33    40    39    2
    34    29    28   ar
    35    26    28   ar
    36    39    38    1
    37    66    68   ar
    38    69    70   ar
    39    57    58    1
    40    18    17   ar
    41    16    17    1
    42    17    19   ar
    43    37    38    1
    44    42    41    1
    45    38    41    1
    46    59    58   ar
    47    68    70   ar
    48    68    71   ar
    49    83    84   ar
    50    83    81   ar
    51    58    60   ar
    52    70    72   ar
    53    86    84   ar
    54    86    88   ar
    55    41    43    1
    56    84    82   ar
    57    81    80   ar
    58    71    73   ar
    59    72    74   ar
    60    88    87   ar
    61    10     9    1
    62    80    82   ar
    63    80    79    1
    64    82    85   ar
    65     8     9    2
    66     8     7    1
    67    73    74   ar
    68     9    11    1
    69    75    76    1
    70   144   143   ar
    71   144   142   ar
    72    87    85   ar
    73     7     6    1
    74   143   141   ar
    75    32    33    2
    76    32    31    1
    77    79    76    1
    78     1     2    1
    79    76    77    1
    80   142   140   ar
    81    30    31    1
    82    31    34    1
    83    77    78    2
    84     6     5    1
    85   141   138   ar
    86     2     5    1
    87     2     3    1
    88   100    99    1
    89   140   138   ar
    90   140   139   ar
    91   153   151   ar
    92   138   136   ar
    93     3     4    2
    94    34    35    1
    95    34    36    1
    96   130   129   ar
    97   130   128   ar
    98    99    98   ar
    99    99    97   ar
   100   139   137   ar
   101   129   127   ar
   102   151   150    1
   103   151   152   ar
   104   128   126   ar
   105   136   137   ar
   106   136   135    1
   107   150   149    1
   108    98    96   ar
   109    97    95   ar
   110   127   124   ar
   111   126   124   ar
   112   126   125   ar
   113   135   132    1
   114   124   122   ar
   115   132   131    1
   116   132   133    1
   117   125   123   ar
   118   149   146    1
   119    96    94   ar
   120    95    94   ar
   121   146   145    1
   122   146   147    1
   123   122   123   ar
   124   122   121    1
   125   133   134    2
   126   121   118    1
   127    94    93    1
   128   115   114    1
   129   148   147    2
   130   120   119    2
   131   108   106   ar
   132   119   118    1
   133   118   117    1
   134   107   106   ar
   135    93    90    1
   136   106   105    1
   137   114   116    1
   138   114   113    1
   139    90    89    1
   140    90    91    1
   141   113   110    1
   142   105   102    1
   143    91    92    2
   144   110   111    1
   145   110   109    1
   146   101   102    1
   147   102   103    1
   148   111   112    2
   149   103   104    2
