@<TRIPOS>MOLECULE
tmp/3sv1B00.pdb
 243 235 0 0 0
SMALL
GASTEIGER

@<TRIPOS>ATOM
      1  N          4.0980  -13.1400  -45.8520 N.3    25  ARG25      -0.1231
      2  CA         3.6950  -11.9180  -46.5480 C.3    25  ARG25       0.1694
      3  C          2.1720  -11.9180  -46.6520 C.2    25  ARG25       0.2592
      4  O          1.5210  -10.8780  -46.5080 O.2    25  ARG25      -0.2718
      5  CB         4.3220  -11.8690  -47.9360 C.3    25  ARG25       0.0321
      6  CG         5.7630  -11.3220  -47.8070 C.3    25  ARG25       0.0489
      7  CD         6.4250  -11.3750  -49.1870 C.3    25  ARG25       0.2205
      8  NE         5.6880  -10.4820  -50.1180 N.pl3  25  ARG25      -0.0865
      9  CZ         4.9090  -10.9590  -51.1220 C.cat  25  ARG25       0.5346
     10  NH1        4.8220  -12.2510  -51.3900 N.pl3  25  ARG25       0.1354
     11  NH2        4.3100   -9.9620  -51.8310 N.pl3  25  ARG25       0.1354
     12  N          1.6210  -13.1030  -46.9020 N.am   26  ASN26      -0.1974
     13  CA         0.1790  -13.3180  -47.0130 C.3    26  ASN26       0.1688
     14  C         -0.0630  -14.7570  -47.4560 C.2    26  ASN26       0.2292
     15  O         -0.3370  -15.0290  -48.6250 O.2    26  ASN26      -0.2864
     16  CB        -0.4680  -12.3360  -48.0060 C.3    26  ASN26       0.1181
     17  CG         0.1340  -12.4130  -49.3980 C.2    26  ASN26       0.2629
     18  OD1        1.3280  -12.1800  -49.5820 O.2    26  ASN26      -0.2716
     19  ND2       -0.6980  -12.7310  -50.3900 N.am   26  ASN26      -0.0877
     20  N         -5.3000  -19.5440  -46.7710 N.3    29  LYS29      -0.1245
     21  CA        -6.3270  -19.6350  -45.7410 C.3    29  LYS29       0.1561
     22  C         -6.2260  -20.9980  -45.0390 C.2    29  LYS29       0.2260
     23  O         -6.9000  -21.2430  -44.0360 O.2    29  LYS29      -0.2867
     24  CB        -7.7160  -19.4490  -46.3600 C.3    29  LYS29       0.0271
     25  CG        -8.0210  -18.1450  -47.0900 C.3    29  LYS29       0.0035
     26  CD        -7.9540  -17.0850  -46.0510 C.3    29  LYS29       0.0206
     27  CE        -8.0630  -15.8270  -46.9490 C.3    29  LYS29       0.1093
     28  NZ        -7.2500  -14.7730  -46.3230 N.3    29  LYS29      -0.1314
     29  N         -3.7730  -19.2320  -42.5580 N.3    32  ARG32      -0.1245
     30  CA        -4.2990  -18.0740  -41.8470 C.3    32  ARG32       0.1563
     31  C         -5.2660  -18.6550  -40.8490 C.2    32  ARG32       0.2260
     32  O         -5.4380  -18.1170  -39.7590 O.2    32  ARG32      -0.2867
     33  CB        -5.0450  -17.1150  -42.7760 C.3    32  ARG32       0.0307
     34  CG        -4.1840  -16.0010  -43.3290 C.3    32  ARG32       0.0489
     35  CD        -3.3510  -15.3560  -42.2320 C.3    32  ARG32       0.2205
     36  NE        -2.6540  -14.1690  -42.7090 N.pl3  32  ARG32      -0.0865
     37  CZ        -3.2740  -13.0820  -43.1530 C.cat  32  ARG32       0.5346
     38  NH1       -4.5990  -13.0480  -43.1750 N.pl3  32  ARG32       0.1354
     39  NH2       -2.5750  -12.0360  -43.5750 N.pl3  32  ARG32       0.1354
     40  N         -8.3470    0.0200  -40.0070 N.3    88  LEU88      -0.1231
     41  CA        -8.9010   -1.1250  -40.7230 C.3    88  LEU88       0.1693
     42  C         -7.9470   -1.8180  -41.6820 C.2    88  LEU88       0.2592
     43  O         -7.9700   -3.0450  -41.8180 O.2    88  LEU88      -0.2718
     44  CB       -10.1620   -0.7280  -41.4840 C.3    88  LEU88       0.0284
     45  CG       -10.8080   -1.9490  -42.1420 C.3    88  LEU88       0.0019
     46  CD1      -11.1650   -2.9510  -41.0720 C.3    88  LEU88       0.0001
     47  CD2      -12.0380   -1.5440  -42.9320 C.3    88  LEU88       0.0001
     48  N         -7.1130   -1.0340  -42.3520 N.am   89  ARG89      -0.1966
     49  CA        -6.1600   -1.5980  -43.2970 C.3    89  ARG89       0.1729
     50  C         -5.1700   -2.5840  -42.6590 C.2    89  ARG89       0.2617
     51  O         -4.6060   -3.4370  -43.3500 O.2    89  ARG89      -0.2715
     52  CB        -5.4060   -0.4700  -44.0220 C.3    89  ARG89       0.0348
     53  CG        -4.9040    0.6700  -43.1430 C.3    89  ARG89       0.0492
     54  CD        -4.1920    1.7080  -44.0040 C.3    89  ARG89       0.2205
     55  NE        -3.8170    2.9130  -43.2670 N.pl3  89  ARG89      -0.0865
     56  CZ        -3.1800    3.9530  -43.8040 C.cat  89  ARG89       0.5346
     57  NH1       -2.8420    3.9390  -45.0880 N.pl3  89  ARG89       0.1354
     58  NH2       -2.8820    5.0110  -43.0600 N.pl3  89  ARG89       0.1354
     59  N         -4.9780   -2.4770  -41.3450 N.am   90  THR90      -0.1937
     60  CA        -4.0540   -3.3530  -40.6190 C.3    90  THR90       0.2028
     61  C         -4.6250   -4.7530  -40.4420 C.2    90  THR90       0.2642
     62  O         -3.9440   -5.7450  -40.6910 O.2    90  THR90      -0.2714
     63  CB        -3.7350   -2.7920  -39.2230 C.3    90  THR90       0.1808
     64  OG1       -4.9030   -2.8680  -38.3970 O.3    90  THR90      -0.2208
     65  CG2       -3.3050   -1.3400  -39.3210 C.3    90  THR90       0.0379
     66  N         -5.8760   -4.8240  -39.9960 N.am   91  ILE91      -0.1963
     67  CA        -6.5330   -6.1080  -39.8010 C.3    91  ILE91       0.1727
     68  C         -6.4100   -6.8220  -41.1380 C.2    91  ILE91       0.2617
     69  O         -6.3910   -6.1780  -42.1870 O.2    91  ILE91      -0.2715
     70  CB        -8.0390   -5.9420  -39.3900 C.3    91  ILE91       0.0290
     71  CG1       -8.1500   -5.2620  -38.0180 C.3    91  ILE91       0.0022
     72  CG2       -8.7230   -7.3030  -39.2980 C.3    91  ILE91       0.0023
     73  CD1       -7.7970   -3.7790  -37.9940 C.3    91  ILE91       0.0001
     74  N         -6.3010   -8.1440  -41.1010 N.am   92  SER92      -0.1936
     75  CA        -6.1390   -8.9020  -42.3230 C.3    92  SER92       0.2055
     76  C         -6.6890  -10.3090  -42.2330 C.2    92  SER92       0.2643
     77  O         -6.1550  -11.2150  -42.8610 O.2    92  SER92      -0.2714
     78  CB        -4.6590   -8.9780  -42.6720 C.3    92  SER92       0.2130
     79  OG        -3.9640   -9.6870  -41.6630 O.3    92  SER92      -0.2179
     80  N         -7.7480  -10.4970  -41.4590 N.am   93  TYR93      -0.1959
     81  CA        -8.3410  -11.8160  -41.3220 C.3    93  TYR93       0.1771
     82  C         -9.2530  -11.8670  -40.1040 C.2    93  TYR93       0.2619
     83  O         -9.0380  -11.1390  -39.1430 O.2    93  TYR93      -0.2715
     84  CB        -7.2370  -12.8740  -41.2070 C.3    93  TYR93       0.0574
     85  CG        -7.7640  -14.2690  -41.1530 C.ar   93  TYR93      -0.0198
     86  CD1       -8.0850  -14.8560  -39.9420 C.ar   93  TYR93      -0.0009
     87  CD2       -8.0090  -14.9830  -42.3170 C.ar   93  TYR93      -0.0009
     88  CE1       -8.6440  -16.1200  -39.8850 C.ar   93  TYR93       0.0417
     89  CE2       -8.5710  -16.2510  -42.2730 C.ar   93  TYR93       0.0417
     90  CZ        -8.8890  -16.8130  -41.0530 C.ar   93  TYR93       0.1957
     91  OH        -9.4750  -18.0570  -40.9920 O.3    93  TYR93      -0.2866
     92  N        -10.2800  -12.7120  -40.1550 N.am   94  ILE94      -0.1963
     93  CA       -11.2130  -12.8560  -39.0370 C.3    94  ILE94       0.1727
     94  C        -11.7130  -14.2980  -38.9190 C.2    94  ILE94       0.2616
     95  O        -11.5500  -15.0810  -39.8510 O.2    94  ILE94      -0.2715
     96  CB       -12.4060  -11.9150  -39.1900 C.3    94  ILE94       0.0290
     97  CG1      -13.2780  -12.3600  -40.3590 C.3    94  ILE94       0.0022
     98  CG2      -11.9130  -10.5010  -39.4150 C.3    94  ILE94       0.0023
     99  CD1      -14.5220  -11.5220  -40.5320 C.3    94  ILE94       0.0001
    100  N        -12.3400  -14.6480  -37.7960 N.am   95  ALA95      -0.1963
    101  CA       -12.7820  -16.0270  -37.5890 C.3    95  ALA95       0.1728
    102  C        -14.1810  -16.2940  -37.0260 C.2    95  ALA95       0.2616
    103  O        -14.3710  -16.3620  -35.8120 O.2    95  ALA95      -0.2715
    104  CB       -11.7510  -16.7400  -36.7160 C.3    95  ALA95       0.0334
    105  N        -15.1580  -16.4770  -37.9050 N.am   96  ASP96      -0.1957
    106  CA       -16.5080  -16.7770  -37.4530 C.3    96  ASP96       0.1840
    107  C        -16.5480  -18.2570  -37.0970 C.2    96  ASP96       0.2621
    108  O        -17.2390  -19.0440  -37.7420 O.2    96  ASP96      -0.2715
    109  CB       -17.5340  -16.4670  -38.5530 C.3    96  ASP96       0.1450
    110  CG       -17.1600  -17.0680  -39.9020 C.2    96  ASP96       0.3671
    111  OD1      -16.0980  -16.6990  -40.4470 O.co2  96  ASP96      -0.2456
    112  OD2      -17.9290  -17.9040  -40.4240 O.co2  96  ASP96      -0.2456
    113  N        -15.7910  -18.6310  -36.0710 N.am   97  ILE97      -0.1977
    114  CA       -15.7200  -20.0250  -35.6380 C.3    97  ILE97       0.1596
    115  C        -16.1980  -20.1780  -34.1970 C.2    97  ILE97       0.2287
    116  O        -15.8740  -19.3470  -33.3440 O.2    97  ILE97      -0.2864
    117  CB       -14.2630  -20.5670  -35.7830 C.3    97  ILE97       0.0276
    118  CG1      -13.6010  -20.8010  -34.4120 C.3    97  ILE97       0.0022
    119  CG2      -13.4320  -19.5770  -36.5870 C.3    97  ILE97       0.0022
    120  CD1      -14.0220  -22.0960  -33.7050 C.3    97  ILE97       0.0001
    121  N         -1.5210   -6.6300  -38.2650 N.3   106  ARG106     -0.1231
    122  CA        -0.0730   -6.4620  -38.1840 C.3   106  ARG106      0.1694
    123  C          0.3120   -5.4800  -37.0880 C.2   106  ARG106      0.2591
    124  O         -0.3160   -4.4350  -36.9320 O.2   106  ARG106     -0.2718
    125  CB         0.4740   -5.9890  -39.5210 C.3   106  ARG106      0.0321
    126  CG         1.9710   -6.1090  -39.6880 C.3   106  ARG106      0.0489
    127  CD         2.4300   -5.3130  -40.9010 C.3   106  ARG106      0.2205
    128  NE         1.5270   -5.4680  -42.0430 N.pl3 106  ARG106     -0.0865
    129  CZ         0.7230   -4.5090  -42.5000 C.cat 106  ARG106      0.5346
    130  NH1        0.7040   -3.3170  -41.9150 N.pl3 106  ARG106      0.1354
    131  NH2       -0.0670   -4.7440  -43.5400 N.pl3 106  ARG106      0.1354
    132  N          1.3480   -5.8210  -36.3320 N.am  107  ARG107     -0.1980
    133  CA         1.8090   -4.9660  -35.2490 C.3   107  ARG107      0.1597
    134  C          2.2540   -3.6150  -35.7980 C.2   107  ARG107      0.2287
    135  O          2.4760   -2.6660  -35.0420 O.2   107  ARG107     -0.2864
    136  CB         2.9730   -5.6340  -34.5110 C.3   107  ARG107      0.0334
    137  CG         3.3090   -5.0020  -33.1630 C.3   107  ARG107      0.0492
    138  CD         2.2140   -5.2800  -32.1480 C.3   107  ARG107      0.2205
    139  NE         2.4630   -4.6450  -30.8570 N.pl3 107  ARG107     -0.0865
    140  CZ         1.6820   -4.8030  -29.7930 C.cat 107  ARG107      0.5346
    141  NH1        0.6070   -5.5770  -29.8690 N.pl3 107  ARG107      0.1354
    142  NH2        1.9710   -4.1850  -28.6550 N.pl3 107  ARG107      0.1354
    143  N          7.2950  -10.7750  -39.8180 N.3   110  TYR110     -0.1241
    144  CA         6.0180  -10.0700  -39.6720 C.3   110  TYR110      0.1605
    145  C          5.3220  -10.5470  -38.3870 C.2   110  TYR110      0.2264
    146  O          4.9150  -11.7120  -38.2970 O.2   110  TYR110     -0.2867
    147  CB         5.0940  -10.3350  -40.8790 C.3   110  TYR110      0.0534
    148  CG         5.5650   -9.7630  -42.2070 C.ar  110  TYR110     -0.0201
    149  CD1        6.6650  -10.3030  -42.8740 C.ar  110  TYR110     -0.0009
    150  CD2        4.8990   -8.6920  -42.8030 C.ar  110  TYR110     -0.0009
    151  CE1        7.0920   -9.7960  -44.0990 C.ar  110  TYR110      0.0417
    152  CE2        5.3190   -8.1750  -44.0310 C.ar  110  TYR110      0.0417
    153  CZ         6.4170   -8.7350  -44.6710 C.ar  110  TYR110      0.1957
    154  OH         6.8440   -8.2380  -45.8800 O.3   110  TYR110     -0.2866
    155  N          2.2280  -10.6710  -36.1860 N.3   112  MET112     -0.1245
    156  CA         0.7770  -10.5160  -36.2290 C.3   112  MET112      0.1570
    157  C          0.0930  -10.9270  -34.9160 C.2   112  MET112      0.2261
    158  O          0.0590  -12.1090  -34.5580 O.2   112  MET112     -0.2867
    159  CB         0.2120  -11.3400  -37.3920 C.3   112  MET112      0.0387
    160  CG         0.5420  -10.7740  -38.7650 C.3   112  MET112      0.0595
    161  SD        -0.4040   -9.2940  -39.1360 S.3   112  MET112     -0.1393
    162  CE        -2.0180  -10.0070  -39.4560 C.3   112  MET112      0.0692
    163  N        -20.7410  -15.4950  -35.3450 N.3   123  GLN123     -0.1245
    164  CA       -20.9260  -15.5660  -36.7830 C.3   123  GLN123      0.1566
    165  C        -21.0600  -14.1580  -37.3250 C.2   123  GLN123      0.2260
    166  O        -20.2800  -13.7170  -38.1650 O.2   123  GLN123     -0.2867
    167  CB       -22.1860  -16.3690  -37.1030 C.3   123  GLN123      0.0367
    168  CG       -22.4200  -16.5920  -38.5890 C.3   123  GLN123      0.0905
    169  CD       -21.3090  -17.3990  -39.2500 C.2   123  GLN123      0.2608
    170  OE1      -21.3260  -17.6250  -40.4630 O.2   123  GLN123     -0.2717
    171  NE2      -20.3410  -17.8410  -38.4520 N.am  123  GLN123     -0.0878
    172  N        -18.2110  -11.4800  -37.3820 N.3   126  ALA126     -0.1231
    173  CA       -17.2270  -11.7830  -38.4150 C.3   126  ALA126      0.1694
    174  C        -17.7310  -11.1860  -39.7300 C.2   126  ALA126      0.2591
    175  O        -17.1050  -10.2830  -40.2920 O.2   126  ALA126     -0.2718
    176  CB       -17.0580  -13.2990  -38.5440 C.3   126  ALA126      0.0304
    177  N        -18.8780  -11.6860  -40.1930 N.am  127  GLN127     -0.1979
    178  CA       -19.4970  -11.2120  -41.4260 C.3   127  GLN127      0.1601
    179  C        -19.3790   -9.6970  -41.4830 C.2   127  GLN127      0.2287
    180  O        -18.7320   -9.1500  -42.3750 O.2   127  GLN127     -0.2864
    181  CB       -20.9770  -11.6060  -41.4730 C.3   127  GLN127      0.0394
    182  CG       -21.2340  -13.1010  -41.5550 C.3   127  GLN127      0.0908
    183  CD       -22.7110  -13.4280  -41.7110 C.2   127  GLN127      0.2608
    184  OE1      -23.4190  -12.7880  -42.4930 O.2   127  GLN127     -0.2717
    185  NE2      -23.1820  -14.4330  -40.9760 N.am  127  GLN127     -0.0878
    186  N        -16.3390   -8.6070  -42.3130 N.3   130  GLY130     -0.1210
    187  CA       -16.0790   -9.0130  -43.6840 C.3   130  GLY130      0.1956
    188  C        -16.5360   -7.9400  -44.6550 C.2   130  GLY130      0.2611
    189  O        -15.8050   -7.5750  -45.5830 O.2   130  GLY130     -0.2717
    190  N        -17.7460   -7.4260  -44.4380 N.am  131  GLN131     -0.1979
    191  CA       -18.2930   -6.3730  -45.2890 C.3   131  GLN131      0.1601
    192  C        -17.4660   -5.0930  -45.1690 C.2   131  GLN131      0.2287
    193  O        -17.0350   -4.5370  -46.1770 O.2   131  GLN131     -0.2864
    194  CB       -19.7600   -6.0900  -44.9270 C.3   131  GLN131      0.0394
    195  CG       -20.7870   -6.8670  -45.7560 C.3   131  GLN131      0.0908
    196  CD       -20.6540   -8.3790  -45.6250 C.2   131  GLN131      0.2608
    197  OE1      -19.6390   -8.9680  -46.0080 O.2   131  GLN131     -0.2717
    198  NE2      -21.6890   -9.0140  -45.0870 N.am  131  GLN131     -0.0878
    199  N        -14.6860   -4.7440  -44.7860 N.3   133  PHE133     -0.1227
    200  CA       -13.4180   -4.9710  -45.4770 C.3   133  PHE133      0.1736
    201  C        -13.6210   -4.6780  -46.9480 C.2   133  PHE133      0.2596
    202  O        -12.7690   -4.0710  -47.6040 O.2   133  PHE133     -0.2718
    203  CB       -12.9520   -6.4230  -45.3370 C.3   133  PHE133      0.0547
    204  CG       -12.2480   -6.7200  -44.0440 C.ar  133  PHE133     -0.0202
    205  CD1      -11.4910   -5.7410  -43.4000 C.ar  133  PHE133     -0.0042
    206  CD2      -12.3170   -7.9930  -43.4850 C.ar  133  PHE133     -0.0042
    207  CE1      -10.8150   -6.0280  -42.2180 C.ar  133  PHE133     -0.0003
    208  CE2      -11.6460   -8.2880  -42.3070 C.ar  133  PHE133     -0.0003
    209  CZ       -10.8930   -7.3030  -41.6710 C.ar  133  PHE133     -0.0000
    210  N        -14.7610   -5.1290  -47.4600 N.am  134  SER134     -0.1952
    211  CA       -15.1100   -4.9240  -48.8540 C.3   134  SER134      0.1924
    212  C        -15.5810   -3.4900  -49.1020 C.2   134  SER134      0.2314
    213  O        -15.3950   -2.9630  -50.1940 O.2   134  SER134     -0.2863
    214  CB       -16.1900   -5.9220  -49.2670 C.3   134  SER134      0.2116
    215  OG       -15.7320   -7.2510  -49.0740 O.3   134  SER134     -0.2180
    216  N        -14.3380   -1.0330  -47.7220 N.3   136  ALA136     -0.1231
    217  CA       -13.0960   -0.2750  -47.6840 C.3   136  ALA136      0.1694
    218  C        -12.4660   -0.5180  -49.0420 C.2   136  ALA136      0.2592
    219  O        -11.7840    0.3370  -49.6040 O.2   136  ALA136     -0.2718
    220  CB       -12.1920   -0.8050  -46.5760 C.3   136  ALA136      0.0304
    221  N        -12.7260   -1.7070  -49.5650 N.am  137  TYR137     -0.1976
    222  CA       -12.2120   -2.1190  -50.8570 C.3   137  TYR137      0.1639
    223  C        -12.7580   -1.2170  -51.9540 C.2   137  TYR137      0.2290
    224  O        -12.0690   -0.3180  -52.4260 O.2   137  TYR137     -0.2864
    225  CB       -12.6210   -3.5650  -51.1380 C.3   137  TYR137      0.0560
    226  CG       -11.8290   -4.2240  -52.2340 C.ar  137  TYR137     -0.0198
    227  CD1      -12.2980   -5.3780  -52.8570 C.ar  137  TYR137     -0.0009
    228  CD2      -10.5920   -3.7120  -52.6280 C.ar  137  TYR137     -0.0009
    229  CE1      -11.5550   -6.0060  -53.8460 C.ar  137  TYR137      0.0417
    230  CE2       -9.8400   -4.3310  -53.6130 C.ar  137  TYR137      0.0417
    231  CZ       -10.3240   -5.4790  -54.2190 C.ar  137  TYR137      0.1957
    232  OH        -9.5770   -6.1090  -55.1950 O.3   137  TYR137     -0.2866
    233  N        -12.0260    2.1470  -52.1490 N.3   140  PHE140     -0.1241
    234  CA       -10.6030    2.3850  -52.4140 C.3   140  PHE140      0.1605
    235  C        -10.3280    2.2710  -53.9160 C.2   140  PHE140      0.2264
    236  O         -9.6230    3.0960  -54.5000 O.2   140  PHE140     -0.2867
    237  CB        -9.7480    1.3770  -51.6470 C.3   140  PHE140      0.0534
    238  CG        -8.2540    1.5040  -51.8480 C.ar  140  PHE140     -0.0203
    239  CD1       -7.5790    2.6620  -51.5790 C.ar  140  PHE140     -0.0042
    240  CD2       -7.5130    0.4270  -52.2620 C.ar  140  PHE140     -0.0042
    241  CE1       -6.2090    2.7890  -51.6750 C.ar  140  PHE140     -0.0003
    242  CE2       -6.1010    0.5110  -52.3630 C.ar  140  PHE140     -0.0003
    243  CZ        -5.5000    1.6940  -52.1020 C.ar  140  PHE140     -0.0000
@<TRIPOS>BOND
     1   232   231    1
     2   236   235    2
     3   231   229   ar
     4   231   230   ar
     5   235   234    1
     6   229   227   ar
     7   230   228   ar
     8   227   226   ar
     9   228   226   ar
    10   224   223    2
    11   234   233    1
    12   234   237    1
    13   242   240   ar
    14   242   243   ar
    15   240   238   ar
    16   226   225    1
    17   243   241   ar
    18   223   222    1
    19   238   237    1
    20   238   239   ar
    21    11     9    1
    22   241   239   ar
    23    10     9    1
    24   225   222    1
    25     9     8    2
    26   222   221    1
    27    19    17   am
    28   213   212    2
    29     8     7    1
    30   219   218    2
    31    18    17    2
    32   221   218   am
    33    17    16    1
    34   214   215    1
    35   214   211    1
    36     7     6    1
    37   212   211    1
    38   218   217    1
    39   211   210    1
    40    15    14    2
    41    16    13    1
    42     5     6    1
    43     5     2    1
    44   216   217    1
    45   217   220    1
    46   202   201    2
    47   210   201   am
    48    14    13    1
    49    25    24    1
    50    25    26    1
    51    13    12    1
    52    27    28    1
    53    27    26    1
    54   201   200    1
    55    12     3   am
    56    20    21    1
    57     3     2    1
    58     3     4    2
    59     2     1    1
    60    24    21    1
    61   193   192    2
    62   197   196    2
    63   154   153    1
    64   195   196    1
    65   195   194    1
    66    21    22    1
    67   196   198   am
    68   189   188    2
    69   200   203    1
    70   200   199    1
    71   203   204    1
    72   191   192    1
    73   191   194    1
    74   191   190    1
    75    57    56    1
    76    22    23    2
    77   153   151   ar
    78   153   152   ar
    79   188   190   am
    80   188   187    1
    81   151   149   ar
    82   204   206   ar
    83   204   205   ar
    84   152   150   ar
    85    52    49    1
    86    52    53    1
    87    54    55    1
    88    54    53    1
    89    56    55    2
    90    56    58    1
    91   187   186    1
    92    39    37    1
    93   131   129    1
    94   206   208   ar
    95   205   207   ar
    96    51    50    2
    97    34    33    1
    98    34    35    1
    99    49    50    1
   100    49    48    1
   101    38    37    1
   102    37    36    2
   103    47    45    1
   104   149   148   ar
   105    77    76    2
   106   150   148   ar
   107    33    30    1
   108    36    35    1
   109    78    75    1
   110    78    79    1
   111    50    59   am
   112    29    30    1
   113   129   128    2
   114   129   130    1
   115   184   183    2
   116   180   179    2
   117    48    42   am
   118    75    76    1
   119    75    74    1
   120    87    89   ar
   121    87    85   ar
   122   208   209   ar
   123    89    90   ar
   124    76    80   am
   125   207   209   ar
   126   148   147    1
   127    69    68    2
   128    45    44    1
   129    45    46    1
   130   128   127    1
   131    30    31    1
   132    43    42    2
   133   183   182    1
   134   183   185   am
   135    42    41    1
   136   182   181    1
   137    44    41    1
   138   179   178    1
   139   181   178    1
   140    80    81    1
   141   178   177    1
   142    59    60    1
   143    81    84    1
   144    81    82    1
   145    84    85    1
   146    85    86   ar
   147    68    74   am
   148    68    67    1
   149    90    91    1
   150    90    88   ar
   151   127   126    1
   152   147   144    1
   153    31    32    2
   154    41    40    1
   155    62    61    2
   156    60    61    1
   157    60    63    1
   158    99    97    1
   159   170   169    2
   160   111   110   ar
   161    61    66   am
   162   112   110   ar
   163    97    96    1
   164   175   174    2
   165   177   174   am
   166    92    82   am
   167    92    93    1
   168    82    83    2
   169    66    67    1
   170    86    88   ar
   171   110   109    1
   172    95    94    2
   173   143   144    1
   174    67    70    1
   175   174   173    1
   176   126   125    1
   177   144   145    1
   178   125   122    1
   179   162   161    1
   180    98    96    1
   181    70    72    1
   182    70    71    1
   183    65    63    1
   184   169   168    1
   185   169   171   am
   186    63    64    1
   187    96    93    1
   188   161   160    1
   189    93    94    1
   190    94   100   am
   191   160   159    1
   192   168   167    1
   193   109   106    1
   194   176   173    1
   195   173   172    1
   196   145   146    2
   197   121   122    1
   198   122   123    1
   199   166   165    2
   200    71    73    1
   201   105   106    1
   202   105   102   am
   203   100   101    1
   204   108   107    2
   205   101   102    1
   206   101   104    1
   207   106   107    1
   208   159   156    1
   209   165   164    1
   210   167   164    1
   211   107   113   am
   212   123   124    2
   213   123   132   am
   214   102   103    2
   215   164   163    1
   216   119   117    1
   217   132   133    1
   218   156   155    1
   219   156   157    1
   220   113   114    1
   221   134   133    1
   222   134   135    2
   223   117   114    1
   224   117   118    1
   225   114   115    1
   226   133   136    1
   227   157   158    2
   228   136   137    1
   229   118   120    1
   230   115   116    2
   231   137   138    1
   232   138   139    1
   233   139   140    2
   234   141   140    1
   235   140   142    1
