@<TRIPOS>MOLECULE
tmp/3sv3A01.pdb
 191 184 0 0 0
SMALL
GASTEIGER

@<TRIPOS>ATOM
      1  N         24.0630  -30.3690  -11.0800 N.3   281  ARG281     -0.1245
      2  CA        24.7690  -29.1410  -11.4320 C.3   281  ARG281      0.1563
      3  C         26.2640  -29.4200  -11.6090 C.2   281  ARG281      0.2260
      4  O         26.8150  -30.3620  -11.0200 O.2   281  ARG281     -0.2867
      5  CB        24.6020  -28.0850  -10.3440 C.3   281  ARG281      0.0307
      6  CG        23.3720  -27.1990  -10.4860 C.3   281  ARG281      0.0489
      7  CD        23.5470  -25.9880   -9.5990 C.3   281  ARG281      0.2205
      8  NE        22.4020  -25.0920   -9.6240 N.pl3 281  ARG281     -0.0865
      9  CZ        22.3280  -23.9580   -8.9320 C.cat 281  ARG281      0.5346
     10  NH1       23.3490  -23.5720   -8.1620 N.pl3 281  ARG281      0.1354
     11  NH2       21.2370  -23.2070   -9.0160 N.pl3 281  ARG281      0.1354
     12  N         21.8240  -15.6880  -20.0960 N.3   318  ASP318     -0.1225
     13  CA        21.3090  -16.0130  -18.7790 C.3   318  ASP318      0.1805
     14  C         19.8330  -16.4020  -18.8630 C.2   318  ASP318      0.2598
     15  O         19.0050  -15.5700  -19.2230 O.2   318  ASP318     -0.2718
     16  CB        21.4770  -14.7740  -17.8890 C.3   318  ASP318      0.1424
     17  CG        21.3750  -15.0960  -16.4140 C.2   318  ASP318      0.3668
     18  OD1       22.0570  -14.4430  -15.5910 O.co2 318  ASP318     -0.2456
     19  OD2       20.6140  -16.0160  -16.0840 O.co2 318  ASP318     -0.2456
     20  N         19.4970  -17.6560  -18.5520 N.am  319  TYR319     -0.1962
     21  CA        18.0930  -18.0750  -18.5150 C.3   319  TYR319      0.1771
     22  C         17.2720  -17.2040  -17.5680 C.2   319  TYR319      0.2620
     23  O         17.7140  -16.8800  -16.4850 O.2   319  TYR319     -0.2715
     24  CB        17.9620  -19.5290  -18.0640 C.3   319  TYR319      0.0574
     25  CG        18.1940  -20.5450  -19.1550 C.ar  319  TYR319     -0.0198
     26  CD1       17.2180  -20.8070  -20.1040 C.ar  319  TYR319     -0.0009
     27  CD2       19.3820  -21.2590  -19.2230 C.ar  319  TYR319     -0.0009
     28  CE1       17.4220  -21.7460  -21.1010 C.ar  319  TYR319      0.0417
     29  CE2       19.5940  -22.2020  -20.2100 C.ar  319  TYR319      0.0417
     30  CZ        18.6120  -22.4380  -21.1490 C.ar  319  TYR319      0.1957
     31  OH        18.8230  -23.3720  -22.1340 O.3   319  TYR319     -0.2866
     32  N         16.0580  -16.8580  -17.9620 N.am  320  SER320     -0.1936
     33  CA        15.1900  -16.0290  -17.1270 C.3   320  SER320      0.2055
     34  C         14.3600  -16.8700  -16.1400 C.2   320  SER320      0.2643
     35  O         13.6110  -17.7460  -16.5620 O.2   320  SER320     -0.2714
     36  CB        14.2610  -15.2090  -18.0290 C.3   320  SER320      0.2130
     37  OG        13.2910  -14.5030  -17.2760 O.3   320  SER320     -0.2179
     38  N         14.5000  -16.5820  -14.8430 N.am  321  GLN321     -0.1963
     39  CA        13.7420  -17.2690  -13.7970 C.3   321  GLN321      0.1733
     40  C         13.6900  -18.7680  -14.0680 C.2   321  GLN321      0.2616
     41  O         12.6310  -19.3810  -13.9510 O.2   321  GLN321     -0.2715
     42  CB        12.3110  -16.7180  -13.7250 C.3   321  GLN321      0.0408
     43  CG        12.1870  -15.2270  -14.0300 C.3   321  GLN321      0.0908
     44  CD        10.7410  -14.7420  -14.0490 C.2   321  GLN321      0.2608
     45  OE1       10.0480  -14.7770  -13.0290 O.2   321  GLN321     -0.2717
     46  NE2       10.2810  -14.2870  -15.2150 N.am  321  GLN321     -0.0878
     47  N         14.8270  -19.3530  -14.4300 N.am  322  ILE322     -0.1963
     48  CA        14.8260  -20.7150  -14.9510 C.3   322  ILE322      0.1727
     49  C         14.1170  -21.7630  -14.1020 C.2   322  ILE322      0.2616
     50  O         13.3430  -22.5650  -14.6320 O.2   322  ILE322     -0.2715
     51  CB        16.2410  -21.2380  -15.2180 C.3   322  ILE322      0.0290
     52  CG1       16.1410  -22.6370  -15.8150 C.3   322  ILE322      0.0022
     53  CG2       17.0840  -21.2400  -13.9440 C.3   322  ILE322      0.0023
     54  CD1       15.4440  -22.6410  -17.1330 C.3   322  ILE322      0.0001
     55  N         14.3890  -21.7810  -12.8010 N.am  323  GLU323     -0.1977
     56  CA        13.8590  -22.8400  -11.9400 C.3   323  GLU323      0.1602
     57  C         12.3720  -22.6410  -11.6240 C.2   323  GLU323      0.2287
     58  O         11.6620  -23.6060  -11.3390 O.2   323  GLU323     -0.2864
     59  CB        14.6970  -22.9740  -10.6590 C.3   323  GLU323      0.0415
     60  CG        16.0590  -23.6480  -10.9170 C.3   323  GLU323      0.1163
     61  CD        16.9410  -23.7780   -9.6760 C.2   323  GLU323      0.3649
     62  OE1       16.4080  -23.8720   -8.5510 O.co2 323  GLU323     -0.2457
     63  OE2       18.1800  -23.7890   -9.8380 O.co2 323  GLU323     -0.2457
     64  N          9.9980  -11.9670  -10.0410 N.3   347  HIS347     -0.1241
     65  CA        10.9610  -11.2760   -9.1840 C.3   347  HIS347      0.1621
     66  C         10.7160   -9.7660   -9.1450 C.2   347  HIS347      0.2264
     67  O         10.9180   -9.1290   -8.1180 O.2   347  HIS347     -0.2867
     68  CB        12.3870  -11.5420   -9.6640 C.3   347  HIS347      0.0745
     69  CG        12.7580  -12.9910   -9.6700 C.ar  347  HIS347      0.0817
     70  ND1       12.0950  -13.9310   -8.9110 N.ar  347  HIS347     -0.2268
     71  CD2       13.7180  -13.6640  -10.3490 C.ar  347  HIS347      0.1154
     72  CE1       12.6340  -15.1190   -9.1160 C.ar  347  HIS347      0.1986
     73  NE2       13.6210  -14.9850   -9.9850 N.ar  347  HIS347     -0.2212
     74  N         15.2200   -6.1230   -7.5180 N.3   367  ARG367     -0.1231
     75  CA        14.8900   -7.3970   -8.1310 C.3   367  ARG367      0.1694
     76  C         15.7570   -8.5220   -7.5750 C.2   367  ARG367      0.2591
     77  O         15.2410   -9.5310   -7.1000 O.2   367  ARG367     -0.2718
     78  CB        15.0700   -7.2900   -9.6390 C.3   367  ARG367      0.0321
     79  CG        14.7540   -8.5520  -10.3780 C.3   367  ARG367      0.0489
     80  CD        14.4950   -8.2640  -11.8330 C.3   367  ARG367      0.2205
     81  NE        13.9440   -9.4360  -12.4920 N.pl3 367  ARG367     -0.0865
     82  CZ        14.6610  -10.5070  -12.7940 C.cat 367  ARG367      0.5346
     83  NH1       15.9480  -10.5380  -12.4920 N.pl3 367  ARG367      0.1354
     84  NH2       14.0920  -11.5400  -13.3930 N.pl3 367  ARG367      0.1354
     85  N         17.0740   -8.3410   -7.6290 N.am  368  ARG368     -0.1980
     86  CA        18.0070   -9.3190   -7.0800 C.3   368  ARG368      0.1597
     87  C         17.6400   -9.7010   -5.6470 C.2   368  ARG368      0.2287
     88  O         17.6920  -10.8750   -5.2730 O.2   368  ARG368     -0.2864
     89  CB        19.4360   -8.7740   -7.1160 C.3   368  ARG368      0.0334
     90  CG        20.4280   -9.6360   -6.3550 C.3   368  ARG368      0.0492
     91  CD        21.8540   -9.1420   -6.5060 C.3   368  ARG368      0.2205
     92  NE        22.8100  -10.1440   -6.0460 N.pl3 368  ARG368     -0.0865
     93  CZ        23.2620  -11.1460   -6.7950 C.cat 368  ARG368      0.5346
     94  NH1       22.8500  -11.2850   -8.0500 N.pl3 368  ARG368      0.1354
     95  NH2       24.1270  -12.0120   -6.2890 N.pl3 368  ARG368      0.1354
     96  N         14.8060  -12.1050   -5.3470 N.3   371  LYS371     -0.1231
     97  CA        15.1090  -13.5020   -5.6560 C.3   371  LYS371      0.1693
     98  C         15.1920  -14.3300   -4.3820 C.2   371  LYS371      0.2592
     99  O         14.6320  -15.4210   -4.3020 O.2   371  LYS371     -0.2718
    100  CB        16.4370  -13.6220   -6.4030 C.3   371  LYS371      0.0285
    101  CG        16.4070  -13.1420   -7.8350 C.3   371  LYS371      0.0035
    102  CD        17.7100  -13.4810   -8.5360 C.3   371  LYS371      0.0206
    103  CE        17.7350  -12.9380   -9.9520 C.3   371  LYS371      0.1093
    104  NZ        19.0080  -13.2530  -10.6440 N.3   371  LYS371     -0.1314
    105  N         15.9050  -13.8050   -3.3910 N.am  372  THR372     -0.1953
    106  CA        16.0790  -14.4980   -2.1220 C.3   372  THR372      0.1897
    107  C         14.7240  -14.8880   -1.5410 C.2   372  THR372      0.2313
    108  O         14.5630  -15.9830   -1.0080 O.2   372  THR372     -0.2863
    109  CB        16.8420  -13.6210   -1.1060 C.3   372  THR372      0.1794
    110  OG1       18.0970  -13.2210   -1.6700 O.3   372  THR372     -0.2208
    111  CG2       17.0920  -14.3770    0.2010 C.3   372  THR372      0.0378
    112  N         12.7130  -17.7490   -4.1110 N.3   375  PHE375     -0.1227
    113  CA        13.3900  -19.0380   -3.9580 C.3   375  PHE375      0.1736
    114  C         13.4620  -19.4600   -2.4880 C.2   375  PHE375      0.2596
    115  O         13.3950  -20.6450   -2.1640 O.2   375  PHE375     -0.2718
    116  CB        14.8000  -18.9670   -4.5510 C.3   375  PHE375      0.0547
    117  CG        14.8150  -18.6760   -6.0190 C.ar  375  PHE375     -0.0202
    118  CD1       13.9360  -19.3290   -6.8710 C.ar  375  PHE375     -0.0042
    119  CD2       15.6820  -17.7360   -6.5500 C.ar  375  PHE375     -0.0042
    120  CE1       13.9320  -19.0660   -8.2280 C.ar  375  PHE375     -0.0003
    121  CE2       15.6780  -17.4610   -7.9170 C.ar  375  PHE375     -0.0003
    122  CZ        14.8000  -18.1320   -8.7530 C.ar  375  PHE375     -0.0000
    123  N         13.6040  -18.4860   -1.6000 N.am  376  GLY376     -0.1957
    124  CA        13.6280  -18.7680   -0.1790 C.3   376  GLY376      0.1869
    125  C         12.3630  -19.4770    0.2620 C.2   376  GLY376      0.2309
    126  O         12.4240  -20.5380    0.8780 O.2   376  GLY376     -0.2863
    127  N         11.5720  -23.0630   -1.4770 N.3   379  TYR379     -0.1241
    128  CA        12.3900  -24.1650   -0.9840 C.3   379  TYR379      0.1605
    129  C         12.3200  -24.2680    0.5390 C.2   379  TYR379      0.2264
    130  O         13.1940  -24.8480    1.1770 O.2   379  TYR379     -0.2867
    131  CB        13.8240  -24.0230   -1.5030 C.3   379  TYR379      0.0534
    132  CG        13.8940  -24.2000   -3.0140 C.ar  379  TYR379     -0.0201
    133  CD1       13.3540  -25.3230   -3.6200 C.ar  379  TYR379     -0.0009
    134  CD2       14.4660  -23.2300   -3.8290 C.ar  379  TYR379     -0.0009
    135  CE1       13.3900  -25.4880   -4.9960 C.ar  379  TYR379      0.0417
    136  CE2       14.5130  -23.3840   -5.2010 C.ar  379  TYR379      0.0417
    137  CZ        13.9730  -24.5170   -5.7810 C.ar  379  TYR379      0.1957
    138  OH        14.0110  -24.6790   -7.1490 O.3   379  TYR379     -0.2866
    139  N         13.7660  -30.0850   -3.7590 N.3   458  ASN458     -0.1240
    140  CA        14.5560  -29.1060   -4.4920 C.3   458  ASN458      0.1653
    141  C         15.2450  -29.7380   -5.6910 C.2   458  ASN458      0.2266
    142  O         15.3590  -29.1160   -6.7480 O.2   458  ASN458     -0.2867
    143  CB        15.6150  -28.4690   -3.5950 C.3   458  ASN458      0.1155
    144  CG        16.6640  -27.7320   -4.3890 C.2   458  ASN458      0.2627
    145  OD1       17.6710  -28.3080   -4.7890 O.2   458  ASN458     -0.2716
    146  ND2       16.4150  -26.4580   -4.6560 N.am  458  ASN458     -0.0877
    147  N         16.0950  -27.9110   -9.3080 N.3   462  GLN462     -0.1245
    148  CA        17.4620  -27.4870   -9.5770 C.3   462  GLN462      0.1566
    149  C         18.1450  -28.4170  -10.5870 C.2   462  GLN462      0.2260
    150  O         18.8480  -27.9610  -11.4880 O.2   462  GLN462     -0.2867
    151  CB        18.2750  -27.4550   -8.2880 C.3   462  GLN462      0.0367
    152  CG        19.6680  -26.9380   -8.4840 C.3   462  GLN462      0.0905
    153  CD        20.4940  -26.9990   -7.2220 C.2   462  GLN462      0.2608
    154  OE1       21.5250  -27.6710   -7.1850 O.2   462  GLN462     -0.2717
    155  NE2       20.0470  -26.2940   -6.1740 N.am  462  GLN462     -0.0878
    156  N         25.8120  -22.1620  -14.0300 N.3   492  HIS492     -0.1226
    157  CA        24.5560  -22.7760  -13.6170 C.3   492  HIS492      0.1752
    158  C         23.3940  -22.5350  -14.5830 C.2   492  HIS492      0.2596
    159  O         22.8680  -23.4930  -15.1590 O.2   492  HIS492     -0.2718
    160  CB        24.2360  -22.3530  -12.1820 C.3   492  HIS492      0.0759
    161  CG        25.3620  -22.6200  -11.2410 C.ar  492  HIS492      0.0818
    162  ND1       25.9490  -23.8660  -11.1330 N.ar  492  HIS492     -0.2268
    163  CD2       26.0510  -21.8080  -10.4050 C.ar  492  HIS492      0.1154
    164  CE1       26.9330  -23.8100  -10.2550 C.ar  492  HIS492      0.1986
    165  NE2       27.0110  -22.5730   -9.7920 N.ar  492  HIS492     -0.2212
    166  N         22.9850  -21.2840  -14.7780 N.am  493  ASP493     -0.1974
    167  CA        21.9480  -21.0100  -15.7780 C.3   493  ASP493      0.1709
    168  C         22.4030  -19.9310  -16.7580 C.2   493  ASP493      0.2293
    169  O         21.5950  -19.3190  -17.4700 O.2   493  ASP493     -0.2864
    170  CB        20.6470  -20.5950  -15.1020 C.3   493  ASP493      0.1436
    171  CG        20.7040  -19.1950  -14.5390 C.2   493  ASP493      0.3671
    172  OD1       21.7120  -18.8190  -13.8990 O.co2 493  ASP493     -0.2456
    173  OD2       19.7170  -18.4730  -14.7370 O.co2 493  ASP493     -0.2456
    174  N         18.0650  -13.9200  -21.3860 N.3   528  GLU528     -0.1245
    175  CA        18.5840  -12.5620  -21.5120 C.3   528  GLU528      0.1567
    176  C         20.0120  -12.6670  -22.0440 C.2   528  GLU528      0.2260
    177  O         20.7720  -13.5440  -21.6280 O.2   528  GLU528     -0.2867
    178  CB        18.5680  -11.8430  -20.1670 C.3   528  GLU528      0.0388
    179  CG        17.1780  -11.6400  -19.5820 C.3   528  GLU528      0.1160
    180  CD        16.2460  -10.9060  -20.5300 C.2   528  GLU528      0.3649
    181  OE1       16.6470   -9.8450  -21.0600 O.co2 528  GLU528     -0.2457
    182  OE2       15.1160  -11.3960  -20.7530 O.co2 528  GLU528     -0.2457
    183  N         23.1770   -6.6640  -19.0220 N.3   540  GLU540     -0.1245
    184  CA        22.8610   -7.4280  -20.2260 C.3   540  GLU540      0.1567
    185  C         22.3420   -6.4910  -21.3100 C.2   540  GLU540      0.2260
    186  O         22.9510   -5.4600  -21.5930 O.2   540  GLU540     -0.2867
    187  CB        21.8130   -8.5080  -19.9280 C.3   540  GLU540      0.0388
    188  CG        21.9250   -9.1340  -18.5440 C.3   540  GLU540      0.1160
    189  CD        21.7270  -10.6370  -18.5540 C.2   540  GLU540      0.3649
    190  OE1       20.9810  -11.1340  -17.6810 O.co2 540  GLU540     -0.2457
    191  OE2       22.3260  -11.3200  -19.4210 O.co2 540  GLU540     -0.2457
@<TRIPOS>BOND
     1    31    30    1
     2   176   177    2
     3   176   175    1
     4   186   185    2
     5   175   174    1
     6   175   178    1
     7   185   184    1
     8    30    28   ar
     9    30    29   ar
    10    28    26   ar
    11   181   180   ar
    12   182   180   ar
    13   180   179    1
    14   184   187    1
    15   184   183    1
    16    29    27   ar
    17   178   179    1
    18    26    25   ar
    19    12    13    1
    20   187   188    1
    21   191   189   ar
    22    15    14    2
    23    27    25   ar
    24    25    24    1
    25    14    13    1
    26    14    20   am
    27    13    16    1
    28   189   188    1
    29   189   190   ar
    30    20    21    1
    31    21    24    1
    32    21    22    1
    33    36    37    1
    34    36    33    1
    35    32    22   am
    36    32    33    1
    37    16    17    1
    38    22    23    2
    39   169   168    2
    40    54    52    1
    41    33    34    1
    42   168   167    1
    43    35    34    2
    44    17    19   ar
    45    17    18   ar
    46    34    38   am
    47    52    51    1
    48   167   170    1
    49   167   166    1
    50    51    48    1
    51    51    53    1
    52    46    44   am
    53   159   158    2
    54   170   171    1
    55    48    47    1
    56    48    49    1
    57    38    39    1
    58   166   158   am
    59   173   171   ar
    60    50    49    2
    61   158   157    1
    62   171   172   ar
    63    47    40   am
    64    49    55   am
    65    40    41    2
    66    40    39    1
    67    44    43    1
    68    44    45    2
    69   156   157    1
    70    43    42    1
    71    39    42    1
    72   157   160    1
    73    84    82    1
    74    55    56    1
    75    82    81    2
    76    82    83    1
    77    81    80    1
    78   160   161    1
    79    56    57    1
    80    56    59    1
    81    80    79    1
    82    57    58    2
    83     3     2    1
    84     3     4    2
    85   150   149    2
    86     2     1    1
    87     2     5    1
    88   161   162   ar
    89   161   163   ar
    90   162   164   ar
    91    60    59    1
    92    60    61    1
    93   104   103    1
    94   149   148    1
    95     6     5    1
    96     6     7    1
    97   163   165   ar
    98    79    78    1
    99    71    73   ar
   100    71    69   ar
   101   164   165   ar
   102    64    65    1
   103    73    72   ar
   104   103   102    1
   105    63    61   ar
   106    61    62   ar
   107    69    68    1
   108    69    70   ar
   109    68    65    1
   110    78    75    1
   111     8     7    1
   112     8     9    2
   113   148   147    1
   114   148   151    1
   115    65    66    1
   116    66    67    2
   117    72    70   ar
   118    11     9    1
   119     9    10    1
   120   122   120   ar
   121   122   121   ar
   122   102   101    1
   123   152   151    1
   124   152   153    1
   125   120   118   ar
   126    75    76    1
   127    75    74    1
   128    94    93    1
   129   121   119   ar
   130   101   100    1
   131    85    76   am
   132    85    86    1
   133    76    77    2
   134   153   154    2
   135   153   155   am
   136   138   137    1
   137    89    86    1
   138    89    90    1
   139    86    87    1
   140   118   117   ar
   141    93    95    1
   142    93    92    2
   143   142   141    2
   144   119   117   ar
   145    91    90    1
   146    91    92    1
   147   100    97    1
   148   117   116    1
   149   137   136   ar
   150   137   135   ar
   151   141   140    1
   152    97    96    1
   153    97    98    1
   154    87    88    2
   155   136   134   ar
   156   135   133   ar
   157   145   144    2
   158   146   144   am
   159   116   113    1
   160   140   139    1
   161   140   143    1
   162   144   143    1
   163    98    99    2
   164    98   105   am
   165   112   113    1
   166   113   114    1
   167   134   132   ar
   168   133   132   ar
   169   105   106    1
   170   132   131    1
   171   114   115    2
   172   114   123   am
   173   106   107    1
   174   106   109    1
   175   110   109    1
   176   123   124    1
   177   107   108    2
   178   131   128    1
   179   127   128    1
   180   109   111    1
   181   128   129    1
   182   124   125    1
   183   125   126    2
   184   129   130    2
