@<TRIPOS>MOLECULE
tmp/3sv6A00.pdb
 160 155 0 0 0
SMALL
GASTEIGER

@<TRIPOS>ATOM
      1  N         -2.6360   -6.1950    7.9210 N.3    62  GLN62      -0.1231
      2  CA        -3.4690   -5.6630    8.9960 C.3    62  GLN62       0.1698
      3  C         -2.6700   -5.1740   10.1980 C.2    62  GLN62       0.2593
      4  O         -1.5700   -5.6350   10.4470 O.2    62  GLN62      -0.2718
      5  CB        -4.4500   -6.7360    9.4610 C.3    62  GLN62       0.0381
      6  CG        -5.3270   -7.2960    8.3610 C.3    62  GLN62       0.0905
      7  CD        -6.4320   -8.1990    8.8980 C.2    62  GLN62       0.2608
      8  OE1       -6.2330   -8.9470    9.8640 O.2    62  GLN62      -0.2717
      9  NE2       -7.6060   -8.1210    8.2830 N.am   62  GLN62      -0.0878
     10  N         -3.2490   -4.2390   10.9430 N.am   63  THR63      -0.1939
     11  CA        -2.6520   -3.7240   12.1590 C.3    63  THR63       0.2028
     12  C         -3.6740   -3.8350   13.2780 C.2    63  THR63       0.2642
     13  O         -4.8380   -3.4200   13.1220 O.2    63  THR63      -0.2714
     14  CB        -2.2120   -2.2770   11.9860 C.3    63  THR63       0.1808
     15  OG1       -1.1730   -2.2280   10.9970 O.3    63  THR63      -0.2208
     16  CG2       -1.6650   -1.7190   13.2950 C.3    63  THR63       0.0379
     17  N         -3.2500   -4.3910   14.4110 N.am   64  PHE64      -0.1973
     18  CA        -4.1320   -4.5870   15.5540 C.3    64  PHE64       0.1639
     19  C         -3.2970   -4.5650   16.8380 C.2    64  PHE64       0.2290
     20  O         -2.2090   -3.9700   16.8260 O.2    64  PHE64      -0.2864
     21  CB        -5.0180   -5.8300   15.3570 C.3    64  PHE64       0.0560
     22  CG        -4.2800   -7.0750   14.9680 C.ar   64  PHE64      -0.0200
     23  CD1       -3.9000   -7.2950   13.6410 C.ar   64  PHE64      -0.0042
     24  CD2       -3.9650   -8.0470   15.9130 C.ar   64  PHE64      -0.0042
     25  CE1       -3.2270   -8.4400   13.2780 C.ar   64  PHE64      -0.0003
     26  CE2       -3.3010   -9.1950   15.5540 C.ar   64  PHE64      -0.0003
     27  CZ        -2.9160   -9.4000   14.2390 C.ar   64  PHE64      -0.0000
     28  N         -5.2920  -12.2630   19.0390 N.3    76  VAL76      -0.1245
     29  CA        -6.3230  -13.0970   18.4510 C.3    76  VAL76       0.1561
     30  C         -5.7710  -13.9670   17.3350 C.2    76  VAL76       0.2260
     31  O         -4.9850  -13.5190   16.4890 O.2    76  VAL76      -0.2867
     32  CB        -7.4850  -12.2350   17.9100 C.3    76  VAL76       0.0252
     33  CG1       -8.3090  -11.7090   19.0750 C.3    76  VAL76       0.0019
     34  CG2       -6.9850  -11.0770   17.0420 C.3    76  VAL76       0.0019
     35  N         -7.5800  -15.0580   14.8540 N.3    78  HIS78      -0.1226
     36  CA        -8.1270  -14.6430   13.5680 C.3    78  HIS78       0.1752
     37  C         -7.3020  -13.5260   12.9330 C.2    78  HIS78       0.2596
     38  O         -7.3910  -13.3070   11.7230 O.2    78  HIS78      -0.2718
     39  CB        -9.6180  -14.2770   13.6900 C.3    78  HIS78       0.0759
     40  CG        -9.8900  -12.9660   14.3730 C.ar   78  HIS78       0.0818
     41  ND1      -10.3950  -12.8760   15.6540 N.ar   78  HIS78      -0.2268
     42  CD2       -9.7440  -11.6890   13.9360 C.ar   78  HIS78       0.1154
     43  CE1      -10.5370  -11.6000   15.9790 C.ar   78  HIS78       0.1986
     44  NE2      -10.1550  -10.8590   14.9500 N.ar   78  HIS78      -0.2212
     45  N         -6.4860  -12.8490   13.7370 N.am   79  GLY79      -0.1957
     46  CA        -5.5880  -11.8220   13.2410 C.3    79  GLY79       0.1869
     47  C         -4.1710  -12.3160   12.9700 C.2    79  GLY79       0.2309
     48  O         -3.5940  -12.0150   11.9150 O.2    79  GLY79      -0.2863
     49  N        -19.0140  -11.0270   27.1400 N.3   144  ARG144     -0.1245
     50  CA       -19.6660   -9.8940   26.5070 C.3   144  ARG144      0.1563
     51  C        -19.7090   -8.6840   27.4140 C.2   144  ARG144      0.2260
     52  O        -19.8180   -8.7970   28.6370 O.2   144  ARG144     -0.2867
     53  CB       -21.1070  -10.2320   26.1260 C.3   144  ARG144      0.0307
     54  CG       -21.2270  -11.2900   25.0730 C.3   144  ARG144      0.0489
     55  CD       -20.7600  -10.8280   23.6990 C.3   144  ARG144      0.2205
     56  NE       -20.8610  -11.9420   22.7620 N.pl3 144  ARG144     -0.0865
     57  CZ       -21.9560  -12.2970   22.0960 C.cat 144  ARG144      0.5346
     58  NH1      -23.0810  -11.6040   22.2040 N.pl3 144  ARG144      0.1354
     59  NH2      -21.9070  -13.3560   21.3030 N.pl3 144  ARG144      0.1354
     60  N        -18.6210    0.8990   14.0040 N.3   153  ILE153     -0.1245
     61  CA       -17.6640   -0.2040   14.1320 C.3   153  ILE153      0.1561
     62  C        -16.2420    0.2180   13.7470 C.2   153  ILE153      0.2260
     63  O        -15.2660   -0.3230   14.2810 O.2   153  ILE153     -0.2867
     64  CB       -18.0780   -1.4820   13.3550 C.3   153  ILE153      0.0252
     65  CG1      -18.3540   -1.1930   11.8880 C.3   153  ILE153      0.0019
     66  CG2      -19.2840   -2.1450   14.0140 C.3   153  ILE153      0.0019
     67  CD1      -18.5270   -2.4520   11.0950 C.3   153  ILE153      0.0001
     68  N        -13.6240    0.6720   16.4650 N.3   156  LEU156     -0.1231
     69  CA       -13.0070   -0.5040   17.0960 C.3   156  LEU156      0.1693
     70  C        -12.0830   -1.2750   16.1620 C.2   156  LEU156      0.2592
     71  O        -11.4020   -2.2100   16.5960 O.2   156  LEU156     -0.2718
     72  CB       -14.0830   -1.4440   17.6370 C.3   156  LEU156      0.0284
     73  CG       -14.9770   -0.8360   18.7100 C.3   156  LEU156      0.0019
     74  CD1      -16.0630   -1.8190   19.1530 C.3   156  LEU156      0.0001
     75  CD2      -14.1460   -0.4010   19.9100 C.3   156  LEU156      0.0001
     76  N        -12.0990   -0.9460   14.8780 N.am  157  LYS157     -0.1966
     77  CA       -11.2250   -1.6150   13.9270 C.3   157  LYS157      0.1728
     78  C         -9.7850   -1.3210   14.2970 C.2   157  LYS157      0.2617
     79  O         -9.3980   -0.1750   14.5250 O.2   157  LYS157     -0.2715
     80  CB       -11.5040   -1.1540   12.4960 C.3   157  LYS157      0.0311
     81  CG       -12.8220   -1.6270   11.9300 C.3   157  LYS157      0.0038
     82  CD       -12.7140   -2.9890   11.2840 C.3   157  LYS157      0.0206
     83  CE       -14.0460   -3.4310   10.7010 C.3   157  LYS157      0.1093
     84  NZ       -13.8640   -4.5390    9.7320 N.3   157  LYS157     -0.1314
     85  N         -9.0130   -2.3840   14.4310 N.am  158  GLY158     -0.1940
     86  CA        -7.6290   -2.3050   14.8600 C.3   158  GLY158      0.2014
     87  C         -7.4250   -2.5810   16.3270 C.2   158  GLY158      0.2640
     88  O         -6.2940   -2.6920   16.7790 O.2   158  GLY158     -0.2714
     89  N         -8.4960   -2.7140   17.0980 N.am  159  SER159     -0.1935
     90  CA        -8.3740   -2.9360   18.5230 C.3   159  SER159      0.2055
     91  C         -8.3970   -4.4060   18.9320 C.2   159  SER159      0.2643
     92  O         -8.1410   -4.6990   20.0830 O.2   159  SER159     -0.2714
     93  CB        -9.4790   -2.2030   19.2710 C.3   159  SER159      0.2130
     94  OG        -9.3580   -0.7960   19.1350 O.3   159  SER159     -0.2179
     95  N         -8.6890   -5.3200   18.0080 N.am  160  SER160     -0.1949
     96  CA        -8.6080   -6.7360   18.3000 C.3   160  SER160      0.1924
     97  C         -7.2650   -7.0800   18.9170 C.2   160  SER160      0.2314
     98  O         -6.2170   -6.6730   18.4100 O.2   160  SER160     -0.2863
     99  CB        -8.7880   -7.5600   17.0440 C.3   160  SER160      0.2116
    100  OG       -10.0500   -7.2490   16.4740 O.3   160  SER160     -0.2180
    101  N        -10.0830   -8.2320   23.8560 N.3   175  PHE175     -0.1227
    102  CA       -11.1110   -7.8730   22.8950 C.3   175  PHE175      0.1736
    103  C        -10.9310   -8.6480   21.6050 C.2   175  PHE175      0.2595
    104  O         -9.8370   -8.6840   21.0560 O.2   175  PHE175     -0.2718
    105  CB       -11.0750   -6.3680   22.6330 C.3   175  PHE175      0.0547
    106  CG       -11.9900   -5.9100   21.5320 C.ar  175  PHE175     -0.0202
    107  CD1      -13.3710   -6.0170   21.6340 C.ar  175  PHE175     -0.0042
    108  CD2      -11.4560   -5.3480   20.3760 C.ar  175  PHE175     -0.0042
    109  CE1      -14.1750   -5.5950   20.5960 C.ar  175  PHE175     -0.0003
    110  CE2      -12.2520   -4.9220   19.3620 C.ar  175  PHE175     -0.0003
    111  CZ       -13.6110   -5.0530   19.4640 C.ar  175  PHE175     -0.0000
    112  N        -11.9980   -9.2470   21.0920 N.am  176  ARG176     -0.1966
    113  CA       -11.9050   -9.9770   19.8240 C.3   176  ARG176      0.1729
    114  C        -12.9290   -9.5980   18.7650 C.2   176  ARG176      0.2616
    115  O        -12.6330   -9.8050   17.5920 O.2   176  ARG176     -0.2715
    116  CB       -11.8770  -11.4980   20.0140 C.3   176  ARG176      0.0348
    117  CG       -13.1180  -12.0820   20.6030 C.3   176  ARG176      0.0492
    118  CD       -13.0990  -13.6080   20.5520 C.3   176  ARG176      0.2205
    119  NE       -13.2200  -14.1820   19.2220 N.pl3 176  ARG176     -0.0865
    120  CZ       -14.3530  -14.5050   18.6210 C.cat 176  ARG176      0.5346
    121  NH1      -15.5240  -14.2480   19.1890 N.pl3 176  ARG176      0.1354
    122  NH2      -14.3060  -15.0540   17.4230 N.pl3 176  ARG176      0.1354
    123  N        -14.0910   -9.0600   19.1270 N.am  177  ALA177     -0.1963
    124  CA       -15.1240   -8.8310   18.1300 C.3   177  ALA177      0.1728
    125  C        -16.1340   -7.8410   18.6360 C.2   177  ALA177      0.2616
    126  O        -16.3530   -7.7490   19.8410 O.2   177  ALA177     -0.2715
    127  CB       -15.8080  -10.1610   17.7560 C.3   177  ALA177      0.0334
    128  N        -16.7350   -7.0810   17.7140 N.am  178  ALA178     -0.1963
    129  CA       -17.8460   -6.1690   18.0310 C.3   178  ALA178      0.1728
    130  C        -19.1540   -6.8350   17.6380 C.2   178  ALA178      0.2616
    131  O        -19.2370   -7.5790   16.6610 O.2   178  ALA178     -0.2715
    132  CB       -17.6770   -4.8200   17.2880 C.3   178  ALA178      0.0334
    133  N        -20.1740   -6.5420   18.4280 N.am  179  VAL179     -0.1963
    134  CA       -21.5250   -6.9320   18.1490 C.3   179  VAL179      0.1727
    135  C        -22.1580   -5.6980   17.5490 C.2   179  VAL179      0.2617
    136  O        -22.2930   -4.6770   18.2160 O.2   179  VAL179     -0.2715
    137  CB       -22.2360   -7.3490   19.4440 C.3   179  VAL179      0.0290
    138  CG1      -23.6290   -7.8500   19.1400 C.3   179  VAL179      0.0023
    139  CG2      -21.4150   -8.4260   20.1590 C.3   179  VAL179      0.0023
    140  N        -22.4810   -5.7740   16.2700 N.am  180  SER180     -0.1936
    141  CA       -22.8700   -4.5940   15.5330 C.3   180  SER180      0.2055
    142  C        -24.2660   -4.7210   14.9630 C.2   180  SER180      0.2643
    143  O        -24.7330   -5.8190   14.6460 O.2   180  SER180     -0.2714
    144  CB       -21.8880   -4.3410   14.4070 C.3   180  SER180      0.2130
    145  OG       -21.9780   -5.3620   13.4340 O.3   180  SER180     -0.2179
    146  N        -24.9160   -3.5750   14.8470 N.am  181  THR181     -0.1950
    147  CA       -26.2320   -3.4850   14.2410 C.3   181  THR181      0.1897
    148  C        -26.1930   -2.2760   13.3270 C.2   181  THR181      0.2313
    149  O        -25.9600   -1.1540   13.7890 O.2   181  THR181     -0.2863
    150  CB       -27.3260   -3.2660   15.2920 C.3   181  THR181      0.1794
    151  OG1      -27.2240   -4.2370   16.3430 O.3   181  THR181     -0.2208
    152  CG2      -28.7000   -3.3630   14.6500 C.3   181  THR181      0.0378
    153  N        -17.3320   -8.6060   22.2790 N.3   189  ASP189     -0.1239
    154  CA       -17.0360   -9.9420   22.6720 C.3   189  ASP189      0.1674
    155  C        -15.5490  -10.0130   22.9830 C.2   189  ASP189      0.2266
    156  O        -14.7260   -9.4490   22.2660 O.2   189  ASP189     -0.2867
    157  CB       -17.3780  -10.9260   21.5400 C.3   189  ASP189      0.1410
    158  CG       -17.2910  -12.3840   21.9840 C.2   189  ASP189      0.3668
    159  OD1      -18.2240  -12.8920   22.6390 O.co2 189  ASP189     -0.2456
    160  OD2      -16.2690  -13.0480   21.7100 O.co2 189  ASP189     -0.2456
@<TRIPOS>BOND
     1     1     2    1
     2     9     7   am
     3     6     7    1
     4     6     5    1
     5     7     8    2
     6     2     5    1
     7     2     3    1
     8    84    83    1
     9     3     4    2
    10     3    10   am
    11    83    82    1
    12    10    11    1
    13    15    14    1
    14    67    65    1
    15    82    81    1
    16    38    37    2
    17    65    64    1
    18    48    47    2
    19    81    80    1
    20    14    11    1
    21    14    16    1
    22    11    12    1
    23    80    77    1
    24    37    36    1
    25    37    45   am
    26    47    46    1
    27    13    12    2
    28    46    45    1
    29    12    17   am
    30    25    23   ar
    31    25    27   ar
    32   148   149    2
    33   148   147    1
    34    64    66    1
    35    64    61    1
    36   145   144    1
    37    36    39    1
    38    36    35    1
    39    23    22   ar
    40    39    40    1
    41    62    61    1
    42    62    63    2
    43    77    78    1
    44    77    76    1
    45    42    40   ar
    46    42    44   ar
    47    60    61    1
    48    27    26   ar
    49   147   146    1
    50   147   150    1
    51    78    85   am
    52    78    79    2
    53    40    41   ar
    54   144   141    1
    55    17    18    1
    56    85    86    1
    57   143   142    2
    58   152   150    1
    59   146   142   am
    60    86    87    1
    61    76    70   am
    62    44    43   ar
    63   142   141    1
    64    22    21    1
    65    22    24   ar
    66   150   151    1
    67    21    18    1
    68   141   140    1
    69    26    24   ar
    70    18    19    1
    71    41    43   ar
    72    70    71    2
    73    70    69    1
    74   140   135   am
    75    87    88    2
    76    87    89   am
    77    68    69    1
    78   100    99    1
    79    31    30    2
    80   131   130    2
    81    20    19    2
    82    34    32    1
    83    99    96    1
    84    69    72    1
    85    89    90    1
    86   132   129    1
    87    30    29    1
    88   122   120    1
    89   135   134    1
    90   135   136    2
    91   115   114    2
    92    72    73    1
    93   130   129    1
    94   130   133   am
    95   128   129    1
    96   128   125   am
    97   127   124    1
    98    32    29    1
    99    32    33    1
   100    95    96    1
   101    95    91   am
   102   124   125    1
   103   124   123    1
   104   134   133    1
   105   134   137    1
   106    96    97    1
   107    98    97    2
   108    29    28    1
   109    90    91    1
   110    90    93    1
   111   120   121    1
   112   120   119    2
   113   125   126    2
   114    73    74    1
   115    73    75    1
   116   114   123   am
   117   114   113    1
   118    91    92    2
   119    94    93    1
   120   138   137    1
   121   119   118    1
   122   110   111   ar
   123   110   108   ar
   124   137   139    1
   125   111   109   ar
   126   113   116    1
   127   113   112    1
   128   116   117    1
   129   108   106   ar
   130   118   117    1
   131   109   107   ar
   132   104   103    2
   133   112   103   am
   134    59    57    1
   135   106   107   ar
   136   106   105    1
   137   157   158    1
   138   157   154    1
   139   103   102    1
   140   160   158   ar
   141   158   159   ar
   142    57    58    1
   143    57    56    2
   144   156   155    2
   145   153   154    1
   146   105   102    1
   147   154   155    1
   148    56    55    1
   149   102   101    1
   150    55    54    1
   151    54    53    1
   152    53    50    1
   153    50    49    1
   154    50    51    1
   155    51    52    2
