@<TRIPOS>MOLECULE
tmp/3svfA00.pdb
 134 130 0 0 0
SMALL
GASTEIGER

@<TRIPOS>ATOM
      1  N         35.9290   21.4790   17.7510 N.3    40  TRP40      -0.1228
      2  CA        34.5650   21.2960   17.2160 C.3    40  TRP40       0.1722
      3  C         33.6370   22.5330   17.1120 C.2    40  TRP40       0.2437
      4  O         32.9040   22.6570   16.1010 O.2    40  TRP40      -0.2733
      5  CB        33.8480   20.0930   17.8700 C.3    40  TRP40       0.0563
      6  CG        33.5870   20.2840   19.3030 C.ar   40  TRP40       0.0003
      7  CD1       34.3890   19.9060   20.3380 C.ar   40  TRP40       0.0946
      8  CD2       32.4530   20.9260   19.8830 C.ar   40  TRP40       0.0152
      9  NE1       33.8300   20.2810   21.5450 N.ar   40  TRP40      -0.2442
     10  CE2       32.6380   20.9040   21.3030 C.ar   40  TRP40       0.0810
     11  CE3       31.3080   21.5270   19.3550 C.ar   40  TRP40       0.0012
     12  CZ2       31.7120   21.4540   22.2000 C.ar   40  TRP40       0.0191
     13  CZ3       30.3720   22.0710   20.2520 C.ar   40  TRP40       0.0001
     14  CH2       30.5840   22.0350   21.6530 C.ar   40  TRP40       0.0015
     15  N         33.6660   23.4810   18.0930 N.am   41  PRO41      -0.2718
     16  CA        32.8010   24.6490   17.9000 C.3    41  PRO41       0.1535
     17  C         33.2430   25.5500   16.7160 C.2    41  PRO41       0.2598
     18  O         32.4420   26.3620   16.2100 O.2    41  PRO41      -0.2715
     19  CB        32.9470   25.3990   19.2260 C.3    41  PRO41       0.0310
     20  CG        33.4910   24.3880   20.1800 C.3    41  PRO41       0.0237
     21  CD        34.3880   23.5750   19.3670 C.3    41  PRO41       0.0939
     22  N         34.4840   25.3400   16.2470 N.am   42  PHE42      -0.1974
     23  CA        35.1290   26.1670   15.2180 C.3    42  PHE42       0.1639
     24  C         35.2160   25.4690   13.8620 C.2    42  PHE42       0.2290
     25  O         35.7490   26.0340   12.9090 O.2    42  PHE42      -0.2864
     26  CB        36.5490   26.5490   15.6520 C.3    42  PHE42       0.0560
     27  CG        36.6050   27.2500   16.9700 C.ar   42  PHE42      -0.0200
     28  CD1       36.3820   28.6210   17.0570 C.ar   42  PHE42      -0.0042
     29  CD2       36.8520   26.5470   18.1200 C.ar   42  PHE42      -0.0042
     30  CE1       36.4060   29.2710   18.2830 C.ar   42  PHE42      -0.0003
     31  CE2       36.8790   27.1980   19.3600 C.ar   42  PHE42      -0.0003
     32  CZ        36.6540   28.5380   19.4460 C.ar   42  PHE42      -0.0000
     33  N         32.8240   24.8200   11.9080 N.3    44  GLN44      -0.1245
     34  CA        31.7670   25.2710   10.9920 C.3    44  GLN44       0.1566
     35  C         31.2680   26.6320   11.4370 C.2    44  GLN44       0.2260
     36  O         31.4830   27.0300   12.6070 O.2    44  GLN44      -0.2867
     37  CB        30.5960   24.2750   10.9150 C.3    44  GLN44       0.0367
     38  CG        29.8440   24.0940   12.2310 C.3    44  GLN44       0.0905
     39  CD        30.6480   23.2670   13.1890 C.2    44  GLN44       0.2608
     40  OE1       31.0940   22.1720   12.8370 O.2    44  GLN44      -0.2717
     41  NE2       30.8680   23.7830   14.3980 N.am   44  GLN44      -0.0878
     42  N         29.2730   29.6670   12.9880 N.3    46  VAL46      -0.1231
     43  CA        28.4410   29.7580   14.1640 C.3    46  VAL46       0.1692
     44  C         26.9940   29.7510   13.6830 C.2    46  VAL46       0.2592
     45  O         26.5910   30.5770   12.8610 O.2    46  VAL46      -0.2718
     46  CB        28.7110   31.0640   14.9650 C.3    46  VAL46       0.0266
     47  CG1       27.6510   31.2540   16.0760 C.3    46  VAL46       0.0020
     48  CG2       30.1630   31.0790   15.5220 C.3    46  VAL46       0.0020
     49  N         26.2390   28.7690   14.1640 N.am   47  ASP47      -0.1974
     50  CA        24.8420   28.6330   13.8520 C.3    47  ASP47       0.1709
     51  C         24.0740   29.3490   14.9550 C.2    47  ASP47       0.2293
     52  O         23.7440   28.7250   15.9600 O.2    47  ASP47      -0.2864
     53  CB        24.4430   27.1490   13.8070 C.3    47  ASP47       0.1436
     54  CG        22.9950   26.9490   13.3340 C.2    47  ASP47       0.3671
     55  OD1       22.1590   27.8630   13.4700 O.co2  47  ASP47      -0.2456
     56  OD2       22.6950   25.8810   12.7980 O.co2  47  ASP47      -0.2456
     57  N         22.0270   27.9990   18.2060 N.3    51  LEU51      -0.1245
     58  CA        22.5310   28.4250   19.5210 C.3    51  LEU51       0.1561
     59  C         21.6610   29.4390   20.2220 C.2    51  LEU51       0.2260
     60  O         21.9410   29.7890   21.3610 O.2    51  LEU51      -0.2867
     61  CB        23.9500   28.9830   19.4160 C.3    51  LEU51       0.0270
     62  CG        24.9720   27.9800   18.8830 C.3    51  LEU51       0.0019
     63  CD1       26.3390   28.6520   18.6450 C.3    51  LEU51       0.0001
     64  CD2       25.0690   26.8430   19.8470 C.3    51  LEU51       0.0001
     65  N         21.3430   32.7290   19.6010 N.3    53  LEU53      -0.1245
     66  CA        22.1460   33.9340   19.7690 C.3    53  LEU53       0.1561
     67  C         21.7590   34.9260   18.6590 C.2    53  LEU53       0.2260
     68  O         22.5130   35.1090   17.6980 O.2    53  LEU53      -0.2867
     69  CB        23.6470   33.5940   19.6770 C.3    53  LEU53       0.0270
     70  CG        24.2300   32.5660   20.6510 C.3    53  LEU53       0.0019
     71  CD1       25.6790   32.3480   20.2590 C.3    53  LEU53       0.0001
     72  CD2       24.0870   33.0430   22.1380 C.3    53  LEU53       0.0001
     73  N         24.3290   37.5870   17.3830 N.3    56  TYR56      -0.1241
     74  CA        25.6820   37.1780   16.9760 C.3    56  TYR56       0.1605
     75  C         26.0690   37.8810   15.6870 C.2    56  TYR56       0.2264
     76  O         27.1060   38.5170   15.6230 O.2    56  TYR56      -0.2867
     77  CB        25.8250   35.6660   16.8520 C.3    56  TYR56       0.0534
     78  CG        27.2450   35.3190   16.5200 C.ar   56  TYR56      -0.0201
     79  CD1       28.2210   35.2580   17.5270 C.ar   56  TYR56      -0.0009
     80  CD2       27.6400   35.1350   15.1990 C.ar   56  TYR56      -0.0009
     81  CE1       29.5630   35.0070   17.2230 C.ar   56  TYR56       0.0417
     82  CE2       28.9900   34.8760   14.8790 C.ar   56  TYR56       0.0417
     83  CZ        29.9470   34.7960   15.8940 C.ar   56  TYR56       0.1957
     84  OH        31.2860   34.5290   15.5680 O.3    56  TYR56      -0.2866
     85  N         35.7340   35.4990   18.2160 N.3    95  CYS95      -0.1235
     86  CA        35.4530   34.7850   19.4850 C.3    95  CYS95       0.1677
     87  C         35.6870   35.6720   20.7300 C.2    95  CYS95       0.2270
     88  O         34.8480   35.7220   21.6550 O.2    95  CYS95      -0.2867
     89  CB        36.2870   33.4830   19.5840 C.3    95  CYS95       0.0956
     90  SG        35.7280   32.4130   20.9420 S.3    95  CYS95      -0.0801
     91  N         32.9170   38.6200   20.7840 N.3    98  TYR98      -0.1227
     92  CA        31.5430   38.2990   21.1000 C.3    98  TYR98       0.1736
     93  C         31.3730   37.7450   22.5090 C.2    98  TYR98       0.2595
     94  O         30.3710   38.0420   23.1730 O.2    98  TYR98      -0.2718
     95  CB        30.9680   37.3060   20.0880 C.3    98  TYR98       0.0548
     96  CG        29.5430   36.9650   20.3830 C.ar   98  TYR98      -0.0200
     97  CD1       29.2180   35.8400   21.1300 C.ar   98  TYR98      -0.0009
     98  CD2       28.5190   37.8100   19.9860 C.ar   98  TYR98      -0.0009
     99  CE1       27.8990   35.5490   21.4510 C.ar   98  TYR98       0.0417
    100  CE2       27.2130   37.5390   20.3060 C.ar   98  TYR98       0.0417
    101  CZ        26.9100   36.3940   21.0420 C.ar   98  TYR98       0.1957
    102  OH        25.6060   36.1020   21.3250 O.3    98  TYR98      -0.2866
    103  N         32.3010   36.9020   22.9440 N.am   99  ASN99      -0.1974
    104  CA        32.1570   36.2110   24.2210 C.3    99  ASN99       0.1688
    105  C         32.8480   36.9700   25.4010 C.2    99  ASN99       0.2292
    106  O         33.6620   37.8630   25.1660 O.2    99  ASN99      -0.2864
    107  CB        32.6680   34.7750   24.0780 C.3    99  ASN99       0.1181
    108  CG        31.9460   34.0200   22.9930 C.2    99  ASN99       0.2629
    109  OD1       30.7760   33.6320   23.1730 O.2    99  ASN99      -0.2716
    110  ND2       32.6120   33.8320   21.8380 N.am   99  ASN99      -0.0877
    111  N         34.2800   29.4750   28.7080 N.3   104  ASP104     -0.1225
    112  CA        34.9130   28.2470   28.2000 C.3   104  ASP104      0.1805
    113  C         35.3120   28.4260   26.7130 C.2   104  ASP104      0.2597
    114  O         36.4750   28.1950   26.3500 O.2   104  ASP104     -0.2718
    115  CB        33.9930   27.0080   28.3830 C.3   104  ASP104      0.1424
    116  CG        33.9590   26.4740   29.8530 C.2   104  ASP104      0.3668
    117  OD1       34.6900   26.9990   30.7250 O.co2 104  ASP104     -0.2456
    118  OD2       33.1890   25.5290   30.1390 O.co2 104  ASP104     -0.2456
    119  N         34.3720   28.9000   25.8870 N.am  105  ILE105     -0.1980
    120  CA        34.6500   29.0990   24.4390 C.3   105  ILE105      0.1595
    121  C         35.8630   30.0000   24.1770 C.2   105  ILE105      0.2287
    122  O         36.6150   29.7980   23.2140 O.2   105  ILE105     -0.2864
    123  CB        33.3850   29.5460   23.6450 C.3   105  ILE105      0.0276
    124  CG1       33.5760   29.2940   22.1310 C.3   105  ILE105      0.0022
    125  CG2       32.9690   31.0150   23.9710 C.3   105  ILE105      0.0022
    126  CD1       33.6600   27.8370   21.7140 C.3   105  ILE105      0.0001
    127  N         38.9390   27.8410   25.1380 N.3   108  MET108     -0.1245
    128  CA        39.1490   26.9450   23.9940 C.3   108  MET108      0.1570
    129  C         39.8740   27.6100   22.8210 C.2   108  MET108      0.2261
    130  O         40.8280   27.0430   22.2870 O.2   108  MET108     -0.2867
    131  CB        37.8110   26.3950   23.5300 C.3   108  MET108      0.0387
    132  CG        37.1730   25.4790   24.5860 C.3   108  MET108      0.0595
    133  SD        35.5210   24.9360   24.1220 S.3   108  MET108     -0.1393
    134  CE        35.8410   23.4530   23.2000 C.3   108  MET108      0.0692
@<TRIPOS>BOND
     1    37    34    1
     2    37    38    1
     3    34    35    1
     4    34    33    1
     5    35    36    2
     6    38    39    1
     7    56    54   ar
     8    40    39    2
     9    45    44    2
    10    25    24    2
    11    42    43    1
    12    39    41   am
    13    54    55   ar
    14    54    53    1
    15    44    43    1
    16    44    49   am
    17    53    50    1
    18    50    49    1
    19    50    51    1
    20    24    23    1
    21    43    46    1
    22    82    80   ar
    23    82    83   ar
    24    51    52    2
    25    46    48    1
    26    46    47    1
    27    80    78   ar
    28    23    26    1
    29    23    22    1
    30    84    83    1
    31    76    75    2
    32    26    27    1
    33    75    74    1
    34    83    81   ar
    35     4     3    2
    36    18    17    2
    37    22    17   am
    38    78    77    1
    39    78    79   ar
    40    17    16    1
    41    77    74    1
    42    27    28   ar
    43    27    29   ar
    44    74    73    1
    45    28    30   ar
    46     3     2    1
    47     3    15   am
    48     2     1    1
    49     2     5    1
    50    81    79   ar
    51    68    67    2
    52     5     6    1
    53    16    15    1
    54    16    19    1
    55    15    21    1
    56    29    31   ar
    57    57    58    1
    58    85    86    1
    59    30    32   ar
    60    63    62    1
    61    67    66    1
    62    62    61    1
    63    62    64    1
    64    19    20    1
    65     6     8   ar
    66     6     7   ar
    67    11     8   ar
    68    11    13   ar
    69    31    32   ar
    70    21    20    1
    71    61    58    1
    72    86    89    1
    73    86    87    1
    74    58    59    1
    75    89    90    1
    76    65    66    1
    77    69    66    1
    78    69    70    1
    79     8    10   ar
    80    98   100   ar
    81    98    96   ar
    82    95    96    1
    83    95    92    1
    84    59    60    2
    85    13    14   ar
    86    71    70    1
    87   100   101   ar
    88     7     9   ar
    89    96    97   ar
    90    70    72    1
    91    87    88    2
    92    91    92    1
    93   101   102    1
    94   101    99   ar
    95    92    93    1
    96    97    99   ar
    97    10     9   ar
    98    10    12   ar
    99    14    12   ar
   100   126   124    1
   101   110   108   am
   102   124   123    1
   103   130   129    2
   104    93   103   am
   105    93    94    2
   106   129   128    1
   107   103   104    1
   108   108   109    2
   109   108   107    1
   110   134   133    1
   111   122   121    2
   112   131   128    1
   113   131   132    1
   114   123   125    1
   115   123   120    1
   116   128   127    1
   117   107   104    1
   118   133   132    1
   119   121   120    1
   120   104   105    1
   121   120   119    1
   122   106   105    2
   123   119   113   am
   124   114   113    2
   125   113   112    1
   126   112   115    1
   127   112   111    1
   128   115   116    1
   129   116   118   ar
   130   116   117   ar
