@<TRIPOS>MOLECULE
tmp/3svgA00.pdb
 141 139 0 0 0
SMALL
GASTEIGER

@<TRIPOS>ATOM
      1  N         23.0670   21.7910    1.0180 N.3    40  TRP40      -0.1228
      2  CA        22.8810   20.4050    1.4970 C.3    40  TRP40       0.1722
      3  C         24.1670   19.5810    1.7140 C.2    40  TRP40       0.2437
      4  O         24.2700   18.8880    2.7130 O.2    40  TRP40      -0.2733
      5  CB        21.8180   19.6390    0.6780 C.3    40  TRP40       0.0563
      6  CG        22.1380   19.5550   -0.7660 C.ar   40  TRP40       0.0003
      7  CD1       21.8770   20.5080   -1.7120 C.ar   40  TRP40       0.0946
      8  CD2       22.7750   18.4770   -1.4470 C.ar   40  TRP40       0.0152
      9  NE1       22.3440   20.0930   -2.9340 N.ar   40  TRP40      -0.2442
     10  CE2       22.8850   18.8490   -2.8080 C.ar   40  TRP40       0.0810
     11  CE3       23.2730   17.2240   -1.0480 C.ar   40  TRP40       0.0012
     12  CZ2       23.4760   18.0180   -3.7680 C.ar   40  TRP40       0.0191
     13  CZ3       23.8820   16.4170   -1.9920 C.ar   40  TRP40       0.0001
     14  CH2       23.9590   16.7990   -3.3430 C.ar   40  TRP40       0.0015
     15  N         25.1170   19.5880    0.7770 N.am   41  PRO41      -0.2718
     16  CA        26.3070   18.7700    1.0680 C.3    41  PRO41       0.1535
     17  C         27.1000   19.1730    2.3120 C.2    41  PRO41       0.2598
     18  O         27.9050   18.3850    2.7940 O.2    41  PRO41      -0.2715
     19  CB        27.1870   18.9680   -0.1800 C.3    41  PRO41       0.0310
     20  CG        26.2920   19.5420   -1.2140 C.3    41  PRO41       0.0237
     21  CD        25.2970   20.3730   -0.4580 C.3    41  PRO41       0.0939
     22  N         26.8860   20.4210    2.7700 N.am   42  PHE42      -0.1974
     23  CA        27.6330   21.0510    3.8450 C.3    42  PHE42       0.1639
     24  C         26.8380   21.0880    5.1800 C.2    42  PHE42       0.2290
     25  O         27.3310   21.5990    6.1830 O.2    42  PHE42      -0.2864
     26  CB        28.0030   22.4870    3.4240 C.3    42  PHE42       0.0560
     27  CG        28.8210   22.5610    2.1860 C.ar   42  PHE42      -0.0200
     28  CD1       30.1660   22.3180    2.2290 C.ar   42  PHE42      -0.0042
     29  CD2       28.2370   22.8650    0.9680 C.ar   42  PHE42      -0.0042
     30  CE1       30.9490   22.3460    1.0740 C.ar   42  PHE42      -0.0003
     31  CE2       28.9980   22.9250   -0.1670 C.ar   42  PHE42      -0.0003
     32  CZ        30.3460   22.6580   -0.1220 C.ar   42  PHE42      -0.0000
     33  N         26.0860   18.7090    7.2010 N.3    44  GLN44      -0.1231
     34  CA        26.4690   17.6200    8.1420 C.3    44  GLN44       0.1683
     35  C         27.9140   17.2480    7.7900 C.2    44  GLN44       0.2434
     36  O         28.3510   17.5340    6.6840 O.2    44  GLN44      -0.2733
     37  CB        25.5530   16.3890    8.0380 C.3    44  GLN44       0.0380
     38  CG        25.4410   15.7550    6.6450 C.3    44  GLN44       0.0905
     39  CD        24.6550   16.6360    5.6460 C.2    44  GLN44       0.2608
     40  OE1       23.5420   17.0920    5.9470 O.2    44  GLN44      -0.2717
     41  NE2       25.2350   16.8820    4.4760 N.am   44  GLN44      -0.0878
     42  N         28.6390   16.5670    8.6850 N.am   45  PRO45      -0.2718
     43  CA        29.9870   16.0620    8.3710 C.3    45  PRO45       0.1535
     44  C         30.0140   15.2330    7.0950 C.2    45  PRO45       0.2598
     45  O         29.0270   14.6120    6.7550 O.2    45  PRO45      -0.2715
     46  CB        30.3500   15.2190    9.6060 C.3    45  PRO45       0.0310
     47  CG        29.6210   15.9030   10.7190 C.3    45  PRO45       0.0237
     48  CD        28.2750   16.3130   10.0990 C.3    45  PRO45       0.0939
     49  N         31.1150   15.2850    6.3650 N.am   46  VAL46      -0.1964
     50  CA        31.3130   14.3840    5.2220 C.3    46  VAL46       0.1727
     51  C         31.2500   12.9260    5.7120 C.2    46  VAL46       0.2616
     52  O         32.0160   12.5300    6.5930 O.2    46  VAL46      -0.2715
     53  CB        32.6370   14.6810    4.4860 C.3    46  VAL46       0.0290
     54  CG1       32.9080   13.5980    3.4200 C.3    46  VAL46       0.0023
     55  CG2       32.6420   16.1270    3.8560 C.3    46  VAL46       0.0023
     56  N         30.2910   12.1630    5.2000 N.am   47  ASP47      -0.1971
     57  CA        30.1860   10.7280    5.4800 C.3    47  ASP47       0.1709
     58  C         30.9940    9.9870    4.4230 C.2    47  ASP47       0.2293
     59  O         30.4950    9.6470    3.3550 O.2    47  ASP47      -0.2864
     60  CB        28.7350   10.2850    5.5040 C.3    47  ASP47       0.1436
     61  CG        28.5670    8.8570    5.9820 C.2    47  ASP47       0.3671
     62  OD1       29.5370    8.0720    5.8820 O.co2  47  ASP47      -0.2456
     63  OD2       27.4490    8.5350    6.3850 O.co2  47  ASP47      -0.2456
     64  N         29.5410    8.0100    1.0770 N.3    51  LEU51      -0.1245
     65  CA        30.0020    8.6420   -0.1510 C.3    51  LEU51       0.1561
     66  C         31.1140    7.8710   -0.8730 C.2    51  LEU51       0.2260
     67  O         31.5280    8.2540   -1.9820 O.2    51  LEU51      -0.2867
     68  CB        30.4490   10.1000    0.1180 C.3    51  LEU51       0.0270
     69  CG        29.4200   11.0910    0.6180 C.3    51  LEU51       0.0019
     70  CD1       30.1000   12.4180    1.0490 C.3    51  LEU51       0.0001
     71  CD2       28.3590   11.3200   -0.4550 C.3    51  LEU51       0.0001
     72  N         34.3660    7.6770   -0.1060 N.3    53  LEU53      -0.1245
     73  CA        35.5250    8.5470   -0.2230 C.3    53  LEU53       0.1561
     74  C         36.5260    8.0780    0.8250 C.2    53  LEU53       0.2260
     75  O         36.7220    8.7160    1.8390 O.2    53  LEU53      -0.2867
     76  CB        35.1460   10.0020    0.0050 C.3    53  LEU53       0.0270
     77  CG        34.0850   10.6010   -0.9080 C.3    53  LEU53       0.0019
     78  CD1       33.7060   12.0040   -0.3810 C.3    53  LEU53       0.0001
     79  CD2       34.5350   10.5940   -2.3630 C.3    53  LEU53       0.0001
     80  N         39.1450   10.5400    2.1670 N.3    56  TYR56      -0.1241
     81  CA        38.7180   11.9180    2.5590 C.3    56  TYR56       0.1605
     82  C         39.4800   12.3840    3.8310 C.2    56  TYR56       0.2264
     83  O         40.1290   13.4570    3.8470 O.2    56  TYR56      -0.2867
     84  CB        37.2090   12.0300    2.7620 C.3    56  TYR56       0.0534
     85  CG        36.8240   13.4590    3.0360 C.ar   56  TYR56      -0.0201
     86  CD1       36.6830   14.3740    1.9750 C.ar   56  TYR56      -0.0009
     87  CD2       36.6720   13.9360    4.3550 C.ar   56  TYR56      -0.0009
     88  CE1       36.3940   15.7070    2.2150 C.ar   56  TYR56       0.0417
     89  CE2       36.3870   15.2780    4.5980 C.ar   56  TYR56       0.0417
     90  CZ        36.2390   16.1470    3.5370 C.ar   56  TYR56       0.1957
     91  OH        35.9740   17.4650    3.7530 O.3    56  TYR56      -0.2866
     92  N         37.0670   21.7170    1.2690 N.3    95  CYS95      -0.1235
     93  CA        36.4100   21.3760    0.0350 C.3    95  CYS95       0.1677
     94  C         37.3690   21.6350   -1.1090 C.2    95  CYS95       0.2270
     95  O         37.5150   20.7940   -1.9950 O.2    95  CYS95      -0.2867
     96  CB        35.1230   22.1830   -0.1100 C.3    95  CYS95       0.0956
     97  SG        34.2530   21.9000   -1.6220 S.3    95  CYS95      -0.0801
     98  N         40.3570   18.9660   -1.0510 N.3    98  TYR98      -0.1227
     99  CA        40.0180   17.5750   -1.3780 C.3    98  TYR98       0.1736
    100  C         39.6260   17.4380   -2.8460 C.2    98  TYR98       0.2595
    101  O         39.9860   16.4610   -3.5120 O.2    98  TYR98      -0.2718
    102  CB        38.9340   17.0070   -0.4450 C.3    98  TYR98       0.0548
    103  CG        38.6800   15.5710   -0.7680 C.ar   98  TYR98      -0.0200
    104  CD1       39.5840   14.5890   -0.3790 C.ar   98  TYR98      -0.0009
    105  CD2       37.5920   15.2030   -1.5530 C.ar   98  TYR98      -0.0009
    106  CE1       39.3960   13.2620   -0.7300 C.ar   98  TYR98       0.0417
    107  CE2       37.3680   13.8850   -1.9010 C.ar   98  TYR98       0.0417
    108  CZ        38.2730   12.9090   -1.4980 C.ar   98  TYR98       0.1957
    109  OH        38.0740   11.5840   -1.8750 O.3    98  TYR98      -0.2866
    110  N         38.9080   18.4360   -3.3500 N.am   99  ASN99      -0.1974
    111  CA        38.3020   18.3840   -4.6610 C.3    99  ASN99       0.1688
    112  C         39.1310   19.0880   -5.7390 C.2    99  ASN99       0.2292
    113  O         40.2590   19.5060   -5.4820 O.2    99  ASN99      -0.2864
    114  CB        36.8580   18.8790   -4.5520 C.3    99  ASN99       0.1181
    115  CG        36.0290   17.9790   -3.6210 C.2    99  ASN99       0.2629
    116  OD1       35.6320   16.8580   -4.0130 O.2    99  ASN99      -0.2716
    117  ND2       35.7910   18.4470   -2.3820 N.am   99  ASN99      -0.0877
    118  N         31.4670   20.0100   -9.1740 N.3   104  ASP104     -0.1225
    119  CA        30.2090   20.5410   -8.6190 C.3   104  ASP104      0.1805
    120  C         30.3470   21.0710   -7.1950 C.2   104  ASP104      0.2597
    121  O         29.8980   22.1760   -6.9000 O.2   104  ASP104     -0.2718
    122  CB        29.1080   19.4790   -8.6500 C.3   104  ASP104      0.1424
    123  CG        28.5670   19.2290  -10.0410 C.2   104  ASP104      0.3668
    124  OD1       28.6270   20.1490  -10.8920 O.co2 104  ASP104     -0.2456
    125  OD2       28.0310   18.1260  -10.2700 O.co2 104  ASP104     -0.2456
    126  N         30.9560   20.2870   -6.3070 N.am  105  ILE105     -0.1980
    127  CA        31.0270   20.6840   -4.9090 C.3   105  ILE105      0.1595
    128  C         31.8450   21.9980   -4.7180 C.2   105  ILE105      0.2287
    129  O         31.5380   22.8190   -3.8430 O.2   105  ILE105     -0.2864
    130  CB        31.5780   19.5700   -4.0380 C.3   105  ILE105      0.0276
    131  CG1       31.3400   19.9120   -2.5710 C.3   105  ILE105      0.0022
    132  CG2       33.1310   19.3020   -4.2810 C.3   105  ILE105      0.0022
    133  CD1       29.8190   19.9050   -2.1590 C.3   105  ILE105      0.0001
    134  N         29.7350   24.9220   -5.7210 N.3   108  MET108     -0.1245
    135  CA        28.8080   25.1230   -4.6210 C.3   108  MET108      0.1570
    136  C         29.4680   25.8820   -3.4740 C.2   108  MET108      0.2261
    137  O         28.9050   26.8870   -2.9830 O.2   108  MET108     -0.2867
    138  CB        28.2540   23.7610   -4.1430 C.3   108  MET108      0.0387
    139  CG        27.4050   23.1000   -5.2100 C.3   108  MET108      0.0595
    140  SD        27.0160   21.3540   -4.9140 S.3   108  MET108     -0.1393
    141  CE        25.4780   21.5900   -4.0380 C.3   108  MET108      0.0692
@<TRIPOS>BOND
     1   124   123   ar
     2   125   123   ar
     3   123   122    1
     4   118   119    1
     5   122   119    1
     6   119   120    1
     7   120   121    2
     8   120   126   am
     9   126   127    1
    10   112   113    2
    11   112   111    1
    12   134   135    1
    13   139   140    1
    14   139   138    1
    15   140   141    1
    16   127   128    1
    17   127   130    1
    18   128   129    2
    19   111   114    1
    20   111   110    1
    21   135   138    1
    22   135   136    1
    23   114   115    1
    24   132   130    1
    25   130   131    1
    26   116   115    2
    27    12    14   ar
    28    12    10   ar
    29   115   117   am
    30   101   100    2
    31   136   137    2
    32   110   100   am
    33    14    13   ar
    34     9    10   ar
    35     9     7   ar
    36   100    99    1
    37    10     8   ar
    38   131   133    1
    39    79    77    1
    40    95    94    2
    41    13    11   ar
    42    67    66    2
    43   107   105   ar
    44   107   108   ar
    45   109   108    1
    46     7     6   ar
    47    97    96    1
    48   105   103   ar
    49   108   106   ar
    50     8    11   ar
    51     8     6   ar
    52    99    98    1
    53    99   102    1
    54    20    21    1
    55    20    19    1
    56    94    93    1
    57    77    78    1
    58    77    76    1
    59    66    65    1
    60   103   102    1
    61   103   104   ar
    62     6     5    1
    63   106   104   ar
    64    21    15    1
    65    71    69    1
    66    73    72    1
    67    73    76    1
    68    73    74    1
    69    19    16    1
    70    31    32   ar
    71    31    29   ar
    72    65    68    1
    73    65    64    1
    74    32    30   ar
    75    96    93    1
    76    93    92    1
    77    68    69    1
    78    69    70    1
    79     5     2    1
    80    15    16    1
    81    15     3   am
    82    74    75    2
    83    29    27   ar
    84     1     2    1
    85    16    17    1
    86    30    28   ar
    87     2     3    1
    88     3     4    2
    89    86    88   ar
    90    86    85   ar
    91    80    81    1
    92    27    28   ar
    93    27    26    1
    94    88    90   ar
    95    17    22   am
    96    17    18    2
    97    81    84    1
    98    81    82    1
    99    84    85    1
   100    22    23    1
   101    85    87   ar
   102    59    58    2
   103    54    53    1
   104    26    23    1
   105    90    91    1
   106    90    89   ar
   107    82    83    2
   108    23    24    1
   109    55    53    1
   110    87    89   ar
   111    58    57    1
   112    41    39   am
   113    53    50    1
   114    24    25    2
   115    56    57    1
   116    56    51   am
   117    50    51    1
   118    50    49    1
   119    57    60    1
   120    60    61    1
   121    39    40    2
   122    39    38    1
   123    51    52    2
   124    62    61   ar
   125    61    63   ar
   126    49    44   am
   127    38    37    1
   128    36    35    2
   129    45    44    2
   130    44    43    1
   131    33    34    1
   132    35    34    1
   133    35    42   am
   134    37    34    1
   135    43    42    1
   136    43    46    1
   137    42    48    1
   138    46    47    1
   139    48    47    1
