@<TRIPOS>MOLECULE
tmp/3svhB00.pdb
 120 118 0 0 0
SMALL
GASTEIGER

@<TRIPOS>ATOM
      1  N         -2.7790    9.8100   12.4620 N.3    71  TRP71      -0.1241
      2  CA        -1.7770   10.0870   11.4480 C.3    71  TRP71       0.1605
      3  C         -2.0170    9.2220   10.1940 C.2    71  TRP71       0.2264
      4  O         -1.6450    9.6120    9.1020 O.2    71  TRP71      -0.2867
      5  CB        -0.3640    9.9050   11.9930 C.3    71  TRP71       0.0550
      6  CG        -0.0540   10.8130   13.1100 C.ar   71  TRP71       0.0003
      7  CD1       -0.0450   10.5140   14.4310 C.ar   71  TRP71       0.0946
      8  CD2        0.2170   12.2330   13.0160 C.ar   71  TRP71       0.0152
      9  NE1        0.2360   11.6270   15.1620 N.ar   71  TRP71      -0.2442
     10  CE2        0.4280   12.6940   14.3180 C.ar   71  TRP71       0.0810
     11  CE3        0.3260   13.1340   11.9510 C.ar   71  TRP71       0.0012
     12  CZ2        0.7270   14.0150   14.5990 C.ar   71  TRP71       0.0191
     13  CZ3        0.6470   14.4500   12.2190 C.ar   71  TRP71       0.0001
     14  CH2        0.8440   14.8780   13.5350 C.ar   71  TRP71       0.0015
     15  N         -4.2650   11.2990    8.0980 N.3    74  VAL74      -0.1231
     16  CA        -3.3960   12.3130    7.4410 C.3    74  VAL74       0.1692
     17  C         -2.6280   11.6600    6.2760 C.2    74  VAL74       0.2592
     18  O         -2.5840   12.2040    5.1540 O.2    74  VAL74      -0.2718
     19  CB        -2.4060   12.9680    8.4480 C.3    74  VAL74       0.0266
     20  CG1       -1.4460   13.9520    7.7030 C.3    74  VAL74       0.0020
     21  CG2       -3.1940   13.6870    9.5600 C.3    74  VAL74       0.0020
     22  N         -2.0640   10.4770    6.5190 N.am   75  ASP75      -0.1974
     23  CA        -1.4340    9.7070    5.4160 C.3    75  ASP75       0.1709
     24  C         -2.3400    9.5720    4.1680 C.2    75  ASP75       0.2293
     25  O         -1.9100    9.8280    3.0290 O.2    75  ASP75      -0.2864
     26  CB        -1.0710    8.3000    5.8880 C.3    75  ASP75       0.1436
     27  CG         0.0370    8.2700    6.8970 C.2    75  ASP75       0.3671
     28  OD1        0.7770    9.2530    7.0230 O.co2  75  ASP75      -0.2456
     29  OD2        0.2070    7.2030    7.5120 O.co2  75  ASP75      -0.2456
     30  N         -3.0120   12.9150    2.3530 N.3    78  TRP78      -0.1241
     31  CA        -1.8010   13.2630    1.6090 C.3    78  TRP78       0.1605
     32  C         -1.4710   12.2870    0.4840 C.2    78  TRP78       0.2264
     33  O         -0.8710   12.6790   -0.5270 O.2    78  TRP78      -0.2867
     34  CB        -0.6230   13.4880    2.5670 C.3    78  TRP78       0.0550
     35  CG        -0.5270   14.9410    2.9820 C.ar   78  TRP78       0.0003
     36  CD1       -1.4660   15.6650    3.6650 C.ar   78  TRP78       0.0946
     37  CD2        0.5140   15.8610    2.6500 C.ar   78  TRP78       0.0152
     38  NE1       -1.0500   16.9450    3.8200 N.ar   78  TRP78      -0.2442
     39  CE2        0.1580   17.1100    3.2020 C.ar   78  TRP78       0.0810
     40  CE3        1.7140   15.7550    1.9620 C.ar   78  TRP78       0.0012
     41  CZ2        0.9920   18.2380    3.1200 C.ar   78  TRP78       0.0191
     42  CZ3        2.5350   16.8960    1.8780 C.ar   78  TRP78       0.0001
     43  CH2        2.1360   18.1110    2.4180 C.ar   78  TRP78       0.0015
     44  N         -3.5390   13.8160   -2.1900 N.3    81  PHE81      -0.1227
     45  CA        -2.8590   15.0380   -2.6450 C.3    81  PHE81       0.1736
     46  C         -1.6470   14.7290   -3.5370 C.2    81  PHE81       0.2595
     47  O         -1.5140   15.2460   -4.6620 O.2    81  PHE81      -0.2718
     48  CB        -2.3920   15.8900   -1.4450 C.3    81  PHE81       0.0547
     49  CG        -3.4930   16.5230   -0.6080 C.ar   81  PHE81      -0.0202
     50  CD1       -4.7650   16.6940   -1.0870 C.ar   81  PHE81      -0.0042
     51  CD2       -3.1890   17.0410    0.6690 C.ar   81  PHE81      -0.0042
     52  CE1       -5.7800   17.2740   -0.3120 C.ar   81  PHE81      -0.0003
     53  CE2       -4.1930   17.6530    1.4500 C.ar   81  PHE81      -0.0003
     54  CZ        -5.4920   17.7780    0.9460 C.ar   81  PHE81      -0.0000
     55  N         -0.7740   13.8620   -3.0320 N.am   82  ASN82      -0.1974
     56  CA         0.4590   13.5380   -3.7370 C.3    82  ASN82       0.1688
     57  C          0.1640   12.8930   -5.0800 C.2    82  ASN82       0.2292
     58  O          0.8290   13.1690   -6.0560 O.2    82  ASN82      -0.2864
     59  CB         1.3360   12.6230   -2.8920 C.3    82  ASN82       0.1181
     60  CG         2.0190   13.3560   -1.7320 C.2    82  ASN82       0.2629
     61  OD1        2.3190   14.5560   -1.8050 O.2    82  ASN82      -0.2716
     62  ND2        2.2640   12.6230   -0.6560 N.am   82  ASN82      -0.0877
     63  N         -5.3690   21.3290    0.0070 N.3   102  ALA102     -0.1245
     64  CA        -4.2720   21.1960    0.9450 C.3   102  ALA102      0.1562
     65  C         -4.1810   22.4240    1.8500 C.2   102  ALA102      0.2260
     66  O         -3.8210   22.2880    3.0280 O.2   102  ALA102     -0.2867
     67  CB        -2.9530   20.9640    0.2130 C.3   102  ALA102      0.0290
     68  N         -6.8970   22.0090    4.3510 N.3   105  PHE105     -0.1227
     69  CA        -6.5460   20.9550    5.3000 C.3   105  PHE105      0.1736
     70  C         -5.5490   21.4560    6.3430 C.2   105  PHE105      0.2595
     71  O         -5.6970   21.1490    7.5240 O.2   105  PHE105     -0.2718
     72  CB        -5.9880   19.7610    4.5570 C.3   105  PHE105      0.0547
     73  CG        -5.9170   18.5130    5.3920 C.ar  105  PHE105     -0.0202
     74  CD1       -7.0550   17.9030    5.8800 C.ar  105  PHE105     -0.0042
     75  CD2       -4.6820   17.9540    5.6890 C.ar  105  PHE105     -0.0042
     76  CE1       -6.9890   16.7620    6.6530 C.ar  105  PHE105     -0.0003
     77  CE2       -4.6010   16.8210    6.4660 C.ar  105  PHE105     -0.0003
     78  CZ        -5.7590   16.2130    6.9420 C.ar  105  PHE105     -0.0000
     79  N         -4.5290   22.1940    5.8930 N.am  106  GLU106     -0.1979
     80  CA        -3.4590   22.6740    6.7580 C.3   106  GLU106      0.1602
     81  C         -4.0810   23.4390    7.9110 C.2   106  GLU106      0.2287
     82  O         -3.7300   23.2740    9.0850 O.2   106  GLU106     -0.2864
     83  CB        -2.5160   23.5760    5.9370 C.3   106  GLU106      0.0415
     84  CG        -1.5420   24.3710    6.7620 C.3   106  GLU106      0.1163
     85  CD        -0.5680   25.1990    5.9550 C.2   106  GLU106      0.3649
     86  OE1       -0.4300   25.0090    4.7250 O.co2 106  GLU106     -0.2457
     87  OE2        0.0880   26.0380    6.5860 O.co2 106  GLU106     -0.2457
     88  N         -6.4110   20.8730   10.1620 N.3   109  ILE109     -0.1231
     89  CA        -5.8590   19.6860   10.8100 C.3   109  ILE109      0.1692
     90  C         -5.0000   19.9640   12.0560 C.2   109  ILE109      0.2592
     91  O         -4.9940   19.1620   12.9970 O.2   109  ILE109     -0.2718
     92  CB        -5.1500   18.8090    9.7710 C.3   109  ILE109      0.0266
     93  CG1       -4.8840   17.3850   10.3200 C.3   109  ILE109      0.0019
     94  CG2       -3.8910   19.4470    9.3120 C.3   109  ILE109      0.0020
     95  CD1       -6.1610   16.5120   10.5810 C.3   109  ILE109      0.0001
     96  N         -4.3280   21.1140   12.0970 N.am  110  ASP110     -0.1974
     97  CA        -3.3970   21.4120   13.1950 C.3   110  ASP110      0.1709
     98  C         -4.0230   21.4580   14.5950 C.2   110  ASP110      0.2293
     99  O         -3.6270   20.6970   15.4840 O.2   110  ASP110     -0.2864
    100  CB        -2.6170   22.6910   12.8410 C.3   110  ASP110      0.1436
    101  CG        -1.5470   23.0370   13.8700 C.2   110  ASP110      0.3671
    102  OD1       -1.9040   23.4390   15.0190 O.co2 110  ASP110     -0.2456
    103  OD2       -0.3560   22.9460   13.5150 O.co2 110  ASP110     -0.2456
    104  N         -5.4430   17.9230   15.4830 N.3   113  MET113     -0.1230
    105  CA        -4.4000   16.9620   15.9000 C.3   113  MET113      0.1702
    106  C         -3.8640   17.3110   17.2900 C.2   113  MET113      0.2592
    107  O         -3.7110   16.4160   18.1280 O.2   113  MET113     -0.2718
    108  CB        -3.2600   16.8910   14.8980 C.3   113  MET113      0.0401
    109  CG        -3.6840   16.2800   13.5480 C.3   113  MET113      0.0596
    110  SD        -4.2090   14.5510   13.6500 S.3   113  MET113     -0.1393
    111  CE        -2.9980   13.9990   14.8090 C.3   113  MET113      0.0692
    112  N         -3.6190   18.5870   17.5750 N.am  114  GLN114     -0.1979
    113  CA        -3.1190   18.9390   18.9220 C.3   114  GLN114      0.1601
    114  C         -4.1240   18.5120   20.0140 C.2   114  GLN114      0.2287
    115  O         -3.7300   18.0710   21.0980 O.2   114  GLN114     -0.2864
    116  CB        -2.8170   20.4260   19.0490 C.3   114  GLN114      0.0394
    117  CG        -1.6750   20.9070   18.1620 C.3   114  GLN114      0.0908
    118  CD        -1.1770   22.2720   18.5740 C.2   114  GLN114      0.2608
    119  OE1       -0.9360   22.5280   19.7670 O.2   114  GLN114     -0.2717
    120  NE2       -1.0240   23.1500   17.6080 N.am  114  GLN114     -0.0878
@<TRIPOS>BOND
     1    58    57    2
     2    57    56    1
     3    47    46    2
     4    56    55    1
     5    56    59    1
     6    46    55   am
     7    46    45    1
     8    59    60    1
     9    45    44    1
    10    45    48    1
    11    61    60    2
    12    60    62   am
    13    48    49    1
    14    50    49   ar
    15    50    52   ar
    16    49    51   ar
    17    33    32    2
    18    52    54   ar
    19    63    64    1
    20    67    64    1
    21    32    31    1
    22    51    53   ar
    23    64    65    1
    24    54    53   ar
    25    31    30    1
    26    31    34    1
    27    65    66    2
    28    42    40   ar
    29    42    43   ar
    30    40    37   ar
    31    43    41   ar
    32    34    35    1
    33    37    35   ar
    34    37    39   ar
    35    35    36   ar
    36    25    24    2
    37    41    39   ar
    38    39    38   ar
    39    36    38   ar
    40    24    23    1
    41    68    69    1
    42    72    69    1
    43    72    73    1
    44    86    85   ar
    45    18    17    2
    46    69    70    1
    47    73    75   ar
    48    73    74   ar
    49    23    26    1
    50    23    22    1
    51    75    77   ar
    52    74    76   ar
    53    26    27    1
    54    79    70   am
    55    79    80    1
    56    83    80    1
    57    83    84    1
    58    85    87   ar
    59    85    84    1
    60    17    22   am
    61    17    16    1
    62    70    71    2
    63    77    78   ar
    64    76    78   ar
    65    80    81    1
    66    27    28   ar
    67    27    29   ar
    68    16    15    1
    69    16    19    1
    70    20    19    1
    71    81    82    2
    72    19    21    1
    73     4     3    2
    74    94    92    1
    75    92    93    1
    76    92    89    1
    77    88    89    1
    78     3     2    1
    79    93    95    1
    80    89    90    1
    81     2     5    1
    82     2     1    1
    83    11    13   ar
    84    11     8   ar
    85     5     6    1
    86    90    96   am
    87    90    91    2
    88    96    97    1
    89    13    14   ar
    90   100    97    1
    91   100   101    1
    92     8     6   ar
    93     8    10   ar
    94     6     7   ar
    95    97    98    1
    96   103   101   ar
    97    14    12   ar
    98   109   110    1
    99   109   108    1
   100   110   111    1
   101   101   102   ar
   102    10    12   ar
   103    10     9   ar
   104     7     9   ar
   105    98    99    2
   106   108   105    1
   107   104   105    1
   108   105   106    1
   109   106   112   am
   110   106   107    2
   111   112   113    1
   112   120   118   am
   113   117   118    1
   114   117   116    1
   115   118   119    2
   116   113   116    1
   117   113   114    1
   118   114   115    2
