@<TRIPOS>MOLECULE
tmp/3svhA01.pdb
 121 116 0 0 0
SMALL
GASTEIGER

@<TRIPOS>ATOM
      1  N          6.5690   13.0650   22.1620 N.3    29  LEU29      -0.1231
      2  CA         5.8020   13.9820   23.0510 C.3    29  LEU29       0.1678
      3  C          6.6100   15.1190   23.6970 C.2    29  LEU29       0.2434
      4  O          6.1640   16.2810   23.7090 O.2    29  LEU29      -0.2733
      5  CB         5.0330   13.2170   24.1270 C.3    29  LEU29       0.0284
      6  CG         3.8930   12.2990   23.6940 C.3    29  LEU29       0.0019
      7  CD1        2.7320   12.4020   24.7060 C.3    29  LEU29       0.0001
      8  CD2        3.4020   12.5290   22.2680 C.3    29  LEU29       0.0001
      9  N          7.8170   14.8020   24.1750 N.am   30  PRO30      -0.2718
     10  CA         8.6450   15.8530   24.7780 C.3    30  PRO30       0.1535
     11  C          9.1380   16.9140   23.7940 C.2    30  PRO30       0.2598
     12  O          9.6260   17.9690   24.2050 O.2    30  PRO30      -0.2715
     13  CB         9.8070   15.0530   25.4060 C.3    30  PRO30       0.0310
     14  CG         9.2380   13.6590   25.6120 C.3    30  PRO30       0.0237
     15  CD         8.3930   13.4590   24.4040 C.3    30  PRO30       0.0939
     16  N          8.9880   16.6440   22.5030 N.am   31  PHE31      -0.1974
     17  CA         9.5180   17.4910   21.4190 C.3    31  PHE31       0.1639
     18  C          8.4510   18.2440   20.6090 C.2    31  PHE31       0.2290
     19  O          8.7800   19.0060   19.6940 O.2    31  PHE31      -0.2864
     20  CB        10.2610   16.5650   20.4570 C.3    31  PHE31       0.0560
     21  CG        11.4170   15.8720   21.0910 C.ar   31  PHE31      -0.0200
     22  CD1       12.6660   16.4720   21.1240 C.ar   31  PHE31      -0.0042
     23  CD2       11.2570   14.6220   21.6920 C.ar   31  PHE31      -0.0042
     24  CE1       13.7750   15.8150   21.7500 C.ar   31  PHE31      -0.0003
     25  CE2       12.3510   13.9810   22.3020 C.ar   31  PHE31      -0.0003
     26  CZ        13.6010   14.5930   22.3100 C.ar   31  PHE31      -0.0000
     27  N          6.4790   20.5600   21.5400 N.3    33  GLN33      -0.1245
     28  CA         6.3990   21.9690   21.9830 C.3    33  GLN33       0.1566
     29  C          7.7750   22.4120   22.5810 C.2    33  GLN33       0.2260
     30  O          8.6370   21.5660   22.9010 O.2    33  GLN33      -0.2867
     31  CB         5.2780   22.1500   22.9750 C.3    33  GLN33       0.0367
     32  CG         5.4250   21.3370   24.2380 C.3    33  GLN33       0.0905
     33  CD         5.2830   19.8350   24.0380 C.2    33  GLN33       0.2608
     34  OE1        4.2030   19.3490   23.6760 O.2    33  GLN33      -0.2717
     35  NE2        6.3460   19.0910   24.3130 N.am   33  GLN33      -0.0878
     36  N         10.6930   23.3050   24.9990 N.3    35  VAL35      -0.1245
     37  CA        11.0470   23.0780   26.3890 C.3    35  VAL35       0.1561
     38  C         10.6590   24.3210   27.1940 C.2    35  VAL35       0.2260
     39  O         10.9540   25.4810   26.8120 O.2    35  VAL35      -0.2867
     40  CB        12.5470   22.6990   26.5490 C.3    35  VAL35       0.0252
     41  CG1       12.9570   22.5860   28.0520 C.3    35  VAL35       0.0019
     42  CG2       12.8800   21.4410   25.7220 C.3    35  VAL35       0.0019
     43  N          8.4650   25.4100   33.9580 N.3    39  LEU39      -0.1231
     44  CA         7.5820   24.2700   34.2490 C.3    39  LEU39       0.1693
     45  C          8.3410   23.0560   34.7850 C.2    39  LEU39       0.2591
     46  O          7.9210   22.4310   35.7790 O.2    39  LEU39      -0.2718
     47  CB         6.8230   23.8440   32.9890 C.3    39  LEU39       0.0284
     48  CG         5.6330   22.8850   33.1640 C.3    39  LEU39       0.0019
     49  CD1        4.4680   23.5920   33.8780 C.3    39  LEU39       0.0001
     50  CD2        5.1790   22.3500   31.8050 C.3    39  LEU39       0.0001
     51  N          9.4420   22.7150   34.1090 N.am   40  LEU40      -0.1980
     52  CA        10.2500   21.5690   34.4550 C.3    40  LEU40       0.1596
     53  C         11.2050   21.7980   35.6430 C.2    40  LEU40       0.2287
     54  O         11.8110   20.8570   36.1340 O.2    40  LEU40      -0.2864
     55  CB        11.0390   21.0500   33.2170 C.3    40  LEU40       0.0297
     56  CG        10.1520   20.5120   32.0800 C.3    40  LEU40       0.0022
     57  CD1       10.9080   20.4910   30.7890 C.3    40  LEU40       0.0001
     58  CD2        9.5360   19.0900   32.4620 C.3    40  LEU40       0.0001
     59  N         14.1130   23.5870   35.7850 N.3    42  ILE42      -0.1245
     60  CA        15.4800   23.4760   35.3080 C.3    42  ILE42       0.1561
     61  C         15.9650   24.8370   34.7440 C.2    42  ILE42       0.2260
     62  O         16.1120   25.0180   33.5140 O.2    42  ILE42      -0.2867
     63  CB        15.6290   22.3530   34.2470 C.3    42  ILE42       0.0252
     64  CG1       14.5540   22.4450   33.1600 C.3    42  ILE42       0.0019
     65  CG2       15.6290   21.0080   34.8810 C.3    42  ILE42       0.0019
     66  CD1       14.8590   21.5440   31.8720 C.3    42  ILE42       0.0001
     67  N         18.6430   25.4870   31.8270 N.3    45  TYR45      -0.1241
     68  CA        18.3470   25.0270   30.4410 C.3    45  TYR45       0.1605
     69  C         18.8380   25.9960   29.3470 C.2    45  TYR45       0.2264
     70  O         19.6470   25.6380   28.4700 O.2    45  TYR45      -0.2867
     71  CB        16.8540   24.7040   30.2580 C.3    45  TYR45       0.0534
     72  CG        16.6430   24.0750   28.8740 C.ar   45  TYR45      -0.0201
     73  CD1       17.0360   22.7450   28.6090 C.ar   45  TYR45      -0.0009
     74  CD2       16.1770   24.8420   27.8380 C.ar   45  TYR45      -0.0009
     75  CE1       16.8970   22.2010   27.3060 C.ar   45  TYR45       0.0417
     76  CE2       16.0390   24.3410   26.5650 C.ar   45  TYR45       0.0417
     77  CZ        16.4170   23.0290   26.2850 C.ar   45  TYR45       0.1957
     78  OH        16.2300   22.5970   24.9710 O.3    45  TYR45      -0.2866
     79  N         18.7990   18.3260   22.8080 N.3    84  ALA84      -0.1245
     80  CA        18.3490   17.2730   23.7270 C.3    84  ALA84       0.1562
     81  C         19.4920   16.3150   24.1590 C.2    84  ALA84       0.2260
     82  O         19.5810   15.9020   25.3060 O.2    84  ALA84      -0.2867
     83  CB        17.1970   16.4680   23.0730 C.3    84  ALA84       0.0290
     84  N         21.7550   18.4440   26.5450 N.3    87  TYR87      -0.1227
     85  CA        21.2200   18.7660   27.8670 C.3    87  TYR87       0.1736
     86  C         20.9940   17.5590   28.7700 C.2    87  TYR87       0.2595
     87  O         21.2940   17.6060   29.9490 O.2    87  TYR87      -0.2718
     88  CB        19.9650   19.6560   27.7900 C.3    87  TYR87       0.0548
     89  CG        19.5330   20.1220   29.1640 C.ar   87  TYR87      -0.0200
     90  CD1       20.1960   21.1440   29.8130 C.ar   87  TYR87      -0.0009
     91  CD2       18.5220   19.4680   29.8390 C.ar   87  TYR87      -0.0009
     92  CE1       19.8220   21.5510   31.1240 C.ar   87  TYR87       0.0417
     93  CE2       18.1420   19.8410   31.1210 C.ar   87  TYR87       0.0417
     94  CZ        18.7940   20.8750   31.7720 C.ar   87  TYR87       0.1957
     95  OH        18.4000   21.1790   33.0700 O.3    87  TYR87      -0.2866
     96  N         20.4380   16.5000   28.2320 N.am   88  ASN88      -0.1974
     97  CA        19.9650   15.3800   29.0200 C.3    88  ASN88       0.1688
     98  C         21.0250   14.2780   29.1220 C.2    88  ASN88       0.2292
     99  O         21.8880   14.1810   28.2430 O.2    88  ASN88      -0.2864
    100  CB        18.7210   14.8320   28.3370 C.3    88  ASN88       0.1181
    101  CG        17.6100   15.8550   28.2500 C.2    88  ASN88       0.2629
    102  OD1       16.9450   16.1420   29.2520 O.2    88  ASN88      -0.2716
    103  ND2       17.3700   16.3960   27.0300 N.am   88  ASN88      -0.0877
    104  N         15.2620    8.8060   29.6590 N.3    93  ARG93      -0.1231
    105  CA        14.1640    8.5840   28.7010 C.3    93  ARG93       0.1694
    106  C         14.1900    9.5670   27.5510 C.2    93  ARG93       0.2591
    107  O         14.0530    9.1770   26.3810 O.2    93  ARG93      -0.2718
    108  CB        12.8030    8.6370   29.4000 C.3    93  ARG93       0.0321
    109  CG        11.6350    8.1230   28.5260 C.3    93  ARG93       0.0489
    110  CD        10.3880    7.8030   29.3450 C.3    93  ARG93       0.2205
    111  NE         9.9800    8.9860   30.0920 N.pl3  93  ARG93      -0.0865
    112  CZ         9.2850    8.9620   31.2230 C.cat  93  ARG93       0.5346
    113  NH1        9.0130   10.0960   31.8340 N.pl3  93  ARG93       0.1354
    114  NH2        8.8640    7.8080   31.7350 N.pl3  93  ARG93       0.1354
    115  N         14.3350   10.8490   27.8590 N.am   94  VAL94      -0.1980
    116  CA        14.2830   11.8850   26.8150 C.3    94  VAL94       0.1595
    117  C         15.4370   11.7650   25.7930 C.2    94  VAL94       0.2287
    118  O         15.2580   11.9390   24.5740 O.2    94  VAL94      -0.2864
    119  CB        14.1940   13.3060   27.4310 C.3    94  VAL94       0.0276
    120  CG1       15.4650   13.6810   28.1400 C.3    94  VAL94       0.0022
    121  CG2       13.8360   14.3420   26.3350 C.3    94  VAL94       0.0022
@<TRIPOS>BOND
     1    19    18    2
     2    20    21    1
     3    20    17    1
     4    18    17    1
     5    21    22   ar
     6    21    23   ar
     7    22    24   ar
     8    17    16    1
     9    27    28    1
    10    23    25   ar
    11    24    26   ar
    12    28    29    1
    13    28    31    1
    14     1     2    1
    15     8     6    1
    16    25    26   ar
    17    16    11   am
    18    29    30    2
    19    79    80    1
    20    31    32    1
    21     2     3    1
    22     2     5    1
    23    83    80    1
    24    34    33    2
    25     6     5    1
    26     6     7    1
    27     3     4    2
    28     3     9   am
    29    80    81    1
    30    11    12    2
    31    11    10    1
    32    33    32    1
    33    33    35   am
    34    81    82    2
    35     9    15    1
    36     9    10    1
    37    15    14    1
    38   118   117    2
    39    10    13    1
    40    78    77    1
    41    36    37    1
    42    13    14    1
    43    42    40    1
    44   117   116    1
    45    77    76   ar
    46    77    75   ar
    47   121   119    1
    48   107   106    2
    49    37    40    1
    50    37    38    1
    51    84    85    1
    52    40    41    1
    53    76    74   ar
    54    39    38    2
    55   116   119    1
    56   116   115    1
    57   103   101   am
    58    75    73   ar
    59   119   120    1
    60   106   115   am
    61   106   105    1
    62    88    85    1
    63    88    89    1
    64    74    72   ar
    65    85    86    1
    66    96    86   am
    67    96    97    1
    68    99    98    2
    69   101   100    1
    70   101   102    2
    71   100    97    1
    72    70    69    2
    73   109   110    1
    74   109   108    1
    75    73    72   ar
    76   105   108    1
    77   105   104    1
    78    86    87    2
    79    72    71    1
    80    97    98    1
    81    89    90   ar
    82    89    91   ar
    83   110   111    1
    84    69    68    1
    85    90    92   ar
    86    91    93   ar
    87   111   112    2
    88    71    68    1
    89    68    67    1
    90    57    56    1
    91    93    94   ar
    92    92    94   ar
    93   112   114    1
    94   112   113    1
    95    94    95    1
    96    50    48    1
    97    66    64    1
    98    56    58    1
    99    56    55    1
   100    47    48    1
   101    47    44    1
   102    64    63    1
   103    48    49    1
   104    55    52    1
   105    62    61    2
   106    43    44    1
   107    51    52    1
   108    51    45   am
   109    63    65    1
   110    63    60    1
   111    44    45    1
   112    52    53    1
   113    61    60    1
   114    45    46    2
   115    60    59    1
   116    53    54    2
