@<TRIPOS>MOLECULE
tmp/3svjA00.pdb
 162 156 0 0 0
SMALL
GASTEIGER

@<TRIPOS>ATOM
      1  N         21.9200   -2.4620   -5.0260 N.3    55  SER55      -0.1202
      2  CA        22.1930   -3.7260   -4.3580 C.3    55  SER55       0.2020
      3  C         20.9400   -4.2500   -3.6670 C.2    55  SER55       0.2618
      4  O         20.8320   -5.4490   -3.4010 O.2    55  SER55      -0.2717
      5  CB        23.3240   -3.5760   -3.3390 C.3    55  SER55       0.2103
      6  OG        22.8280   -3.1380   -2.0810 O.3    55  SER55      -0.2182
      7  N         19.9910   -3.3530   -3.4020 N.am   56  GLN56      -0.1979
      8  CA        18.7650   -3.7170   -2.6950 C.3    56  GLN56       0.1601
      9  C         17.6000   -3.9450   -3.6570 C.2    56  GLN56       0.2287
     10  O         16.4910   -4.2890   -3.2410 O.2    56  GLN56      -0.2864
     11  CB        18.3970   -2.6480   -1.6640 C.3    56  GLN56       0.0394
     12  CG        19.3830   -2.5260   -0.5210 C.3    56  GLN56       0.0908
     13  CD        18.9910   -1.4210    0.4470 C.2    56  GLN56       0.2608
     14  OE1       17.8880   -0.8750    0.3690 O.2    56  GLN56      -0.2717
     15  NE2       19.8980   -1.0800    1.3570 N.am   56  GLN56      -0.0878
     16  N         26.1780   -7.9860   -4.2400 N.3    67  ARG67      -0.1231
     17  CA        25.8190   -8.4880   -2.9300 C.3    67  ARG67       0.1694
     18  C         25.0460   -7.3630   -2.2500 C.2    67  ARG67       0.2593
     19  O         25.4050   -6.1920   -2.3900 O.2    67  ARG67      -0.2718
     20  CB        27.0970   -8.7960   -2.1610 C.3    67  ARG67       0.0321
     21  CG        26.9510   -9.8140   -1.0580 C.3    67  ARG67       0.0489
     22  CD        28.2960  -10.0610   -0.4070 C.3    67  ARG67       0.2205
     23  NE        28.1820  -10.1780    1.0420 N.pl3  67  ARG67      -0.0865
     24  CZ        29.2220  -10.2780    1.8610 C.cat  67  ARG67       0.5346
     25  NH1       30.4560  -10.2750    1.3690 N.pl3  67  ARG67       0.1354
     26  NH2       29.0260  -10.3800    3.1690 N.pl3  67  ARG67       0.1354
     27  N         23.9850   -7.7050   -1.5230 N.am   68  GLY68      -0.1942
     28  CA        23.1680   -6.6920   -0.8740 C.3    68  GLY68       0.2014
     29  C         23.8670   -6.0000    0.2800 C.2    68  GLY68       0.2639
     30  O         24.5680   -6.6350    1.0700 O.2    68  GLY68      -0.2714
     31  N         23.6830   -4.6890    0.3800 N.am   69  GLY69      -0.1939
     32  CA        24.2700   -3.9400    1.4770 C.3    69  GLY69       0.2014
     33  C         23.3680   -2.8310    1.9720 C.2    69  GLY69       0.2639
     34  O         22.4830   -2.3740    1.2400 O.2    69  GLY69      -0.2714
     35  N         23.5830   -2.4130    3.2210 N.am   70  VAL70      -0.1963
     36  CA        22.8840   -1.2500    3.7740 C.3    70  VAL70       0.1727
     37  C         23.8390   -0.1300    4.1820 C.2    70  VAL70       0.2616
     38  O         23.4160    0.8960    4.7040 O.2    70  VAL70      -0.2715
     39  CB        21.9860   -1.6240    4.9750 C.3    70  VAL70       0.0290
     40  CG1       20.8680   -2.5640    4.5120 C.3    70  VAL70       0.0023
     41  CG2       22.8090   -2.2610    6.0970 C.3    70  VAL70       0.0023
     42  N         25.1290   -0.3240    3.9390 N.am   71  GLY71      -0.1955
     43  CA        26.1000    0.7230    4.2010 C.3    71  GLY71       0.1869
     44  C         27.3260    0.5600    3.3240 C.2    71  GLY71       0.2309
     45  O         27.6280   -0.5480    2.8870 O.2    71  GLY71      -0.2863
     46  N         16.4410   -0.1030    4.8600 N.3    89  PRO89      -0.2116
     47  CA        15.0150   -0.1330    4.5250 C.3    89  PRO89       0.1372
     48  C         14.1710   -0.4350    5.7600 C.2    89  PRO89       0.2244
     49  O         14.6460   -1.1070    6.6740 O.2    89  PRO89      -0.2868
     50  CB        14.9180   -1.2740    3.5010 C.3    89  PRO89       0.0268
     51  CG        16.0890   -2.1490    3.7910 C.3    89  PRO89       0.0207
     52  CD        17.1810   -1.2440    4.2930 C.3    89  PRO89       0.0892
     53  N         24.0170   -7.4790   16.8100 N.3   114  LEU114     -0.1245
     54  CA        23.0830   -8.2470   15.9920 C.3   114  LEU114      0.1561
     55  C         23.1690   -9.7220   16.3720 C.2   114  LEU114      0.2260
     56  O         24.2570  -10.3010   16.4170 O.2   114  LEU114     -0.2867
     57  CB        23.3880   -8.0900   14.5000 C.3   114  LEU114      0.0270
     58  CG        23.2330   -6.7020   13.8770 C.3   114  LEU114      0.0019
     59  CD1       23.5180   -6.7910   12.3840 C.3   114  LEU114      0.0001
     60  CD2       21.8430   -6.1510   14.1280 C.3   114  LEU114      0.0001
     61  N         22.3940  -12.1720   14.6450 N.3   116  GLU116     -0.1231
     62  CA        22.8130  -12.9880   13.5150 C.3   116  GLU116      0.1699
     63  C         24.2350  -12.6780   13.0490 C.2   116  GLU116      0.2593
     64  O         24.6770  -13.1890   12.0200 O.2   116  GLU116     -0.2718
     65  CB        21.8180  -12.8430   12.3600 C.3   116  GLU116      0.0402
     66  CG        20.3600  -12.8990   12.8040 C.3   116  GLU116      0.1161
     67  CD        19.4550  -13.5870   11.7980 C.2   116  GLU116      0.3649
     68  OE1       18.9010  -12.8960   10.9150 O.co2 116  GLU116     -0.2457
     69  OE2       19.2930  -14.8220   11.8980 O.co2 116  GLU116     -0.2457
     70  N         24.9520  -11.8590   13.8120 N.am  117  GLY117     -0.1942
     71  CA        26.2960  -11.4560   13.4390 C.3   117  GLY117      0.2014
     72  C         26.2850  -10.4170   12.3280 C.2   117  GLY117      0.2639
     73  O         25.2220   -9.9560   11.9160 O.2   117  GLY117     -0.2714
     74  N         27.4670  -10.0500   11.8400 N.am  118  GLU118     -0.1963
     75  CA        27.5820   -9.0260   10.8040 C.3   118  GLU118      0.1733
     76  C         28.2850   -9.5440    9.5620 C.2   118  GLU118      0.2616
     77  O         29.1840  -10.3800    9.6410 O.2   118  GLU118     -0.2715
     78  CB        28.3240   -7.7950   11.3240 C.3   118  GLU118      0.0429
     79  CG        27.5650   -7.0500   12.4170 C.3   118  GLU118      0.1163
     80  CD        28.2150   -5.7350   12.8080 C.2   118  GLU118      0.3649
     81  OE1       29.1770   -5.3060   12.1370 O.co2 118  GLU118     -0.2457
     82  OE2       27.7600   -5.1220   13.7940 O.co2 118  GLU118     -0.2457
     83  N         27.8590   -9.0220    8.4200 N.am  119  GLY119     -0.1955
     84  CA        28.4870   -9.3090    7.1420 C.3   119  GLY119      0.1869
     85  C         29.1490   -8.0490    6.6240 C.2   119  GLY119      0.2309
     86  O         28.8690   -6.9520    7.1030 O.2   119  GLY119     -0.2863
     87  N         31.0350   -6.3160    2.8240 N.3   120  LEU120     -0.1245
     88  CA        31.2570   -6.4760    1.3880 C.3   120  LEU120      0.1561
     89  C         32.7130   -6.7610    1.0230 C.2   120  LEU120      0.2260
     90  O         32.9960   -7.3390   -0.0300 O.2   120  LEU120     -0.2867
     91  CB        30.7510   -5.2410    0.6420 C.3   120  LEU120      0.0270
     92  CG        29.2960   -4.8880    0.9550 C.3   120  LEU120      0.0019
     93  CD1       28.9340   -3.5130    0.4080 C.3   120  LEU120      0.0001
     94  CD2       28.3580   -5.9600    0.4080 C.3   120  LEU120      0.0001
     95  N         32.5900  -16.1490    6.1970 N.3   125  ASN125     -0.1225
     96  CA        31.7520  -15.9280    7.3680 C.3   125  ASN125      0.1785
     97  C         32.6040  -15.8900    8.6230 C.2   125  ASN125      0.2597
     98  O         33.4000  -16.7960    8.8690 O.2   125  ASN125     -0.2718
     99  CB        30.6770  -17.0100    7.4830 C.3   125  ASN125      0.1169
    100  CG        29.7230  -17.0100    6.3050 C.2   125  ASN125      0.2627
    101  OD1       29.4300  -15.9620    5.7280 O.2   125  ASN125     -0.2716
    102  ND2       29.2350  -18.1910    5.9370 N.am  125  ASN125     -0.0877
    103  N         32.4440  -14.8250    9.4020 N.am  126  VAL126     -0.1966
    104  CA        33.1410  -14.6880   10.6710 C.3   126  VAL126      0.1712
    105  C         32.0980  -14.5890   11.7790 C.2   126  VAL126      0.2458
    106  O         31.5090  -13.5290   11.9960 O.2   126  VAL126     -0.2730
    107  CB        34.0620  -13.4540   10.6750 C.3   126  VAL126      0.0289
    108  CG1       34.9040  -13.4200   11.9370 C.3   126  VAL126      0.0023
    109  CG2       34.9570  -13.4650    9.4430 C.3   126  VAL126      0.0023
    110  N         31.8570  -15.7090   12.4770 N.am  127  PRO127     -0.2727
    111  CA        30.7690  -15.8420   13.4510 C.3   127  PRO127      0.1402
    112  C         31.0340  -15.0670   14.7280 C.2   127  PRO127      0.2269
    113  O         32.1890  -14.8450   15.0970 O.2   127  PRO127     -0.2865
    114  CB        30.7660  -17.3400   13.7570 C.3   127  PRO127      0.0296
    115  CG        32.1850  -17.7520   13.5570 C.3   127  PRO127      0.0237
    116  CD        32.6730  -16.9340   12.3930 C.3   127  PRO127      0.0939
    117  N         18.8970   -1.3030   14.6920 N.3   155  TYR155     -0.1241
    118  CA        19.6980   -1.6060   13.5160 C.3   155  TYR155      0.1605
    119  C         20.4450   -0.3800   12.9830 C.2   155  TYR155      0.2264
    120  O         21.6030   -0.4850   12.5570 O.2   155  TYR155     -0.2867
    121  CB        18.8180   -2.1620   12.3880 C.3   155  TYR155      0.0534
    122  CG        18.2020   -3.5210   12.6270 C.ar  155  TYR155     -0.0201
    123  CD1       18.7110   -4.3910   13.5820 C.ar  155  TYR155     -0.0009
    124  CD2       17.1160   -3.9430   11.8680 C.ar  155  TYR155     -0.0009
    125  CE1       18.1390   -5.6420   13.7860 C.ar  155  TYR155      0.0417
    126  CE2       16.5420   -5.1820   12.0620 C.ar  155  TYR155      0.0417
    127  CZ        17.0560   -6.0280   13.0190 C.ar  155  TYR155      0.1957
    128  OH        16.4750   -7.2620   13.2000 O.3   155  TYR155     -0.2866
    129  N         23.6490    0.2220   14.7320 N.3   158  ILE158     -0.1231
    130  CA        24.6550   -0.7760   14.3680 C.3   158  ILE158      0.1692
    131  C         25.2980   -0.4380   13.0160 C.2   158  ILE158      0.2591
    132  O         26.5200   -0.4330   12.8760 O.2   158  ILE158     -0.2718
    133  CB        24.0450   -2.1970   14.3110 C.3   158  ILE158      0.0266
    134  CG1       23.5600   -2.6440   15.7000 C.3   158  ILE158      0.0019
    135  CG2       25.0510   -3.2010   13.7380 C.3   158  ILE158      0.0020
    136  CD1       24.6670   -2.8150   16.7320 C.3   158  ILE158      0.0001
    137  N         24.4640   -0.1350   12.0270 N.am  159  VAL159     -0.1980
    138  CA        24.9420    0.1250   10.6670 C.3   159  VAL159      0.1595
    139  C         25.8610    1.3400   10.6200 C.2   159  VAL159      0.2287
    140  O         26.9290    1.3060   10.0180 O.2   159  VAL159     -0.2864
    141  CB        23.7680    0.3270    9.7050 C.3   159  VAL159      0.0276
    142  CG1       24.2790    0.7740    8.3450 C.3   159  VAL159      0.0022
    143  CG2       22.9780   -0.9730    9.5720 C.3   159  VAL159      0.0022
    144  N         29.1960    0.6120   12.1940 N.3   162  HIS162     -0.1226
    145  CA        29.9720   -0.2560   11.3150 C.3   162  HIS162      0.1752
    146  C         30.6700    0.5880   10.2390 C.2   162  HIS162      0.2595
    147  O         31.8630    0.4190    9.9750 O.2   162  HIS162     -0.2718
    148  CB        29.0390   -1.3040   10.6990 C.3   162  HIS162      0.0759
    149  CG        29.6890   -2.2010    9.6920 C.ar  162  HIS162      0.0818
    150  ND1       29.8580   -3.5530    9.9030 N.ar  162  HIS162     -0.2268
    151  CD2       30.1760   -1.9500    8.4550 C.ar  162  HIS162      0.1154
    152  CE1       30.4370   -4.0940    8.8490 C.ar  162  HIS162      0.1986
    153  NE2       30.6450   -3.1420    7.9570 N.ar  162  HIS162     -0.2212
    154  N         29.9380    1.5150    9.6280 N.am  163  GLU163     -0.1979
    155  CA        30.5340    2.3240    8.5680 C.3   163  GLU163      0.1602
    156  C         31.5610    3.3040    9.1060 C.2   163  GLU163      0.2287
    157  O         32.5910    3.5420    8.4800 O.2   163  GLU163     -0.2864
    158  CB        29.4630    3.0590    7.7580 C.3   163  GLU163      0.0415
    159  CG        28.5000    2.1260    7.0610 C.3   163  GLU163      0.1163
    160  CD        29.2090    1.0650    6.2300 C.2   163  GLU163      0.3649
    161  OE1       30.3010    1.3500    5.6910 O.co2 163  GLU163     -0.2457
    162  OE2       28.6740   -0.0590    6.1280 O.co2 163  GLU163     -0.2457
@<TRIPOS>BOND
     1     1     2    1
     2     2     3    1
     3     2     5    1
     4    16    17    1
     5     3     7   am
     6     3     4    2
     7     9    10    2
     8     9     8    1
     9     7     8    1
    10     5     6    1
    11    17    18    1
    12    17    20    1
    13     8    11    1
    14    19    18    2
    15    18    27   am
    16    20    21    1
    17    11    12    1
    18    27    28    1
    19    21    22    1
    20    28    29    1
    21    12    13    1
    22    22    23    1
    23    90    89    2
    24    29    31   am
    25    29    30    2
    26    14    13    2
    27    31    32    1
    28    94    92    1
    29    93    92    1
    30    13    15   am
    31    91    92    1
    32    91    88    1
    33    89    88    1
    34    23    24    2
    35    34    33    2
    36    25    24    1
    37    88    87    1
    38    32    33    1
    39    24    26    1
    40    33    35   am
    41    45    44    2
    42    35    36    1
    43    44    43    1
    44    50    51    1
    45    50    47    1
    46    36    37    1
    47    36    39    1
    48    51    52    1
    49    42    37   am
    50    42    43    1
    51    37    38    2
    52    52    46    1
    53    40    39    1
    54    47    46    1
    55    47    48    1
    56    39    41    1
    57   161   160   ar
    58   101   100    2
    59    48    49    2
    60   102   100   am
    61   162   160   ar
    62    95    96    1
    63   160   159    1
    64   100    99    1
    65    85    86    2
    66    85    84    1
    67   159   158    1
    68    84    83    1
    69    96    99    1
    70    96    97    1
    71   158   155    1
    72   153   151   ar
    73   153   152   ar
    74   142   141    1
    75    83    76   am
    76   151   149   ar
    77   157   156    2
    78   155   156    1
    79   155   154    1
    80    97    98    2
    81    97   103   am
    82   152   150   ar
    83   103   104    1
    84   109   107    1
    85    76    77    2
    86    76    75    1
    87   143   141    1
    88   154   146   am
    89   149   150   ar
    90   149   148    1
    91   141   138    1
    92   147   146    2
    93   140   139    2
    94   146   145    1
    95   139   138    1
    96   138   137    1
    97   104   107    1
    98   104   105    1
    99   107   108    1
   100   148   145    1
   101    75    78    1
   102    75    74    1
   103    68    67   ar
   104   145   144    1
   105    78    79    1
   106   105   106    2
   107   105   110   am
   108    67    69   ar
   109    67    66    1
   110    74    72   am
   111   124   126   ar
   112   124   122   ar
   113    73    72    2
   114    64    63    2
   115   137   131   am
   116   126   127   ar
   117    81    80   ar
   118    72    71    1
   119    65    66    1
   120    65    62    1
   121    59    58    1
   122   121   122    1
   123   121   118    1
   124   116   110    1
   125   116   115    1
   126    79    80    1
   127   110   111    1
   128   120   119    2
   129   122   123   ar
   130    80    82   ar
   131   132   131    2
   132   119   118    1
   133   131   130    1
   134   127   128    1
   135   127   125   ar
   136    63    62    1
   137    63    70   am
   138    71    70    1
   139   111   114    1
   140   111   112    1
   141    62    61    1
   142   118   117    1
   143   115   114    1
   144   123   125   ar
   145   135   133    1
   146    58    60    1
   147    58    57    1
   148   133   130    1
   149   133   134    1
   150   130   129    1
   151    57    54    1
   152   112   113    2
   153   134   136    1
   154    54    55    1
   155    54    53    1
   156    55    56    2
