@<TRIPOS>MOLECULE
tmp/3svlB01.pdb
 149 145 0 0 0
SMALL
GASTEIGER

@<TRIPOS>ATOM
      1  N         74.5410   38.6000   19.1370 N.3    10  SER10      -0.1217
      2  CA        73.4890   39.2760   19.9000 C.3    10  SER10       0.1889
      3  C         73.6580   39.0250   21.3990 C.2    10  SER10       0.2288
      4  O         74.0580   37.9360   21.8180 O.2    10  SER10      -0.2866
      5  CB        72.1000   38.7960   19.4740 C.3    10  SER10       0.2089
      6  OG        71.1150   39.2140   20.4140 O.3    10  SER10      -0.2183
      7  N         71.0230   39.6910   23.7550 N.3    12  ARG12      -0.1245
      8  CA        69.7850   39.5440   24.5120 C.3    12  ARG12       0.1563
      9  C         69.4450   38.0940   24.7980 C.2    12  ARG12       0.2260
     10  O         69.6830   37.2050   23.9840 O.2    12  ARG12      -0.2867
     11  CB        68.6030   40.2420   23.8210 C.3    12  ARG12       0.0307
     12  CG        67.9660   39.4930   22.6710 C.3    12  ARG12       0.0489
     13  CD        66.8750   40.3330   22.0120 C.3    12  ARG12       0.2205
     14  NE        66.2720   39.6670   20.8570 N.pl3  12  ARG12      -0.0865
     15  CZ        65.1390   38.9700   20.8870 C.cat  12  ARG12       0.5346
     16  NH1       64.4560   38.8330   22.0220 N.pl3  12  ARG12       0.1354
     17  NH2       64.6850   38.4100   19.7730 N.pl3  12  ARG12       0.1354
     18  N         67.5200   36.0880   22.2130 N.3    15  SER15      -0.1202
     19  CA        68.0620   36.1750   20.8560 C.3    15  SER15       0.2020
     20  C         67.6680   35.0100   19.9510 C.2    15  SER15       0.2619
     21  O         67.7500   33.8490   20.3410 O.2    15  SER15      -0.2717
     22  CB        69.5900   36.2550   20.9080 C.3    15  SER15       0.2103
     23  OG        70.1640   36.0550   19.6260 O.3    15  SER15      -0.2182
     24  N         67.2460   35.3280   18.7350 N.am   16  PHE16      -0.1961
     25  CA        66.8770   34.2990   17.7780 C.3    16  PHE16       0.1771
     26  C         68.1490   33.6500   17.2340 C.2    16  PHE16       0.2619
     27  O         68.2090   32.4280   17.0540 O.2    16  PHE16      -0.2715
     28  CB        66.0330   34.9000   16.6450 C.3    16  PHE16       0.0574
     29  CG        64.6270   35.2450   17.0630 C.ar   16  PHE16      -0.0200
     30  CD1       63.7990   34.2720   17.6290 C.ar   16  PHE16      -0.0042
     31  CD2       64.1380   36.5440   16.9270 C.ar   16  PHE16      -0.0042
     32  CE1       62.5060   34.5880   18.0610 C.ar   16  PHE16      -0.0003
     33  CE2       62.8500   36.8740   17.3530 C.ar   16  PHE16      -0.0003
     34  CZ        62.0290   35.8950   17.9240 C.ar   16  PHE16      -0.0000
     35  N         69.1680   34.4660   16.9830 N.am   17  ASN17      -0.1972
     36  CA        70.4430   33.9510   16.4850 C.3    17  ASN17       0.1688
     37  C         71.0380   33.0770   17.5780 C.2    17  ASN17       0.2292
     38  O         71.7900   32.1390   17.3000 O.2    17  ASN17      -0.2864
     39  CB        71.3960   35.1040   16.1520 C.3    17  ASN17       0.1181
     40  CG        70.9960   35.8400   14.8930 C.2    17  ASN17       0.2629
     41  OD1       71.2920   35.3970   13.7870 O.2    17  ASN17      -0.2716
     42  ND2       70.3040   36.9600   15.0540 N.am   17  ASN17      -0.0877
     43  N         72.9840   38.7820   14.1410 N.3    78  PRO78      -0.2102
     44  CA        71.8760   39.4820   13.4990 C.3    78  PRO78       0.1504
     45  C         72.5030   40.6340   12.7130 C.2    78  PRO78       0.2576
     46  O         73.7230   40.8240   12.7300 O.2    78  PRO78      -0.2718
     47  CB        71.0460   39.9740   14.6770 C.3    78  PRO78       0.0282
     48  CG        72.0830   40.2380   15.7240 C.3    78  PRO78       0.0208
     49  CD        73.0010   39.0370   15.5940 C.3    78  PRO78       0.0893
     50  N         71.6600   41.3960   12.0350 N.am   79  GLU79      -0.1966
     51  CA        72.0950   42.5340   11.2480 C.3    79  GLU79       0.1733
     52  C         71.5870   43.7980   11.9470 C.2    79  GLU79       0.2616
     53  O         70.4030   43.8930   12.2590 O.2    79  GLU79      -0.2715
     54  CB        71.5000   42.4210    9.8380 C.3    79  GLU79       0.0429
     55  CG        71.7110   43.6270    8.9420 C.3    79  GLU79       0.1163
     56  CD        71.0210   43.4620    7.5960 C.2    79  GLU79       0.3649
     57  OE1       71.3790   42.5180    6.8550 O.co2  79  GLU79      -0.2457
     58  OE2       70.1200   44.2690    7.2800 O.co2  79  GLU79      -0.2457
     59  N         72.4800   44.7460   12.2170 N.am   80  TYR80      -0.1960
     60  CA        72.0970   45.9990   12.8630 C.3    80  TYR80       0.1771
     61  C         72.3570   47.1620   11.9140 C.2    80  TYR80       0.2620
     62  O         73.5030   47.4160   11.5330 O.2    80  TYR80      -0.2715
     63  CB        72.9030   46.2450   14.1510 C.3    80  TYR80       0.0574
     64  CG        72.5090   45.4330   15.3800 C.ar   80  TYR80      -0.0198
     65  CD1       71.4950   44.4670   15.3380 C.ar   80  TYR80      -0.0009
     66  CD2       73.1820   45.6270   16.5910 C.ar   80  TYR80      -0.0009
     67  CE1       71.1760   43.7140   16.4710 C.ar   80  TYR80       0.0417
     68  CE2       72.8750   44.8910   17.7230 C.ar   80  TYR80       0.0417
     69  CZ        71.8820   43.9330   17.6640 C.ar   80  TYR80       0.1957
     70  OH        71.6440   43.1720   18.7870 O.3    80  TYR80      -0.2866
     71  N         71.2940   47.8620   11.5350 N.am   81  ASN81      -0.1958
     72  CA        71.3990   49.0150   10.6440 C.3    81  ASN81       0.1819
     73  C         72.1820   48.7160    9.3670 C.2    81  ASN81       0.2621
     74  O         73.1290   49.4270    9.0170 O.2    81  ASN81      -0.2715
     75  CB        72.0350   50.1920   11.3980 C.3    81  ASN81       0.1195
     76  CG        71.2440   50.5750   12.6320 C.2    81  ASN81       0.2630
     77  OD1       70.0280   50.7650   12.5610 O.2    81  ASN81      -0.2716
     78  ND2       71.9210   50.6880   13.7680 N.am   81  ASN81      -0.0877
     79  N         71.7750   47.6490    8.6880 N.am   82  TYR82      -0.1974
     80  CA        72.3810   47.2200    7.4410 C.3    82  TYR82       0.1639
     81  C         73.8380   46.8070    7.5570 C.2    82  TYR82       0.2290
     82  O         74.5580   46.7760    6.5630 O.2    82  TYR82      -0.2864
     83  CB        72.2350   48.3310    6.4000 C.3    82  TYR82       0.0560
     84  CG        70.8020   48.5850    6.0050 C.ar   82  TYR82      -0.0198
     85  CD1       69.7730   47.7930    6.5170 C.ar   82  TYR82      -0.0009
     86  CD2       70.4740   49.5830    5.0880 C.ar   82  TYR82      -0.0009
     87  CE1       68.4620   47.9770    6.1280 C.ar   82  TYR82       0.0417
     88  CE2       69.1600   49.7780    4.6910 C.ar   82  TYR82       0.0417
     89  CZ        68.1600   48.9670    5.2170 C.ar   82  TYR82       0.1957
     90  OH        66.8520   49.1330    4.8480 O.3    82  TYR82      -0.2866
     91  N         70.3460   35.7900   10.9710 N.3   113  SER113     -0.1202
     92  CA        68.9030   35.6330   11.0650 C.3   113  SER113      0.2020
     93  C         68.2620   36.9490   11.4450 C.2   113  SER113      0.2619
     94  O         68.8120   37.7190   12.2340 O.2   113  SER113     -0.2717
     95  CB        68.5280   34.5800   12.1110 C.3   113  SER113      0.2103
     96  OG        68.6910   33.2780   11.5930 O.3   113  SER113     -0.2182
     97  N         67.0820   37.1830   10.8900 N.am  114  SER114     -0.1937
     98  CA        66.3510   38.4030   11.1380 C.3   114  SER114      0.2055
     99  C         64.8530   38.1350   11.0980 C.2   114  SER114      0.2643
    100  O         64.4080   37.0960   10.6090 O.2   114  SER114     -0.2714
    101  CB        66.7270   39.4380   10.0660 C.3   114  SER114      0.2130
    102  OG        65.8790   40.5700   10.1210 O.3   114  SER114     -0.2179
    103  N         64.0790   39.0740   11.6230 N.am  115  MET115     -0.1962
    104  CA        62.6320   38.9500   11.5990 C.3   115  MET115      0.1736
    105  C         62.1670   39.3720   10.2080 C.2   115  MET115      0.2617
    106  O         61.0510   39.0770    9.7940 O.2   115  MET115     -0.2715
    107  CB        61.9950   39.8390   12.6750 C.3   115  MET115      0.0427
    108  CG        62.3490   39.3960   14.0910 C.3   115  MET115      0.0599
    109  SD        61.3940   40.1970   15.3950 S.3   115  MET115     -0.1393
    110  CE        59.8220   39.4520   15.1470 C.3   115  MET115      0.0692
    111  N         63.0540   40.0450    9.4820 N.am  116  GLY116     -0.1955
    112  CA        62.7350   40.5000    8.1430 C.3   116  GLY116      0.1869
    113  C         62.9960   39.4490    7.0810 C.2   116  GLY116      0.2309
    114  O         63.7230   38.4790    7.2890 O.2   116  GLY116     -0.2863
    115  N         64.7450   39.6240    4.3110 N.3   118  ILE118     -0.1231
    116  CA        66.1210   39.5660    3.8100 C.3   118  ILE118      0.1692
    117  C         67.0810   38.7620    4.7070 C.2   118  ILE118      0.2593
    118  O         68.1780   38.3740    4.2830 O.2   118  ILE118     -0.2718
    119  CB        66.6310   41.0050    3.5550 C.3   118  ILE118      0.0266
    120  CG1       65.8190   41.6050    2.3960 C.3   118  ILE118      0.0019
    121  CG2       68.1300   41.0150    3.2220 C.3   118  ILE118      0.0020
    122  CD1       66.0580   43.0790    2.1450 C.3   118  ILE118      0.0001
    123  N         66.6560   38.5140    5.9420 N.am  119  GLY119     -0.1942
    124  CA        67.4360   37.7180    6.8750 C.3   119  GLY119      0.2014
    125  C         68.8920   38.0260    7.1880 C.2   119  GLY119      0.2639
    126  O         69.6770   37.1010    7.4040 O.2   119  GLY119     -0.2714
    127  N         69.2570   39.3030    7.2270 N.am  120  GLY120     -0.1954
    128  CA        70.6270   39.6810    7.5490 C.3   120  GLY120      0.1869
    129  C         71.6780   39.5880    6.4520 C.2   120  GLY120      0.2309
    130  O         72.8760   39.5790    6.7460 O.2   120  GLY120     -0.2863
    131  N         72.7010   41.8150    4.2780 N.3   122  ARG122     -0.1245
    132  CA        73.5440   43.0120    4.2290 C.3   122  ARG122      0.1563
    133  C         74.7200   42.8890    5.1890 C.2   122  ARG122      0.2260
    134  O         75.8510   43.2170    4.8490 O.2   122  ARG122     -0.2867
    135  CB        72.7380   44.2490    4.6060 C.3   122  ARG122      0.0307
    136  CG        71.4660   44.4720    3.8070 C.3   122  ARG122      0.0489
    137  CD        70.7480   45.6620    4.4150 C.3   122  ARG122      0.2205
    138  NE        69.5430   46.0520    3.7010 N.pl3 122  ARG122     -0.0865
    139  CZ        68.3380   45.5350    3.9050 C.cat 122  ARG122      0.5346
    140  NH1       68.1510   44.5870    4.8180 N.pl3 122  ARG122      0.1354
    141  NH2       67.3140   45.9780    3.1900 N.pl3 122  ARG122      0.1354
    142  N         62.6680   34.7710   11.0470 N.3   149  ILE149     -0.1245
    143  CA        63.1590   33.7900   11.9990 C.3   149  ILE149      0.1561
    144  C         62.2110   33.4910   13.1670 C.2   149  ILE149      0.2260
    145  O         62.2140   32.3790   13.6930 O.2   149  ILE149     -0.2867
    146  CB        64.5450   34.2280   12.5420 C.3   149  ILE149      0.0252
    147  CG1       65.2110   33.0620   13.2720 C.3   149  ILE149      0.0019
    148  CG2       64.3940   35.4240   13.4700 C.3   149  ILE149      0.0019
    149  CD1       65.4340   31.8490   12.3990 C.3   149  ILE149      0.0001
@<TRIPOS>BOND
     1   122   120    1
     2   120   119    1
     3   141   139    1
     4   121   119    1
     5   119   116    1
     6   138   139    2
     7   138   137    1
     8   136   137    1
     9   136   135    1
    10   116   115    1
    11   116   117    1
    12   139   140    1
    13   132   131    1
    14   132   135    1
    15   132   133    1
    16   118   117    2
    17    88    86   ar
    18    88    89   ar
    19   117   123   am
    20    90    89    1
    21   134   133    2
    22    86    84   ar
    23    89    87   ar
    24   123   124    1
    25    84    83    1
    26    84    85   ar
    27    87    85   ar
    28    83    80    1
    29   129   130    2
    30   129   128    1
    31    82    81    2
    32    57    56   ar
    33   124   125    1
    34   113   114    2
    35   113   112    1
    36   125   127   am
    37   125   126    2
    38   127   128    1
    39    58    56   ar
    40    80    81    1
    41    80    79    1
    42    56    55    1
    43   112   111    1
    44    79    73   am
    45    55    54    1
    46    74    73    2
    47    73    72    1
    48   111   105   am
    49   106   105    2
    50    54    51    1
    51   101   102    1
    52   101    98    1
    53   105   104    1
    54   100    99    2
    55    72    75    1
    56    72    71    1
    57    97    98    1
    58    97    93   am
    59    91    92    1
    60   142   143    1
    61    92    93    1
    62    92    95    1
    63    99    98    1
    64    99   103   am
    65    51    52    1
    66    51    50    1
    67    75    76    1
    68    93    94    2
    69    62    61    2
    70    71    61   am
    71    96    95    1
    72   104   103    1
    73   104   107    1
    74    61    60    1
    75    52    59   am
    76    52    53    2
    77   143   146    1
    78   143   144    1
    79    50    45   am
    80    59    60    1
    81   149   147    1
    82   146   147    1
    83   146   148    1
    84    77    76    2
    85    76    78   am
    86   107   108    1
    87    45    46    2
    88    45    44    1
    89    60    63    1
    90   144   145    2
    91    44    43    1
    92    44    47    1
    93    41    40    2
    94   108   109    1
    95    43    49    1
    96    63    64    1
    97    47    48    1
    98    40    42   am
    99    40    39    1
   100   110   109    1
   101    65    64   ar
   102    65    67   ar
   103    64    66   ar
   104    49    48    1
   105    39    36    1
   106    67    69   ar
   107    36    35    1
   108    36    37    1
   109    66    68   ar
   110    28    29    1
   111    28    25    1
   112    31    29   ar
   113    31    33   ar
   114    35    26   am
   115    27    26    2
   116    29    30   ar
   117    26    25    1
   118    38    37    2
   119    33    34   ar
   120    30    32   ar
   121    69    68   ar
   122    69    70    1
   123    25    24    1
   124    34    32   ar
   125    24    20   am
   126     1     2    1
   127     5     2    1
   128     5     6    1
   129    23    22    1
   130    17    15    1
   131     2     3    1
   132    20    21    2
   133    20    19    1
   134    19    22    1
   135    19    18    1
   136    14    15    2
   137    14    13    1
   138    15    16    1
   139     3     4    2
   140    13    12    1
   141    12    11    1
   142     7     8    1
   143    11     8    1
   144    10     9    2
   145     8     9    1
