@<TRIPOS>MOLECULE
tmp/3svmA00.pdb
 186 185 0 0 0
SMALL
GASTEIGER

@<TRIPOS>ATOM
      1  N        -22.8780  -11.7860   -5.6070 N.3     1  GLU1       -0.1245
      2  CA       -21.5700  -11.4840   -4.9620 C.3     1  GLU1        0.1567
      3  C        -21.1050  -10.0580   -5.2580 C.2     1  GLU1        0.2260
      4  O        -19.9240   -9.8370   -5.5360 O.2     1  GLU1       -0.2867
      5  CB       -20.5100  -12.4920   -5.4270 C.3     1  GLU1        0.0388
      6  CG       -20.1090  -12.4200   -6.8290 C.3     1  GLU1        0.1160
      7  CD       -19.0200  -13.5180   -7.2520 C.2     1  GLU1        0.3649
      8  OE1      -18.5180  -14.1790   -6.3940 O.co2   1  GLU1       -0.2457
      9  OE2      -18.8900  -13.5130   -8.3940 O.co2   1  GLU1       -0.2457
     10  N        -19.8790   -7.9800   -6.8500 N.3     3  VAL3       -0.1231
     11  CA       -18.9640   -7.8070   -7.9780 C.3     3  VAL3        0.1692
     12  C        -18.1490   -6.5440   -7.7520 C.2     3  VAL3        0.2592
     13  O        -18.6840   -5.4990   -7.3900 O.2     3  VAL3       -0.2718
     14  CB       -19.6880   -7.7410   -9.3350 C.3     3  VAL3        0.0266
     15  CG1      -18.7500   -7.1860  -10.3930 C.3     3  VAL3        0.0020
     16  CG2      -20.1510   -9.1430   -9.7310 C.3     3  VAL3        0.0020
     17  N        -16.8430   -6.6630   -7.9640 N.am    4  PHE4       -0.1962
     18  CA       -15.9170   -5.5720   -7.7330 C.3     4  PHE4        0.1771
     19  C        -14.9190   -5.3720   -8.8620 C.2     4  PHE4        0.2619
     20  O        -14.6560   -6.2760   -9.6530 O.2     4  PHE4       -0.2715
     21  CB       -15.1570   -5.8570   -6.4450 C.3     4  PHE4        0.0574
     22  CG       -16.0440   -6.1400   -5.2710 C.ar    4  PHE4       -0.0200
     23  CD1      -16.3100   -5.1510   -4.3420 C.ar    4  PHE4       -0.0042
     24  CD2      -16.6130   -7.3940   -5.0970 C.ar    4  PHE4       -0.0042
     25  CE1      -17.1290   -5.4050   -3.2560 C.ar    4  PHE4       -0.0003
     26  CE2      -17.4340   -7.6600   -4.0150 C.ar    4  PHE4       -0.0003
     27  CZ       -17.6930   -6.6660   -3.0910 C.ar    4  PHE4       -0.0000
     28  N        -14.3440   -4.1800   -8.9070 N.am    5  GLU5       -0.1963
     29  CA       -13.3610   -3.8330   -9.9200 C.3     5  GLU5        0.1733
     30  C        -12.0140   -4.5050   -9.5830 C.2     5  GLU5        0.2616
     31  O        -11.4890   -4.3630   -8.4760 O.2     5  GLU5       -0.2715
     32  CB       -13.2180   -2.3050   -9.9650 C.3     5  GLU5        0.0429
     33  CG       -13.1680   -1.6810  -11.3490 C.3     5  GLU5        0.1163
     34  CD       -11.8740   -1.9830  -12.0820 C.2     5  GLU5        0.3649
     35  OE1      -10.7880   -1.7080  -11.5200 O.co2   5  GLU5       -0.2457
     36  OE2      -11.9400   -2.4890  -13.2250 O.co2   5  GLU5       -0.2457
     37  N        -11.4750   -5.2400  -10.5480 N.am    6  VAL6       -0.1977
     38  CA       -10.2100   -5.9580  -10.4160 C.3     6  VAL6        0.1596
     39  C         -9.0400   -5.0850  -10.8970 C.2     6  VAL6        0.2287
     40  O         -9.1200   -4.4840  -11.9650 O.2     6  VAL6       -0.2864
     41  CB       -10.2560   -7.2670  -11.2740 C.3     6  VAL6        0.0276
     42  CG1       -8.9840   -8.0660  -11.1250 C.3     6  VAL6        0.0022
     43  CG2      -11.4400   -8.1000  -10.8680 C.3     6  VAL6        0.0022
     44  N         -6.2750  -12.2270   -6.2010 N.3    23  VAL23      -0.1245
     45  CA        -6.6860  -10.9650   -6.7820 C.3    23  VAL23       0.1561
     46  C         -6.5190   -9.7430   -5.8940 C.2    23  VAL23       0.2260
     47  O         -6.8190   -9.7650   -4.7060 O.2    23  VAL23      -0.2867
     48  CB        -8.1760  -11.0660   -7.2650 C.3    23  VAL23       0.0252
     49  CG1       -8.6140   -9.7960   -7.9740 C.3    23  VAL23       0.0019
     50  CG2       -8.3250  -12.2360   -8.1930 C.3    23  VAL23       0.0019
     51  N         -7.8740   -6.1820   -5.5040 N.3    25  TRP25      -0.1241
     52  CA        -9.0610   -5.4270   -5.8780 C.3    25  TRP25       0.1605
     53  C         -8.7630   -3.9410   -5.9450 C.2    25  TRP25       0.2264
     54  O         -8.1200   -3.3800   -5.0560 O.2    25  TRP25      -0.2867
     55  CB       -10.1950   -5.7150   -4.8850 C.3    25  TRP25       0.0550
     56  CG       -10.4730   -7.1800   -4.7630 C.ar   25  TRP25       0.0003
     57  CD1       -9.9520   -8.0360   -3.8400 C.ar   25  TRP25       0.0946
     58  CD2      -11.2310   -7.9880   -5.6750 C.ar   25  TRP25       0.0152
     59  NE1      -10.3290   -9.3280   -4.1230 N.ar   25  TRP25      -0.2442
     60  CE2      -11.1140   -9.3250   -5.2460 C.ar   25  TRP25       0.0810
     61  CE3      -11.9990   -7.7080   -6.8200 C.ar   25  TRP25       0.0012
     62  CZ2      -11.7350  -10.3890   -5.9230 C.ar   25  TRP25       0.0191
     63  CZ3      -12.6170   -8.7640   -7.4920 C.ar   25  TRP25       0.0001
     64  CH2      -12.4800  -10.0860   -7.0410 C.ar   25  TRP25       0.0015
     65  N         -8.6120   -1.3350   -2.9300 N.3    28  TYR28      -0.1241
     66  CA        -8.4240   -2.0560   -1.6820 C.3    28  TYR28       0.1605
     67  C         -6.9400   -2.3270   -1.4600 C.2    28  TYR28       0.2264
     68  O         -6.1620   -2.3360   -2.4120 O.2    28  TYR28      -0.2867
     69  CB        -9.1900   -3.3820   -1.7190 C.3    28  TYR28       0.0534
     70  CG       -10.7010   -3.2580   -1.6810 C.ar   28  TYR28      -0.0201
     71  CD1      -11.3990   -3.3750   -0.4810 C.ar   28  TYR28      -0.0009
     72  CD2      -11.4340   -3.0330   -2.8480 C.ar   28  TYR28      -0.0009
     73  CE1      -12.7930   -3.2730   -0.4440 C.ar   28  TYR28       0.0417
     74  CE2      -12.8230   -2.9290   -2.8220 C.ar   28  TYR28       0.0417
     75  CZ       -13.4920   -3.0500   -1.6170 C.ar   28  TYR28       0.1957
     76  OH       -14.8580   -2.9490   -1.5780 O.3    28  TYR28      -0.2866
     77  N         -6.9530   -7.3110    1.6290 N.3    32  ASP32      -0.1239
     78  CA        -8.1980   -7.7500    1.0390 C.3    32  ASP32       0.1674
     79  C         -8.0060   -8.6370   -0.1840 C.2    32  ASP32       0.2266
     80  O         -8.9570   -8.8870   -0.9240 O.2    32  ASP32      -0.2867
     81  CB        -9.0500   -6.5350    0.6770 C.3    32  ASP32       0.1410
     82  CG        -9.9770   -6.1270    1.7990 C.2    32  ASP32       0.3668
     83  OD1      -10.7830   -6.9890    2.2060 O.co2  32  ASP32      -0.2456
     84  OD2       -9.9110   -4.9670    2.2770 O.co2  32  ASP32      -0.2456
     85  N         -7.8030  -11.8790   -2.2600 N.3    34  THR34      -0.1203
     86  CA        -8.4940  -13.1500   -2.1180 C.3    34  THR34       0.1994
     87  C         -8.1710  -14.1290   -3.2420 C.2    34  THR34       0.2618
     88  O         -7.8580  -13.7230   -4.3560 O.2    34  THR34      -0.2717
     89  CB       -10.0100  -12.9300   -2.1200 C.3    34  THR34       0.1784
     90  OG1      -10.3820  -12.2190   -3.3100 O.3    34  THR34      -0.2211
     91  CG2      -10.4400  -12.1290   -0.8950 C.3    34  THR34       0.0376
     92  N         -8.2350  -15.4230   -2.9430 N.am   35  TRP35      -0.1961
     93  CA        -8.0040  -16.4420   -3.9560 C.3    35  TRP35       0.1771
     94  C         -9.3600  -16.6930   -4.5990 C.2    35  TRP35       0.2619
     95  O        -10.3490  -16.9820   -3.9190 O.2    35  TRP35      -0.2715
     96  CB        -7.4710  -17.7420   -3.3500 C.3    35  TRP35       0.0590
     97  CG        -6.0180  -17.6880   -2.9650 C.ar   35  TRP35       0.0006
     98  CD1       -5.5030  -17.4470   -1.7200 C.ar   35  TRP35       0.0946
     99  CD2       -4.8920  -17.8560   -3.8400 C.ar   35  TRP35       0.0152
    100  NE1       -4.1290  -17.4570   -1.7700 N.ar   35  TRP35      -0.2442
    101  CE2       -3.7280  -17.7030   -3.0580 C.ar   35  TRP35       0.0810
    102  CE3       -4.7550  -18.1190   -5.2150 C.ar   35  TRP35       0.0012
    103  CZ2       -2.4420  -17.8050   -3.6020 C.ar   35  TRP35       0.0191
    104  CZ3       -3.4750  -18.2200   -5.7550 C.ar   35  TRP35       0.0001
    105  CH2       -2.3380  -18.0620   -4.9500 C.ar   35  TRP35       0.0015
    106  N         -9.4020  -16.5730   -5.9170 N.am   36  GLU36      -0.1964
    107  CA       -10.6360  -16.7560   -6.6520 C.3    36  GLU36       0.1718
    108  C        -10.5470  -17.8720   -7.6770 C.2    36  GLU36       0.2458
    109  O         -9.4850  -18.1250   -8.2480 O.2    36  GLU36      -0.2730
    110  CB       -11.0040  -15.4570   -7.3760 C.3    36  GLU36       0.0428
    111  CG       -11.2410  -14.2490   -6.4780 C.3    36  GLU36       0.1163
    112  CD       -12.4600  -14.3930   -5.5720 C.2    36  GLU36       0.3649
    113  OE1      -13.4080  -15.1140   -5.9570 O.co2  36  GLU36      -0.2457
    114  OE2      -12.4730  -13.7660   -4.4840 O.co2  36  GLU36      -0.2457
    115  N        -11.6670  -18.5760   -7.9080 N.am   37  PRO37      -0.2727
    116  CA       -11.6350  -19.6500   -8.9030 C.3    37  PRO37       0.1402
    117  C        -11.4820  -19.0160  -10.2830 C.2    37  PRO37       0.2269
    118  O        -12.0070  -17.9380  -10.5490 O.2    37  PRO37      -0.2865
    119  CB       -12.9840  -20.3430   -8.7110 C.3    37  PRO37       0.0296
    120  CG       -13.8640  -19.2490   -8.1850 C.3    37  PRO37       0.0237
    121  CD       -12.9680  -18.5360   -7.2120 C.3    37  PRO37       0.0939
    122  N        -12.8310  -19.3330  -13.2410 N.3    39  ILE39      -0.1231
    123  CA       -14.0340  -18.8700  -13.9490 C.3    39  ILE39       0.1692
    124  C        -14.4570  -17.4380  -13.6280 C.2    39  ILE39       0.2592
    125  O        -15.1550  -16.7960  -14.4210 O.2    39  ILE39      -0.2718
    126  CB       -15.2600  -19.7740  -13.6650 C.3    39  ILE39       0.0266
    127  CG1      -15.6000  -19.7410  -12.1700 C.3    39  ILE39       0.0019
    128  CG2      -14.9810  -21.1920  -14.1480 C.3    39  ILE39       0.0020
    129  CD1      -16.8520  -20.5150  -11.8040 C.3    39  ILE39       0.0001
    130  N        -14.0500  -16.9460  -12.4630 N.am   40  HIS40      -0.1962
    131  CA       -14.3890  -15.5930  -12.0510 C.3    40  HIS40       0.1787
    132  C        -13.6410  -14.5030  -12.7880 C.2    40  HIS40       0.2620
    133  O        -14.0290  -13.3370  -12.7240 O.2    40  HIS40      -0.2715
    134  CB       -14.1440  -15.4240  -10.5590 C.3    40  HIS40       0.0785
    135  CG       -15.2020  -16.0430   -9.7100 C.ar   40  HIS40       0.0821
    136  ND1      -15.3100  -15.7940   -8.3590 N.ar   40  HIS40      -0.2267
    137  CD2      -16.2230  -16.8720  -10.0260 C.ar   40  HIS40       0.1154
    138  CE1      -16.3580  -16.4390   -7.8800 C.ar   40  HIS40       0.1986
    139  NE2      -16.9290  -17.1010   -8.8710 N.ar   40  HIS40      -0.2212
    140  N        -12.5790  -14.8770  -13.4950 N.am   41  LEU41      -0.1977
    141  CA       -11.7740  -13.8950  -14.2030 C.3    41  LEU41       0.1596
    142  C        -11.6780  -14.0830  -15.7110 C.2    41  LEU41       0.2287
    143  O        -11.1030  -13.2470  -16.4110 O.2    41  LEU41      -0.2864
    144  CB       -10.3620  -13.8670  -13.6040 C.3    41  LEU41       0.0297
    145  CG       -10.2730  -13.4860  -12.1230 C.3    41  LEU41       0.0022
    146  CD1      -10.5300  -14.7070  -11.2640 C.3    41  LEU41       0.0001
    147  CD2       -8.9170  -12.9140  -11.8210 C.3    41  LEU41       0.0001
    148  N        -13.4340  -13.3890  -18.1310 N.3    43  ASP43      -0.1225
    149  CA       -13.8280  -12.2630  -18.9730 C.3    43  ASP43       0.1805
    150  C        -13.0100  -11.0100  -18.6920 C.2    43  ASP43       0.2598
    151  O        -13.3450   -9.9210  -19.1610 O.2    43  ASP43      -0.2718
    152  CB       -15.3250  -11.9530  -18.8220 C.3    43  ASP43       0.1424
    153  CG       -16.2130  -12.9700  -19.5380 C.2    43  ASP43       0.3668
    154  OD1      -15.8930  -13.3420  -20.6930 O.co2  43  ASP43      -0.2456
    155  OD2      -17.2380  -13.3860  -18.9500 O.co2  43  ASP43      -0.2456
    156  N        -11.9400  -11.1730  -17.9200 N.am   44  CYS44      -0.1956
    157  CA       -11.0350  -10.0750  -17.5870 C.3    44  CYS44       0.1843
    158  C         -9.7290  -10.3580  -18.3180 C.2    44  CYS44       0.2625
    159  O         -8.6850  -10.5410  -17.6960 O.2    44  CYS44      -0.2714
    160  CB       -10.7760  -10.0290  -16.0790 C.3    44  CYS44       0.0997
    161  SG       -12.2040   -9.5930  -15.0820 S.3    44  CYS44      -0.0797
    162  N         -9.7980  -10.3920  -19.6460 N.am   45  LYS45      -0.1963
    163  CA        -8.6360  -10.6980  -20.4740 C.3    45  LYS45       0.1728
    164  C         -7.4740   -9.7150  -20.4320 C.2    45  LYS45       0.2616
    165  O         -6.3300  -10.1170  -20.6390 O.2    45  LYS45      -0.2715
    166  CB        -9.0740  -10.9300  -21.9210 C.3    45  LYS45       0.0311
    167  CG        -9.8180  -12.2510  -22.1280 C.3    45  LYS45       0.0038
    168  CD        -9.8500  -12.6380  -23.5980 C.3    45  LYS45       0.0206
    169  CE       -10.4470  -14.0220  -23.8040 C.3    45  LYS45       0.1093
    170  NZ       -10.3600  -14.4470  -25.2320 N.3    45  LYS45      -0.1314
    171  N         -7.7510   -8.4370  -20.1780 N.am   46  GLU46      -0.1963
    172  CA        -6.6780   -7.4440  -20.0900 C.3    46  GLU46       0.1733
    173  C         -5.8140   -7.8430  -18.9000 C.2    46  GLU46       0.2616
    174  O         -4.5870   -7.7960  -18.9550 O.2    46  GLU46      -0.2715
    175  CB        -7.2200   -6.0430  -19.7960 C.3    46  GLU46       0.0429
    176  CG        -8.2610   -5.4850  -20.7430 C.3    46  GLU46       0.1163
    177  CD        -8.8250   -4.1620  -20.2300 C.2    46  GLU46       0.3649
    178  OE1       -8.0320   -3.2130  -20.0370 O.co2  46  GLU46      -0.2457
    179  OE2      -10.0540   -4.0680  -20.0080 O.co2  46  GLU46      -0.2457
    180  N         -6.4920   -8.2170  -17.8170 N.am   47  VAL47      -0.1977
    181  CA        -5.8500   -8.6260  -16.5740 C.3    47  VAL47       0.1596
    182  C         -5.1100   -9.9580  -16.7030 C.2    47  VAL47       0.2287
    183  O         -3.9770  -10.1010  -16.2290 O.2    47  VAL47      -0.2864
    184  CB        -6.8970   -8.7170  -15.4430 C.3    47  VAL47       0.0276
    185  CG1       -6.2480   -9.1920  -14.1480 C.3    47  VAL47       0.0022
    186  CG2       -7.5310   -7.3580  -15.2440 C.3    47  VAL47       0.0022
@<TRIPOS>BOND
     1   170   169    1
     2   169   168    1
     3   168   167    1
     4   167   166    1
     5   166   163    1
     6   176   177    1
     7   176   175    1
     8   154   153   ar
     9   165   164    2
    10   163   164    1
    11   163   162    1
    12   164   171   am
    13   177   178   ar
    14   177   179   ar
    15   171   172    1
    16   172   175    1
    17   172   173    1
    18   162   158   am
    19   153   155   ar
    20   153   152    1
    21   151   150    2
    22   149   152    1
    23   149   150    1
    24   149   148    1
    25   174   173    2
    26   173   180   am
    27   150   156   am
    28   158   159    2
    29   158   157    1
    30   156   157    1
    31   180   181    1
    32   157   160    1
    33   182   181    1
    34   182   183    2
    35   181   184    1
    36   143   142    2
    37   160   161    1
    38   142   141    1
    39   184   186    1
    40   184   185    1
    41   125   124    2
    42   141   144    1
    43   141   140    1
    44   128   126    1
    45   123   126    1
    46   123   124    1
    47   123   122    1
    48   126   127    1
    49   124   130   am
    50   144   145    1
    51   140   132   am
    52    36    34   ar
    53   132   133    2
    54   132   131    1
    55   130   131    1
    56   127   129    1
    57   145   147    1
    58   145   146    1
    59    34    35   ar
    60    34    33    1
    61   131   134    1
    62    40    39    2
    63    33    32    1
    64    41    42    1
    65    41    43    1
    66    41    38    1
    67    39    38    1
    68   134   135    1
    69   118   117    2
    70    37    38    1
    71    37    30   am
    72    15    14    1
    73   117   116    1
    74   137   135   ar
    75   137   139   ar
    76    32    29    1
    77    29    30    1
    78    29    28    1
    79    16    14    1
    80   135   136   ar
    81    20    19    2
    82    30    31    2
    83    14    11    1
    84    28    19   am
    85   116   119    1
    86   116   115    1
    87   139   138   ar
    88    19    18    1
    89   119   120    1
    90     9     7   ar
    91   136   138   ar
    92   109   108    2
    93    50    48    1
    94   120   121    1
    95    11    12    1
    96    11    10    1
    97    49    48    1
    98    17    12   am
    99    17    18    1
   100   115   108   am
   101   115   121    1
   102    12    13    2
   103    18    21    1
   104   108   107    1
   105    63    64   ar
   106    63    61   ar
   107   110   107    1
   108   110   111    1
   109    48    45    1
   110     7     6    1
   111     7     8   ar
   112    64    62   ar
   113     6     5    1
   114    61    58   ar
   115    45    44    1
   116    45    46    1
   117   107   106    1
   118   111   112    1
   119    21    22    1
   120   113   112   ar
   121    53    52    1
   122    53    54    2
   123    62    60   ar
   124   106    94   am
   125    46    47    2
   126    52    51    1
   127    52    55    1
   128   104   102   ar
   129   104   105   ar
   130    58    60   ar
   131    58    56   ar
   132     1     2    1
   133   112   114   ar
   134     4     3    2
   135     5     2    1
   136    22    24   ar
   137    22    23   ar
   138     3     2    1
   139    60    59   ar
   140   102    99   ar
   141    24    26   ar
   142   105   103   ar
   143    55    56    1
   144    56    57   ar
   145    94    93    1
   146    94    95    2
   147    88    87    2
   148    23    25   ar
   149    59    57   ar
   150    26    27   ar
   151    93    96    1
   152    93    92    1
   153    99   101   ar
   154    99    97   ar
   155   103   101   ar
   156    96    97    1
   157    90    89    1
   158    25    27   ar
   159    87    92   am
   160    87    86    1
   161   101   100   ar
   162    97    98   ar
   163    65    66    1
   164    72    74   ar
   165    72    70   ar
   166    74    75   ar
   167    68    67    2
   168    85    86    1
   169    89    86    1
   170    89    91    1
   171   100    98   ar
   172    69    66    1
   173    69    70    1
   174    66    67    1
   175    70    71   ar
   176    75    76    1
   177    75    73   ar
   178    80    79    2
   179    71    73   ar
   180    79    78    1
   181    81    78    1
   182    81    82    1
   183    78    77    1
   184    82    83   ar
   185    82    84   ar
