@<TRIPOS>MOLECULE
tmp/3svvA00.pdb
 171 159 0 0 0
SMALL
GASTEIGER

@<TRIPOS>ATOM
      1  N        -15.6970    2.4560    7.7860 N.3    17  LEU17      -0.1231
      2  CA       -15.6390    2.9930    6.4130 C.3    17  LEU17       0.1693
      3  C        -14.4090    2.5320    5.6060 C.2    17  LEU17       0.2592
      4  O        -14.4830    2.3910    4.3850 O.2    17  LEU17      -0.2718
      5  CB       -15.7140    4.5270    6.4200 C.3    17  LEU17       0.0284
      6  CG       -16.9020    5.1910    7.1280 C.3    17  LEU17       0.0019
      7  CD1      -16.6860    6.7050    7.2590 C.3    17  LEU17       0.0001
      8  CD2      -18.2380    4.8650    6.4420 C.3    17  LEU17       0.0001
      9  N        -13.2910    2.2980    6.2890 N.am   18  GLY18      -0.1957
     10  CA       -12.0430    1.9200    5.6420 C.3    18  GLY18       0.1869
     11  C        -11.1180    1.1500    6.5790 C.2    18  GLY18       0.2309
     12  O        -11.2720    1.2170    7.8050 O.2    18  GLY18      -0.2863
     13  N        -10.9420    3.5780    9.7950 N.3    24  VAL24      -0.1245
     14  CA       -11.7410    4.7830    9.7940 C.3    24  VAL24       0.1561
     15  C        -13.1760    4.3730    9.9690 C.2    24  VAL24       0.2260
     16  O        -13.6240    3.4540    9.3000 O.2    24  VAL24      -0.2867
     17  CB       -11.6370    5.5380    8.4600 C.3    24  VAL24       0.0252
     18  CG1      -12.6940    6.6300    8.4000 C.3    24  VAL24       0.0019
     19  CG2      -10.2290    6.1000    8.2700 C.3    24  VAL24       0.0019
     20  N        -16.2550   11.4080   11.9100 N.3    36  ALA36      -0.1231
     21  CA       -15.3610   10.4020   11.3480 C.3    36  ALA36       0.1694
     22  C        -14.2530   10.1470   12.3580 C.2    36  ALA36       0.2592
     23  O        -13.7410   11.0880   12.9640 O.2    36  ALA36      -0.2718
     24  CB       -14.7670   10.8840   10.0300 C.3    36  ALA36       0.0304
     25  N        -13.8910    8.8800   12.5450 N.am   37  ILE37      -0.1966
     26  CA       -12.8990    8.4930   13.5500 C.3    37  ILE37       0.1727
     27  C        -11.7860    7.6410   12.9530 C.2    37  ILE37       0.2616
     28  O        -12.0560    6.5980   12.3700 O.2    37  ILE37      -0.2715
     29  CB       -13.5560    7.6940   14.6730 C.3    37  ILE37       0.0290
     30  CG1      -14.7380    8.4550   15.2590 C.3    37  ILE37       0.0022
     31  CG2      -12.5360    7.3340   15.7610 C.3    37  ILE37       0.0023
     32  CD1      -15.6730    7.5610   16.0680 C.3    37  ILE37       0.0001
     33  N        -10.5390    8.0800   13.0840 N.am   38  LYS38      -0.1977
     34  CA        -9.3950    7.2730   12.6440 C.3    38  LYS38       0.1596
     35  C         -8.7010    6.6050   13.8440 C.2    38  LYS38       0.2287
     36  O         -8.3170    7.2760   14.8050 O.2    38  LYS38      -0.2864
     37  CB        -8.4030    8.1180   11.8390 C.3    38  LYS38       0.0298
     38  CG        -7.2740    7.3220   11.1470 C.3    38  LYS38       0.0038
     39  CD        -6.3350    8.2330   10.2810 C.3    38  LYS38       0.0206
     40  CE        -7.0930    8.8350    9.0910 C.3    38  LYS38       0.1093
     41  NZ        -6.3350    9.8500    8.2460 N.3    38  LYS38      -0.1314
     42  N         -0.5230   13.9120   12.2140 N.3    53  GLU53      -0.1245
     43  CA        -1.6710   14.3430   11.4320 C.3    53  GLU53       0.1567
     44  C         -2.5740   15.2590   12.2630 C.2    53  GLU53       0.2260
     45  O         -3.1840   16.1960   11.7490 O.2    53  GLU53      -0.2867
     46  CB        -2.4460   13.1100   10.9630 C.3    53  GLU53       0.0388
     47  CG        -3.8360   13.3780   10.4270 C.3    53  GLU53       0.1160
     48  CD        -4.5910   12.0900   10.1380 C.2    53  GLU53       0.3649
     49  OE1       -4.1170   11.2980    9.2950 O.co2  53  GLU53      -0.2457
     50  OE2       -5.6500   11.8630   10.7630 O.co2  53  GLU53      -0.2457
     51  N         -3.5440   19.5420   12.1460 N.3    57  MET57      -0.1245
     52  CA        -4.9390   19.9870   12.1050 C.3    57  MET57       0.1570
     53  C         -5.3720   20.8250   13.3160 C.2    57  MET57       0.2261
     54  O         -6.4590   21.4050   13.3160 O.2    57  MET57      -0.2867
     55  CB        -5.8920   18.8040   11.8990 C.3    57  MET57       0.0387
     56  CG        -5.8410   18.1850   10.5050 C.3    57  MET57       0.0595
     57  SD        -5.8120   19.4100    9.1480 S.3    57  MET57      -0.1393
     58  CE        -4.1660   19.0290    8.6080 C.3    57  MET57       0.0692
     59  N        -10.9040   19.4040    5.9790 N.3    66  VAL66      -0.1245
     60  CA       -11.6310   18.5530    6.9250 C.3    66  VAL66       0.1561
     61  C        -11.1980   18.8770    8.3780 C.2    66  VAL66       0.2260
     62  O        -10.0140   18.7640    8.7310 O.2    66  VAL66      -0.2867
     63  CB       -11.3860   17.0760    6.6150 C.3    66  VAL66       0.0252
     64  CG1      -12.0660   16.1870    7.6370 C.3    66  VAL66       0.0019
     65  CG2      -11.9160   16.7520    5.2340 C.3    66  VAL66       0.0019
     66  N        -10.4600   19.0690   12.3520 N.3    68  LEU68      -0.1245
     67  CA       -10.2190   18.3150   13.5820 C.3    68  LEU68       0.1561
     68  C        -11.2430   18.6940   14.6660 C.2    68  LEU68       0.2260
     69  O        -11.4940   19.8820   14.9220 O.2    68  LEU68      -0.2867
     70  CB        -8.8030   18.5490   14.1080 C.3    68  LEU68       0.0270
     71  CG        -8.4730   17.7850   15.4050 C.3    68  LEU68       0.0019
     72  CD1       -8.4220   16.2650   15.1780 C.3    68  LEU68       0.0001
     73  CD2       -7.1560   18.2870   16.0290 C.3    68  LEU68       0.0001
     74  N         -8.4940    9.6230   16.5380 N.3    79  ILE79      -0.1245
     75  CA        -8.5480   10.9940   16.0260 C.3    79  ILE79       0.1561
     76  C         -9.9480   11.1860   15.4920 C.2    79  ILE79       0.2260
     77  O        -10.4560   10.3550   14.7370 O.2    79  ILE79      -0.2867
     78  CB        -7.5120   11.2550   14.9090 C.3    79  ILE79       0.0252
     79  CG1       -6.0890   11.0530   15.4320 C.3    79  ILE79       0.0019
     80  CG2       -7.6600   12.6770   14.3260 C.3    79  ILE79       0.0019
     81  CD1       -5.0040   11.3690   14.4050 C.3    79  ILE79       0.0001
     82  N        -12.6420   13.5970   13.5170 N.3    81  CYS81      -0.1221
     83  CA       -12.7540   14.6910   12.5540 C.3    81  CYS81       0.1808
     84  C        -14.1680   14.8440   12.0070 C.2    81  CYS81       0.2601
     85  O        -15.0200   13.9860   12.1950 O.2    81  CYS81      -0.2717
     86  CB       -11.7560   14.4860   11.4260 C.3    81  CYS81       0.0970
     87  SG        -9.9910   14.5150   11.9930 S.3    81  CYS81      -0.0800
     88  N        -14.4060   15.9700   11.3520 N.am   82  GLU82      -0.1965
     89  CA       -15.6510   16.2660   10.6560 C.3    82  GLU82       0.1733
     90  C        -16.0190   15.0940    9.7610 C.2    82  GLU82       0.2616
     91  O        -15.1600   14.5780    9.0400 O.2    82  GLU82      -0.2715
     92  CB       -15.4130   17.5190    9.8050 C.3    82  GLU82       0.0429
     93  CG       -16.5310   17.9600    8.8810 C.3    82  GLU82       0.1163
     94  CD       -16.1440   19.2070    8.0930 C.2    82  GLU82       0.3649
     95  OE1      -15.0160   19.7420    8.2660 O.co2  82  GLU82      -0.2457
     96  OE2      -16.9780   19.6580    7.2930 O.co2  82  GLU82      -0.2457
     97  N        -17.2840   14.6610    9.8300 N.am   83  TYR83      -0.1960
     98  CA       -17.8120   13.6120    8.9610 C.3    83  TYR83       0.1771
     99  C        -18.1750   14.1810    7.5650 C.2    83  TYR83       0.2619
    100  O        -18.9510   15.1370    7.4330 O.2    83  TYR83      -0.2715
    101  CB       -19.0260   12.9130    9.6160 C.3    83  TYR83       0.0574
    102  CG       -19.6640   11.8330    8.7500 C.ar   83  TYR83      -0.0198
    103  CD1      -18.9700   10.6670    8.4390 C.ar   83  TYR83      -0.0009
    104  CD2      -20.9600   11.9940    8.2270 C.ar   83  TYR83      -0.0009
    105  CE1      -19.5380    9.6860    7.6330 C.ar   83  TYR83       0.0417
    106  CE2      -21.5440   11.0130    7.4350 C.ar   83  TYR83       0.0417
    107  CZ       -20.8180    9.8610    7.1370 C.ar   83  TYR83       0.1957
    108  OH       -21.3670    8.8720    6.3410 O.3    83  TYR83      -0.2866
    109  N        -17.6010   13.5840    6.5310 N.am   84  MET84      -0.1977
    110  CA       -17.8740   13.9900    5.1550 C.3    84  MET84       0.1605
    111  C        -18.7330   12.9150    4.4850 C.2    84  MET84       0.2287
    112  O        -18.2480   11.8150    4.1250 O.2    84  MET84      -0.2864
    113  CB       -16.5600   14.1800    4.4200 C.3    84  MET84       0.0413
    114  CG       -15.6680   15.3060    5.0280 C.3    84  MET84       0.0598
    115  SD       -16.4830   16.9090    5.0240 S.3    84  MET84      -0.1393
    116  CE       -16.6090   17.1890    3.2370 C.3    84  MET84       0.0692
    117  N        -17.9860   10.5760    1.0840 N.3    87  GLY87      -0.1210
    118  CA       -16.8180    9.7250    0.8900 C.3    87  GLY87       0.1956
    119  C        -15.7390   10.4010    0.0420 C.2    87  GLY87       0.2612
    120  O        -15.7470   11.6090   -0.1140 O.2    87  GLY87      -0.2717
    121  N        -14.8090    9.6260   -0.5040 N.am   88  SER88      -0.1952
    122  CA       -13.6600   10.2020   -1.1740 C.3    88  SER88       0.1924
    123  C        -14.0930   10.7600   -2.5230 C.2    88  SER88       0.2314
    124  O        -15.0030   10.2360   -3.1550 O.2    88  SER88      -0.2863
    125  CB       -12.5590    9.1620   -1.3860 C.3    88  SER88       0.2116
    126  OG       -12.8810    8.3200   -2.4790 O.3    88  SER88      -0.2180
    127  N        -13.6870    7.9840   -5.1600 N.3    91  ASP91      -0.1239
    128  CA       -14.8280    7.0370   -5.2770 C.3    91  ASP91       0.1674
    129  C        -16.0600    7.7340   -5.8560 C.2    91  ASP91       0.2266
    130  O        -16.8750    7.1290   -6.5490 O.2    91  ASP91      -0.2867
    131  CB       -15.1990    6.4390   -3.9240 C.3    91  ASP91       0.1410
    132  CG       -14.0820    5.5870   -3.3290 C.2    91  ASP91       0.3668
    133  OD1      -13.1740    5.1590   -4.0750 O.co2  91  ASP91      -0.2456
    134  OD2      -14.1070    5.3460   -2.1040 O.co2  91  ASP91      -0.2456
    135  N         -8.0300   10.9170   -3.9500 N.3   133  ALA133     -0.1245
    136  CA        -8.2960    9.9840   -2.8520 C.3   133  ALA133      0.1562
    137  C         -8.1750   10.6730   -1.4980 C.2   133  ALA133      0.2260
    138  O         -8.6110   10.1320   -0.4740 O.2   133  ALA133     -0.2867
    139  CB        -7.3230    8.7640   -2.9060 C.3   133  ALA133      0.0290
    140  N        -12.3500   14.8730    0.2900 N.3   136  LEU136     -0.1245
    141  CA       -13.6130   14.3150    0.7420 C.3   136  LEU136      0.1561
    142  C        -14.7530   15.2110    0.3210 C.2   136  LEU136      0.2260
    143  O        -14.6360   16.4330    0.3180 O.2   136  LEU136     -0.2867
    144  CB       -13.6220   14.1490    2.2760 C.3   136  LEU136      0.0270
    145  CG       -12.7750   12.9370    2.6690 C.3   136  LEU136      0.0019
    146  CD1      -12.0300   13.1780    3.9460 C.3   136  LEU136      0.0001
    147  CD2      -13.6660   11.6870    2.7680 C.3   136  LEU136      0.0001
    148  N         -8.0660   16.5840    2.8680 N.3   146  ALA146     -0.1231
    149  CA        -7.8060   15.7880    4.0730 C.3   146  ALA146      0.1694
    150  C         -6.4420   15.1130    4.0050 C.2   146  ALA146      0.2592
    151  O         -5.7240   15.2310    2.9970 O.2   146  ALA146     -0.2718
    152  CB        -8.8960   14.7110    4.2370 C.3   146  ALA146      0.0304
    153  N         -6.1160   14.3670    5.0620 N.am  147  ASP147     -0.1960
    154  CA        -4.9830   13.4370    5.0460 C.3   147  ASP147      0.1840
    155  C         -3.6620   14.0970    4.6930 C.2   147  ASP147      0.2622
    156  O         -2.9360   13.6270    3.8060 O.2   147  ASP147     -0.2715
    157  CB        -5.2250   12.2760    4.0660 C.3   147  ASP147      0.1450
    158  CG        -6.3630   11.3580    4.4990 C.2   147  ASP147      0.3671
    159  OD1       -6.3810   10.9550    5.6910 O.co2 147  ASP147     -0.2456
    160  OD2       -7.2330   11.0420    3.6380 O.co2 147  ASP147     -0.2456
    161  N         -3.3430   15.1960    5.3610 N.am  148  PHE148     -0.1974
    162  CA        -2.0180   15.7620    5.1830 C.3   148  PHE148      0.1639
    163  C         -0.9300   14.6800    5.3470 C.2   148  PHE148      0.2290
    164  O         -0.9050   13.9410    6.3510 O.2   148  PHE148     -0.2864
    165  CB        -1.8410   16.9440    6.1210 C.3   148  PHE148      0.0560
    166  CG        -2.6200   18.1510    5.6840 C.ar  148  PHE148     -0.0200
    167  CD1       -1.9770   19.2470    5.1420 C.ar  148  PHE148     -0.0042
    168  CD2       -4.0060   18.1560    5.7490 C.ar  148  PHE148     -0.0042
    169  CE1       -2.6980   20.3490    4.7110 C.ar  148  PHE148     -0.0003
    170  CE2       -4.7350   19.2520    5.3170 C.ar  148  PHE148     -0.0003
    171  CZ        -4.0750   20.3480    4.8020 C.ar  148  PHE148     -0.0000
@<TRIPOS>BOND
     1   130   129    2
     2   129   128    1
     3   128   127    1
     4   128   131    1
     5   133   132   ar
     6   135   136    1
     7   131   132    1
     8   132   134   ar
     9   124   123    2
    10   139   136    1
    11   136   137    1
    12   123   122    1
    13   126   125    1
    14   137   138    2
    15   125   122    1
    16   122   121    1
    17   121   119   am
    18   120   119    2
    19   119   118    1
    20   140   141    1
    21   143   142    2
    22   142   141    1
    23   141   144    1
    24   118   117    1
    25   144   145    1
    26   145   147    1
    27   145   146    1
    28   148   149    1
    29   151   150    2
    30   116   115    1
    31   160   158   ar
    32   156   155    2
    33   150   149    1
    34   150   153   am
    35   157   158    1
    36   157   154    1
    37   149   152    1
    38   112   111    2
    39     4     3    2
    40   113   114    1
    41   113   110    1
    42   111   110    1
    43   158   159   ar
    44   155   154    1
    45   155   161   am
    46   169   171   ar
    47   169   167   ar
    48   171   170   ar
    49   115   114    1
    50   154   153    1
    51   167   166   ar
    52   110   109    1
    53   162   163    1
    54   162   161    1
    55   162   165    1
    56    65    63    1
    57   170   168   ar
    58   163   164    2
    59     3     9   am
    60     3     2    1
    61    10     9    1
    62    10    11    1
    63   166   168   ar
    64   166   165    1
    65    59    60    1
    66   108   107    1
    67     2     5    1
    68     2     1    1
    69     5     6    1
    70     8     6    1
    71   109    99   am
    72    11    12    2
    73    63    60    1
    74    63    64    1
    75    60    61    1
    76     6     7    1
    77   107   106   ar
    78   107   105   ar
    79    96    94   ar
    80   100    99    2
    81   106   104   ar
    82    99    98    1
    83   105   103   ar
    84    94    95   ar
    85    94    93    1
    86   104   102   ar
    87    41    40    1
    88    19    17    1
    89    61    62    2
    90    18    17    1
    91   103   102   ar
    92    17    14    1
    93    58    57    1
    94   102   101    1
    95    93    92    1
    96    98   101    1
    97    98    97    1
    98    91    90    2
    99    40    39    1
   100    57    56    1
   101    49    48   ar
   102    16    15    2
   103    90    97   am
   104    90    89    1
   105    14    13    1
   106    14    15    1
   107    92    89    1
   108    24    21    1
   109    48    47    1
   110    48    50   ar
   111    39    38    1
   112    47    46    1
   113    56    55    1
   114    89    88    1
   115    46    43    1
   116    38    37    1
   117    21    20    1
   118    21    22    1
   119    88    84   am
   120    86    87    1
   121    86    83    1
   122    43    42    1
   123    43    44    1
   124    45    44    2
   125    37    34    1
   126    55    52    1
   127    84    85    2
   128    84    83    1
   129    52    51    1
   130    52    53    1
   131    66    67    1
   132    22    25   am
   133    22    23    2
   134    28    27    2
   135    25    26    1
   136    83    82    1
   137    34    33    1
   138    34    35    1
   139    27    33   am
   140    27    26    1
   141    54    53    2
   142    26    29    1
   143    67    70    1
   144    67    68    1
   145    35    36    2
   146    70    71    1
   147    80    78    1
   148    81    79    1
   149    68    69    2
   150    29    30    1
   151    29    31    1
   152    77    76    2
   153    78    79    1
   154    78    75    1
   155    72    71    1
   156    30    32    1
   157    71    73    1
   158    76    75    1
   159    75    74    1
