@<TRIPOS>MOLECULE
tmp/3svwA02.pdb
 83 77 0 0 0
SMALL
GASTEIGER

@<TRIPOS>ATOM
      1  N         19.8200  -48.0500   79.3860 N.3    79  LYS79      -0.1231
      2  CA        20.4660  -48.8080   80.4580 C.3    79  LYS79       0.1693
      3  C         21.9640  -48.9770   80.1550 C.2    79  LYS79       0.2591
      4  O         22.8290  -48.8090   81.0220 O.2    79  LYS79      -0.2718
      5  CB        19.8050  -50.1730   80.6500 C.3    79  LYS79       0.0285
      6  CG        20.5160  -51.0880   81.6490 C.3    79  LYS79       0.0035
      7  CD        19.6150  -52.3630   81.7890 C.3    79  LYS79       0.0206
      8  CE        20.3930  -53.4370   82.4710 C.3    79  LYS79       0.1093
      9  NZ        19.5680  -54.6070   82.9500 N.3    79  LYS79      -0.1314
     10  N         22.2810  -49.3410   78.9110 N.am   80  GLN80      -0.1979
     11  CA        23.6990  -49.5280   78.5990 C.3    80  GLN80       0.1601
     12  C         24.4770  -48.2320   78.7080 C.2    80  GLN80       0.2287
     13  O         25.5960  -48.2080   79.1770 O.2    80  GLN80      -0.2864
     14  CB        23.8690  -50.1110   77.1600 C.3    80  GLN80       0.0394
     15  CG        23.2910  -51.5430   77.0610 C.3    80  GLN80       0.0908
     16  CD        23.7650  -52.4690   78.2070 C.2    80  GLN80       0.2608
     17  OE1       24.9630  -52.6900   78.3640 O.2    80  GLN80      -0.2717
     18  NE2       22.8250  -53.0060   79.0060 N.am   80  GLN80      -0.0878
     19  N         25.4630  -47.4270   82.3320 N.3    83  GLY83      -0.1210
     20  CA        26.6390  -48.1940   82.7930 C.3    83  GLY83       0.1956
     21  C         27.9190  -47.6090   82.2230 C.2    83  GLY83       0.2611
     22  O         28.9130  -47.4070   82.9260 O.2    83  GLY83      -0.2717
     23  N         27.8760  -47.2890   80.9290 N.am   84  GLN84      -0.1979
     24  CA        29.0610  -46.7110   80.2870 C.3    84  GLN84       0.1601
     25  C         29.4650  -45.3890   80.9230 C.2    84  GLN84       0.2287
     26  O         30.6630  -45.1500   81.1470 O.2    84  GLN84      -0.2864
     27  CB        28.8250  -46.5290   78.7840 C.3    84  GLN84       0.0394
     28  CG        28.7890  -47.9150   78.0600 C.3    84  GLN84       0.0908
     29  CD        28.8020  -47.7830   76.5430 C.2    84  GLN84       0.2608
     30  OE1       29.3860  -46.8420   76.0110 O.2    84  GLN84      -0.2717
     31  NE2       28.1570  -48.7430   75.8370 N.am   84  GLN84      -0.0878
     32  N         31.2370  -45.4420   84.2400 N.3    87  LEU87      -0.1245
     33  CA        32.6210  -45.9420   84.2350 C.3    87  LEU87       0.1561
     34  C         33.5140  -45.0550   83.3410 C.2    87  LEU87       0.2260
     35  O         34.7350  -45.1220   83.4650 O.2    87  LEU87      -0.2867
     36  CB        32.6860  -47.4150   83.7180 C.3    87  LEU87       0.0270
     37  CG        31.9920  -48.4250   84.6540 C.3    87  LEU87       0.0019
     38  CD1       32.1570  -49.7950   83.9990 C.3    87  LEU87       0.0001
     39  CD2       32.6460  -48.4240   86.0310 C.3    87  LEU87       0.0001
     40  N         32.9370  -51.7010   88.4750 N.3    97  ARG97      -0.1245
     41  CA        31.6520  -52.0390   89.0830 C.3    97  ARG97       0.1563
     42  C         31.6670  -52.2830   90.5490 C.2    97  ARG97       0.2260
     43  O         30.7270  -51.8500   91.2390 O.2    97  ARG97      -0.2867
     44  CB        31.0940  -53.2490   88.3590 C.3    97  ARG97       0.0307
     45  CG        30.7600  -52.9320   86.9680 C.3    97  ARG97       0.0489
     46  CD        30.4730  -54.2810   86.2460 C.3    97  ARG97       0.2205
     47  NE        29.9880  -54.0350   84.8960 N.pl3  97  ARG97      -0.0865
     48  CZ        30.7650  -53.7370   83.8530 C.cat  97  ARG97       0.5346
     49  NH1       32.1110  -53.6450   83.9700 N.pl3  97  ARG97       0.1354
     50  NH2       30.1830  -53.5740   82.6640 N.pl3  97  ARG97       0.1354
     51  N         28.2130  -57.0640   89.8800 N.3   127  GLU127     -0.1245
     52  CA        27.6340  -57.0640   88.5340 C.3   127  GLU127      0.1567
     53  C         26.1360  -56.7860   88.6140 C.2   127  GLU127      0.2260
     54  O         25.6100  -56.0140   87.8100 O.2   127  GLU127     -0.2867
     55  CB        27.8430  -58.4420   87.8170 C.3   127  GLU127      0.0388
     56  CG        29.2890  -58.8250   87.6950 C.3   127  GLU127      0.1160
     57  CD        30.0410  -57.8670   86.7730 C.2   127  GLU127      0.3649
     58  OE1       29.4090  -57.4060   85.8020 O.co2 127  GLU127     -0.2457
     59  OE2       31.2160  -57.5880   87.0540 O.co2 127  GLU127     -0.2457
     60  N         25.4810  -53.0920   89.8590 N.3   130  PHE130     -0.1227
     61  CA        25.7570  -52.1030   88.8360 C.3   130  PHE130      0.1736
     62  C         24.6750  -52.1300   87.7330 C.2   130  PHE130      0.2595
     63  O         24.1690  -51.0760   87.2840 O.2   130  PHE130     -0.2718
     64  CB        27.1050  -52.4360   88.2540 C.3   130  PHE130      0.0547
     65  CG        27.5920  -51.4460   87.1820 C.ar  130  PHE130     -0.0202
     66  CD1       28.2930  -50.2840   87.5730 C.ar  130  PHE130     -0.0042
     67  CD2       27.3890  -51.7160   85.8380 C.ar  130  PHE130     -0.0042
     68  CE1       28.7740  -49.3870   86.5660 C.ar  130  PHE130     -0.0003
     69  CE2       27.8560  -50.8570   84.8520 C.ar  130  PHE130     -0.0003
     70  CZ        28.5550  -49.6910   85.2270 C.ar  130  PHE130     -0.0000
     71  N         24.3210  -53.3450   87.3230 N.am  131  ASP131     -0.1974
     72  CA        23.2650  -53.5260   86.3650 C.3   131  ASP131      0.1709
     73  C         21.9200  -52.9740   86.8630 C.2   131  ASP131      0.2293
     74  O         21.2240  -52.3280   86.0950 O.2   131  ASP131     -0.2864
     75  CB        23.1450  -55.0110   85.9600 C.3   131  ASP131      0.1436
     76  CG        22.3780  -55.1770   84.6500 C.2   131  ASP131      0.3671
     77  OD1       22.9590  -54.9360   83.5930 O.co2 131  ASP131     -0.2456
     78  OD2       21.1880  -55.5430   84.7080 O.co2 131  ASP131     -0.2456
     79  N         21.9930  -49.0950   86.7550 N.3   134  ALA134     -0.1245
     80  CA        21.8480  -48.6550   85.3900 C.3   134  ALA134      0.1562
     81  C         20.3710  -48.8010   85.0000 C.2   134  ALA134      0.2260
     82  O         19.8160  -47.9250   84.3500 O.2   134  ALA134     -0.2867
     83  CB        22.6630  -49.5610   84.4860 C.3   134  ALA134      0.0290
@<TRIPOS>BOND
     1    31    29   am
     2    30    29    2
     3    29    28    1
     4    15    14    1
     5    15    16    1
     6    14    11    1
     7    28    27    1
     8    16    17    2
     9    16    18   am
    10    11    12    1
    11    11    10    1
    12    12    13    2
    13    27    24    1
    14    10     3   am
    15     1     2    1
    16     3     2    1
    17     3     4    2
    18    24    25    1
    19    24    23    1
    20     2     5    1
    21     5     6    1
    22    25    26    2
    23    23    21   am
    24     6     7    1
    25     7     8    1
    26    21    20    1
    27    21    22    2
    28    19    20    1
    29     8     9    1
    30    50    48    1
    31    34    35    2
    32    34    33    1
    33    77    76   ar
    34    36    33    1
    35    36    37    1
    36    48    49    1
    37    48    47    2
    38    38    37    1
    39    33    32    1
    40    82    81    2
    41    83    80    1
    42    76    78   ar
    43    76    75    1
    44    37    39    1
    45    69    70   ar
    46    69    67   ar
    47    47    46    1
    48    81    80    1
    49    70    68   ar
    50    80    79    1
    51    58    57   ar
    52    67    65   ar
    53    75    72    1
    54    74    73    2
    55    46    45    1
    56    72    73    1
    57    72    71    1
    58    68    66   ar
    59    57    59   ar
    60    57    56    1
    61    45    44    1
    62    65    66   ar
    63    65    64    1
    64    63    62    2
    65    71    62   am
    66    56    55    1
    67    62    61    1
    68    54    53    2
    69    55    52    1
    70    64    61    1
    71    44    41    1
    72    40    41    1
    73    52    53    1
    74    52    51    1
    75    61    60    1
    76    41    42    1
    77    42    43    2
