@<TRIPOS>MOLECULE
tmp/3svwF00.pdb
 155 151 0 0 0
SMALL
GASTEIGER

@<TRIPOS>ATOM
      1  N         13.0160  -49.1580   18.7850 N.3    73  PRO73      -0.2102
      2  CA        13.1860  -49.9560   19.9860 C.3    73  PRO73       0.1504
      3  C         13.5760  -51.4270   19.6890 C.2    73  PRO73       0.2576
      4  O         13.0520  -52.0100   18.6990 O.2    73  PRO73      -0.2718
      5  CB        11.7350  -49.8690   20.6260 C.3    73  PRO73       0.0282
      6  CG        10.8250  -49.9680   19.3390 C.3    73  PRO73       0.0208
      7  CD        11.6320  -49.0490   18.3140 C.3    73  PRO73       0.0893
      8  N         14.3220  -52.0550   20.5940 N.am   74  VAL74      -0.1966
      9  CA        14.5010  -53.5150   20.5630 C.3    74  VAL74       0.1727
     10  C         14.3810  -54.0340   21.9930 C.2    74  VAL74       0.2616
     11  O         14.6730  -53.2860   22.9650 O.2    74  VAL74      -0.2715
     12  CB        15.9230  -53.9350   19.9870 C.3    74  VAL74       0.0290
     13  CG1       15.9190  -53.6700   18.4160 C.3    74  VAL74       0.0023
     14  CG2       17.0470  -53.2280   20.6910 C.3    74  VAL74       0.0023
     15  N         14.0660  -55.3170   22.1190 N.am   75  VAL75      -0.1977
     16  CA        13.8870  -55.9520   23.4480 C.3    75  VAL75       0.1596
     17  C         14.5660  -57.2970   23.3600 C.2    75  VAL75       0.2287
     18  O         14.2800  -58.0490   22.4490 O.2    75  VAL75      -0.2864
     19  CB        12.3700  -56.0900   23.7570 C.3    75  VAL75       0.0276
     20  CG1       12.0770  -57.0810   24.9280 C.3    75  VAL75       0.0022
     21  CG2       11.7150  -54.6370   23.9380 C.3    75  VAL75       0.0022
     22  N         15.1300  -61.0440   23.7390 N.3    77  ASP77      -0.1239
     23  CA        14.1310  -62.1120   23.9840 C.3    77  ASP77       0.1674
     24  C         14.2350  -62.7320   25.3520 C.2    77  ASP77       0.2266
     25  O         13.2200  -63.0940   25.9690 O.2    77  ASP77      -0.2867
     26  CB        14.1850  -63.1750   22.8880 C.3    77  ASP77       0.1410
     27  CG        13.3820  -62.7650   21.6800 C.2    77  ASP77       0.3668
     28  OD1       12.3810  -62.0090   21.8580 O.co2  77  ASP77      -0.2456
     29  OD2       13.7330  -63.2210   20.5630 O.co2  77  ASP77      -0.2456
     30  N          9.8370  -52.0660   13.2080 N.3   129  PRO129     -0.2102
     31  CA        10.6110  -52.8160   14.1780 C.3   129  PRO129      0.1504
     32  C         11.8650  -53.4410   13.5490 C.2   129  PRO129      0.2575
     33  O         12.8930  -53.3940   14.2030 O.2   129  PRO129     -0.2718
     34  CB         9.6150  -53.9450   14.6400 C.3   129  PRO129      0.0282
     35  CG         8.2910  -53.2660   14.6210 C.3   129  PRO129      0.0208
     36  CD         8.3870  -52.3850   13.3380 C.3   129  PRO129      0.0893
     37  N         11.7870  -54.0220   12.3310 N.am  130  TRP130     -0.1977
     38  CA        12.9670  -54.7700   11.8320 C.3   130  TRP130      0.1640
     39  C         13.8950  -53.8690   10.9970 C.2   130  TRP130      0.2290
     40  O         14.7200  -54.3780   10.2400 O.2   130  TRP130     -0.2864
     41  CB        12.5240  -56.0950   11.0520 C.3   130  TRP130      0.0576
     42  CG        11.8660  -57.0140   12.0960 C.ar  130  TRP130      0.0006
     43  CD1       10.5170  -57.1700   12.3570 C.ar  130  TRP130      0.0946
     44  CD2       12.5670  -57.7280   13.1280 C.ar  130  TRP130      0.0152
     45  NE1       10.3600  -57.9900   13.4600 N.ar  130  TRP130     -0.2442
     46  CE2       11.5910  -58.3220   13.9640 C.ar  130  TRP130      0.0810
     47  CE3       13.9480  -57.9500   13.4030 C.ar  130  TRP130      0.0012
     48  CZ2       11.9270  -59.0970   15.0780 C.ar  130  TRP130      0.0191
     49  CZ3       14.2980  -58.7550   14.5070 C.ar  130  TRP130      0.0001
     50  CH2       13.2730  -59.3020   15.3430 C.ar  130  TRP130      0.0015
     51  N          6.2860  -60.0530   10.5740 N.3   222  ALA222     -0.1231
     52  CA         6.6300  -60.5770   11.8750 C.3   222  ALA222      0.1694
     53  C          7.8560  -61.4810   11.6620 C.2   222  ALA222      0.2592
     54  O          7.9420  -62.2310   10.6440 O.2   222  ALA222     -0.2718
     55  CB         5.4330  -61.4070   12.5130 C.3   222  ALA222      0.0304
     56  N          8.8050  -61.4060   12.5870 N.am  223  TYR223     -0.1962
     57  CA         9.9710  -62.3160   12.5300 C.3   223  TYR223      0.1771
     58  C         10.1920  -62.8950   13.9290 C.2   223  TYR223      0.2620
     59  O         10.3050  -62.1260   14.8790 O.2   223  TYR223     -0.2715
     60  CB        11.2200  -61.5130   12.0720 C.3   223  TYR223      0.0574
     61  CG        12.4840  -62.3310   12.0950 C.ar  223  TYR223     -0.0198
     62  CD1       12.5450  -63.5450   11.4400 C.ar  223  TYR223     -0.0009
     63  CD2       13.6240  -61.8720   12.7430 C.ar  223  TYR223     -0.0009
     64  CE1       13.7120  -64.3480   11.4990 C.ar  223  TYR223      0.0417
     65  CE2       14.8090  -62.6830   12.7900 C.ar  223  TYR223      0.0417
     66  CZ        14.8100  -63.8590   12.1490 C.ar  223  TYR223      0.1957
     67  OH        15.9570  -64.6160   12.2220 O.3   223  TYR223     -0.2866
     68  N         10.1890  -64.2320   14.0850 N.am  224  SER224     -0.1936
     69  CA        10.5220  -64.8800   15.3420 C.3   224  SER224      0.2055
     70  C         11.9520  -65.3320   15.1780 C.2   224  SER224      0.2639
     71  O         12.2310  -66.2800   14.4350 O.2   224  SER224     -0.2714
     72  CB         9.6260  -66.0970   15.5570 C.3   224  SER224      0.2130
     73  OG        10.0800  -66.8890   16.6500 O.3   224  SER224     -0.2179
     74  N         12.8500  -64.6700   15.8660 N.am  225  GLN225     -0.2030
     75  CA        14.2870  -65.0230   15.7670 C.3   225  GLN225      0.1287
     76  C         14.5320  -66.4100   16.3360 C.3   225  GLN225      0.2036
     77  O         15.3060  -67.2540   15.7380 O.3   225  GLN225     -0.2185
     78  CB        15.1090  -63.9550   16.4650 C.3   225  GLN225      0.0340
     79  CG        16.6490  -64.1970   16.3560 C.3   225  GLN225      0.0904
     80  CD        17.3520  -62.9350   16.7890 C.2   225  GLN225      0.2608
     81  OE1       17.2680  -62.5650   17.9600 O.2   225  GLN225     -0.2717
     82  NE2       18.0020  -62.2530   15.8470 N.am  225  GLN225     -0.0878
     83  N          1.5000  -52.3520   12.4520 N.3   273  GLN273     -0.1245
     84  CA         1.8690  -53.7750   12.7130 C.3   273  GLN273      0.1566
     85  C          0.7090  -54.7100   12.4520 C.2   273  GLN273      0.2260
     86  O         -0.0110  -55.0980   13.3590 O.2   273  GLN273     -0.2867
     87  CB         2.3440  -53.9990   14.1740 C.3   273  GLN273      0.0367
     88  CG         3.6780  -53.2980   14.4470 C.3   273  GLN273      0.0905
     89  CD         4.0080  -53.4520   15.9190 C.2   273  GLN273      0.2608
     90  OE1        3.3230  -52.8920   16.7800 O.2   273  GLN273     -0.2717
     91  NE2        5.0030  -54.2240   16.2070 N.am  273  GLN273     -0.0878
     92  N          1.0340  -60.6940   13.5360 N.3   276  ALA276     -0.1231
     93  CA         1.8130  -61.2290   14.6690 C.3   276  ALA276      0.1694
     94  C          1.9980  -62.7470   14.5090 C.2   276  ALA276      0.2592
     95  O          1.2630  -63.3900   13.7420 O.2   276  ALA276     -0.2718
     96  CB         1.0960  -60.9230   16.0410 C.3   276  ALA276      0.0304
     97  N          3.0020  -63.3220   15.1620 N.am  277  TYR277     -0.1976
     98  CA         3.2400  -64.7260   15.0210 C.3   277  TYR277      0.1639
     99  C          3.5040  -65.2890   16.4040 C.2   277  TYR277      0.2290
    100  O          4.3500  -64.7540   17.1560 O.2   277  TYR277     -0.2864
    101  CB         4.4730  -64.9520   14.1100 C.3   277  TYR277      0.0560
    102  CG         4.9020  -66.4110   14.0150 C.ar  277  TYR277     -0.0198
    103  CD1        4.0980  -67.3330   13.3680 C.ar  277  TYR277     -0.0009
    104  CD2        6.1330  -66.8610   14.6030 C.ar  277  TYR277     -0.0009
    105  CE1        4.4850  -68.7110   13.2770 C.ar  277  TYR277      0.0417
    106  CE2        6.5210  -68.2200   14.5250 C.ar  277  TYR277      0.0417
    107  CZ         5.6730  -69.1410   13.9230 C.ar  277  TYR277      0.1957
    108  OH         6.0740  -70.4760   13.8130 O.3   277  TYR277     -0.2866
    109  N          0.2230  -57.6000   18.3910 N.3   327  ASN327     -0.1240
    110  CA         1.2750  -58.5080   18.7230 C.3   327  ASN327      0.1653
    111  C          0.7010  -59.4880   19.7730 C.2   327  ASN327      0.2266
    112  O         -0.4570  -59.3740   20.2060 O.2   327  ASN327     -0.2867
    113  CB         2.4720  -57.7030   19.2750 C.3   327  ASN327      0.1155
    114  CG         3.8240  -58.4060   19.0640 C.2   327  ASN327      0.2627
    115  OD1        3.8890  -59.6300   18.9820 O.2   327  ASN327     -0.2716
    116  ND2        4.9410  -57.5960   19.0260 N.am  327  ASN327     -0.0877
    117  N          4.2900  -64.5920   24.1320 N.3   330  GLN330     -0.1245
    118  CA         4.7850  -65.8360   23.5450 C.3   330  GLN330      0.1566
    119  C          4.6870  -66.9770   24.5690 C.2   330  GLN330      0.2260
    120  O          5.1990  -68.0930   24.3070 O.2   330  GLN330     -0.2867
    121  CB         6.2660  -65.6440   23.1060 C.3   330  GLN330      0.0367
    122  CG         6.3830  -64.5930   21.9780 C.3   330  GLN330      0.0905
    123  CD         5.6920  -65.1120   20.6690 C.2   330  GLN330      0.2608
    124  OE1        5.6300  -66.3420   20.4110 O.2   330  GLN330     -0.2717
    125  NE2        5.3190  -64.1860   19.8240 N.am  330  GLN330     -0.0878
    126  N          4.2220  -52.1840   19.1520 N.3   370  ILE370     -0.1231
    127  CA         4.1470  -53.0820   20.2970 C.3   370  ILE370      0.1692
    128  C          5.3280  -54.0720   20.2460 C.2   370  ILE370      0.2593
    129  O          5.5340  -54.6530   19.2230 O.2   370  ILE370     -0.2718
    130  CB         2.8260  -53.9410   20.2890 C.3   370  ILE370      0.0266
    131  CG1        1.5780  -53.1020   20.0810 C.3   370  ILE370      0.0019
    132  CG2        2.7490  -54.7890   21.4710 C.3   370  ILE370      0.0020
    133  CD1        0.3570  -53.9120   19.7010 C.3   370  ILE370      0.0001
    134  N          6.0660  -54.2580   21.3350 N.am  371  THR371     -0.1939
    135  CA         7.1540  -55.2710   21.3020 C.3   371  THR371      0.2028
    136  C          6.9970  -56.1450   22.5470 C.2   371  THR371      0.2642
    137  O          6.6630  -55.6260   23.6200 O.2   371  THR371     -0.2714
    138  CB         8.5840  -54.5660   21.2770 C.3   371  THR371      0.1808
    139  OG1        8.6020  -53.6120   20.2290 O.3   371  THR371     -0.2208
    140  CG2        9.7030  -55.5750   21.0540 C.3   371  THR371      0.0379
    141  N          7.1970  -57.4730   22.4120 N.am  372  THR372     -0.1950
    142  CA         7.2530  -58.3390   23.6040 C.3   372  THR372      0.1897
    143  C          8.5530  -59.1510   23.5510 C.2   372  THR372      0.2313
    144  O          9.1800  -59.2560   22.4780 O.2   372  THR372     -0.2863
    145  CB         6.0640  -59.3700   23.6190 C.3   372  THR372      0.1794
    146  OG1        6.1580  -60.1360   22.4240 O.3   372  THR372     -0.2208
    147  CG2        4.7080  -58.7060   23.5910 C.3   372  THR372      0.0378
    148  N         10.3690  -62.9420   23.7860 N.3   374  ASP374     -0.1239
    149  CA        10.0240  -64.3770   23.7190 C.3   374  ASP374      0.1674
    150  C         10.9880  -65.0990   24.6750 C.2   374  ASP374      0.2266
    151  O         12.1140  -65.4210   24.2820 O.2   374  ASP374     -0.2867
    152  CB        10.1850  -64.8860   22.2710 C.3   374  ASP374      0.1410
    153  CG         9.7200  -66.3170   22.1150 C.2   374  ASP374      0.3668
    154  OD1        9.6610  -67.0360   23.1290 O.co2 374  ASP374     -0.2456
    155  OD2        9.4750  -66.7750   20.9520 O.co2 374  ASP374     -0.2456
@<TRIPOS>BOND
     1    40    39    2
     2    51    52    1
     3    54    53    2
     4    39    38    1
     5    41    38    1
     6    41    42    1
     7    62    64   ar
     8    62    61   ar
     9    64    66   ar
    10    53    52    1
    11    53    56   am
    12    38    37    1
    13    52    55    1
    14    60    61    1
    15    60    57    1
    16    61    63   ar
    17    42    43   ar
    18    42    44   ar
    19    66    67    1
    20    66    65   ar
    21    37    32   am
    22    43    45   ar
    23    85    84    1
    24    85    86    2
    25    83    84    1
    26    57    56    1
    27    57    58    1
    28    84    87    1
    29    63    65   ar
    30    44    47   ar
    31    44    46   ar
    32    30    36    1
    33    30    31    1
    34   105   103   ar
    35   105   107   ar
    36    36    35    1
    37   103   102   ar
    38    47    49   ar
    39    45    46   ar
    40    92    93    1
    41    32    31    1
    42    32    33    2
    43    95    94    2
    44   108   107    1
    45   107   106   ar
    46    58    68   am
    47    58    59    2
    48    46    48   ar
    49   102   101    1
    50   102   104   ar
    51    68    69    1
    52   101    98    1
    53    87    88    1
    54    31    34    1
    55    71    70    2
    56    88    89    1
    57    49    50   ar
    58    94    93    1
    59    94    97   am
    60   106   104   ar
    61    35    34    1
    62    93    96    1
    63    98    97    1
    64    98    99    1
    65    48    50   ar
    66    70    69    1
    67    70    74   am
    68    69    72    1
    69    72    73    1
    70    77    76    1
    71    75    74    1
    72    75    76    1
    73    75    78    1
    74    82    80   am
    75    89    91   am
    76    89    90    2
    77    79    78    1
    78    79    80    1
    79    99   100    2
    80    80    81    2
    81     7     1    1
    82     7     6    1
    83   109   110    1
    84    13    12    1
    85     4     3    2
    86   110   113    1
    87   110   111    1
    88     1     2    1
    89   115   114    2
    90   116   114   am
    91   114   113    1
    92   126   127    1
    93   129   128    2
    94     6     5    1
    95     3     2    1
    96     3     8   am
    97   133   131    1
    98   111   112    2
    99   125   123   am
   100     2     5    1
   101    12     9    1
   102    12    14    1
   103   131   130    1
   104   139   138    1
   105   128   127    1
   106   128   134   am
   107   130   127    1
   108   130   132    1
   109   124   123    2
   110     9     8    1
   111     9    10    1
   112    29    27   ar
   113   123   122    1
   114   155   153   ar
   115   140   138    1
   116   138   135    1
   117   135   134    1
   118   135   136    1
   119    27    28   ar
   120    27    26    1
   121   122   121    1
   122    10    15   am
   123    10    11    2
   124   153   152    1
   125   153   154   ar
   126    15    16    1
   127   152   149    1
   128   141   136   am
   129   141   142    1
   130   146   145    1
   131    18    17    2
   132   144   143    2
   133   136   137    2
   134    26    23    1
   135   121   118    1
   136    17    16    1
   137    16    19    1
   138   118   117    1
   139   118   119    1
   140   143   142    1
   141   147   145    1
   142   142   145    1
   143   149   148    1
   144   149   150    1
   145    22    23    1
   146    19    21    1
   147    19    20    1
   148    23    24    1
   149   151   150    2
   150   120   119    2
   151    24    25    2
