@<TRIPOS>MOLECULE
tmp/3sw2B00.pdb
 175 174 0 0 0
SMALL
GASTEIGER

@<TRIPOS>ATOM
      1  N         13.7960   47.4020   52.9700 N.3    42  HIS42      -0.1241
      2  CA        12.3410   47.4050   52.9920 C.3    42  HIS42       0.1621
      3  C         11.7520   48.7450   53.4310 C.2    42  HIS42       0.2264
      4  O         10.5810   49.0270   53.1820 O.2    42  HIS42      -0.2867
      5  CB        11.8000   46.2370   53.8290 C.3    42  HIS42       0.0745
      6  CG        11.7200   46.5110   55.2980 C.ar   42  HIS42       0.0817
      7  ND1       12.7240   46.1650   56.1760 N.ar   42  HIS42      -0.2268
      8  CD2       10.7400   47.0670   56.0500 C.ar   42  HIS42       0.1154
      9  CE1       12.3710   46.5010   57.4050 C.ar   42  HIS42       0.1986
     10  NE2       11.1720   47.0530   57.3560 N.ar   42  HIS42      -0.2212
     11  N         11.3750   40.7680   48.8840 N.3    82  LYS82      -0.1231
     12  CA        10.1770   41.1230   49.6420 C.3    82  LYS82       0.1693
     13  C          9.5480   39.9410   50.3980 C.2    82  LYS82       0.2592
     14  O          8.8120   40.1470   51.3630 O.2    82  LYS82      -0.2718
     15  CB         9.1230   41.7690   48.7300 C.3    82  LYS82       0.0285
     16  CG         9.6740   42.8330   47.7880 C.3    82  LYS82       0.0035
     17  CD        10.2160   42.1670   46.4980 C.3    82  LYS82       0.0206
     18  CE        11.0330   43.1120   45.6040 C.3    82  LYS82       0.1093
     19  NZ        12.2840   43.5870   46.2680 N.3    82  LYS82      -0.1314
     20  N          9.8250   38.7150   49.9640 N.am   83  GLU83      -0.1966
     21  CA         9.1300   37.5430   50.5090 C.3    83  GLU83       0.1733
     22  C          9.7800   36.9910   51.7690 C.2    83  GLU83       0.2617
     23  O          9.1760   36.2100   52.5030 O.2    83  GLU83      -0.2715
     24  CB         9.0370   36.4290   49.4550 C.3    83  GLU83       0.0429
     25  CG         8.0480   36.7230   48.2990 C.3    83  GLU83       0.1163
     26  CD         6.5960   36.7560   48.7250 C.2    83  GLU83       0.3649
     27  OE1        5.9800   35.7900   49.1480 O.co2  83  GLU83      -0.2457
     28  OE2        6.1190   37.8940   48.6680 O.co2  83  GLU83      -0.2457
     29  N         11.0170   37.4020   52.0140 N.am   84  THR84      -0.1937
     30  CA        11.8230   36.8340   53.0850 C.3    84  THR84       0.2028
     31  C         12.5540   37.9310   53.8550 C.2    84  THR84       0.2642
     32  O         13.0550   37.6980   54.9550 O.2    84  THR84      -0.2714
     33  CB        12.8980   35.9160   52.4920 C.3    84  THR84       0.1808
     34  OG1       13.7640   36.6910   51.6520 O.3    84  THR84      -0.2208
     35  CG2       12.2630   34.7980   51.6520 C.3    84  THR84       0.0379
     36  N         12.6250   39.1160   53.2530 N.am   85  TYR85      -0.1973
     37  CA        13.4290   40.2110   53.7710 C.3    85  TYR85       0.1639
     38  C         14.9150   39.8620   53.8790 C.2    85  TYR85       0.2290
     39  O         15.6250   40.4250   54.7130 O.2    85  TYR85      -0.2864
     40  CB        12.9170   40.6760   55.1320 C.3    85  TYR85       0.0560
     41  CG        11.7670   41.6410   55.0610 C.ar   85  TYR85      -0.0198
     42  CD1       10.9530   41.7090   53.9340 C.ar   85  TYR85      -0.0009
     43  CD2       11.4940   42.4960   56.1260 C.ar   85  TYR85      -0.0009
     44  CE1        9.8850   42.5960   53.8790 C.ar   85  TYR85       0.0417
     45  CE2       10.4470   43.3850   56.0760 C.ar   85  TYR85       0.0417
     46  CZ         9.6420   43.4340   54.9560 C.ar   85  TYR85       0.1957
     47  OH         8.5910   44.3320   54.9250 O.3    85  TYR85      -0.2866
     48  N          2.7850   46.9800   70.6700 N.3   135  GLU135     -0.1245
     49  CA         2.5430   46.4120   69.3490 C.3   135  GLU135      0.1567
     50  C          1.4900   47.2170   68.5930 C.2   135  GLU135      0.2260
     51  O          1.7020   47.6110   67.4440 O.2   135  GLU135     -0.2867
     52  CB         2.1550   44.9330   69.4440 C.3   135  GLU135      0.0388
     53  CG         2.1150   44.2160   68.0970 C.3   135  GLU135      0.1160
     54  CD         1.8810   42.7130   68.2240 C.2   135  GLU135      0.3649
     55  OE1        2.3210   42.1000   69.2300 O.co2 135  GLU135     -0.2457
     56  OE2        1.2510   42.1470   67.3060 O.co2 135  GLU135     -0.2457
     57  N          9.3440   31.5590   60.1810 N.3   162  PHE162     -0.1241
     58  CA         9.9150   31.8390   58.8700 C.3   162  PHE162      0.1605
     59  C         11.3890   31.4510   58.7810 C.2   162  PHE162      0.2264
     60  O         12.0090   31.0970   59.7860 O.2   162  PHE162     -0.2867
     61  CB         9.7160   33.3110   58.5230 C.3   162  PHE162      0.0534
     62  CG         8.2790   33.7380   58.5460 C.ar  162  PHE162     -0.0203
     63  CD1        7.4830   33.6040   57.4160 C.ar  162  PHE162     -0.0042
     64  CD2        7.7140   34.2550   59.7030 C.ar  162  PHE162     -0.0042
     65  CE1        6.1530   33.9910   57.4350 C.ar  162  PHE162     -0.0003
     66  CE2        6.3850   34.6430   59.7290 C.ar  162  PHE162     -0.0003
     67  CZ         5.6040   34.5100   58.5910 C.ar  162  PHE162     -0.0000
     68  N         11.4500   44.7560   73.2920 N.3   179  ASP179     -0.1225
     69  CA        11.8050   44.4000   71.9290 C.3   179  ASP179      0.1805
     70  C         11.7970   45.6660   71.0860 C.2   179  ASP179      0.2598
     71  O         11.3690   46.7300   71.5470 O.2   179  ASP179     -0.2718
     72  CB        10.7890   43.3750   71.3910 C.3   179  ASP179      0.1424
     73  CG        11.2710   42.6510   70.1290 C.2   179  ASP179      0.3668
     74  OD1       12.4830   42.7300   69.8190 O.co2 179  ASP179     -0.2456
     75  OD2       10.4360   41.9880   69.4510 O.co2 179  ASP179     -0.2456
     76  N         12.2960   45.5670   69.8610 N.am  180  ALA180     -0.1966
     77  CA        12.0830   46.6250   68.8840 C.3   180  ALA180      0.1728
     78  C         10.6400   46.4760   68.4160 C.2   180  ALA180      0.2616
     79  O          9.9500   45.5360   68.8250 O.2   180  ALA180     -0.2715
     80  CB        13.0450   46.4810   67.7260 C.3   180  ALA180      0.0334
     81  N         10.1840   47.3880   67.5650 N.am  181  CYS181     -0.1954
     82  CA         8.8140   47.3310   67.0820 C.3   181  CYS181      0.1843
     83  C          8.6460   48.1330   65.8020 C.2   181  CYS181      0.2625
     84  O          9.6050   48.7420   65.3140 O.2   181  CYS181     -0.2714
     85  CB         7.8410   47.8440   68.1480 C.3   181  CYS181      0.1000
     86  SG         6.0930   47.4490   67.7770 S.3   181  CYS181     -0.0756
     87  N          7.4280   48.1380   65.2610 N.am  182  GLN182     -0.1977
     88  CA         7.1470   48.8710   64.0340 C.3   182  GLN182      0.1601
     89  C          7.6580   50.2980   64.1240 C.2   182  GLN182      0.2287
     90  O          7.3680   51.0040   65.0930 O.2   182  GLN182     -0.2864
     91  CB         5.6540   48.8890   63.7380 C.3   182  GLN182      0.0394
     92  CG         5.2910   49.8720   62.6420 C.3   182  GLN182      0.0908
     93  CD         3.9310   49.6020   62.0470 C.2   182  GLN182      0.2608
     94  OE1        3.2500   48.6480   62.4330 O.2   182  GLN182     -0.2717
     95  NE2        3.5260   50.4380   61.0920 N.am  182  GLN182     -0.0878
     96  N         12.4360   49.9160   62.3450 N.3   185  SER185     -0.1217
     97  CA        13.0900   49.3410   61.1860 C.3   185  SER185      0.1889
     98  C         14.1690   50.2530   60.6100 C.2   185  SER185      0.2288
     99  O         13.9850   51.4650   60.5240 O.2   185  SER185     -0.2866
    100  CB        12.0550   49.0080   60.1060 C.3   185  SER185      0.2089
    101  OG        11.2500   47.9060   60.4950 O.3   185  SER185     -0.2183
    102  N         17.8220   46.9490   62.2820 N.3   203  VAL203     -0.1231
    103  CA        16.4600   46.5020   62.6220 C.3   203  VAL203      0.1692
    104  C         15.7190   46.0210   61.3660 C.2   203  VAL203      0.2593
    105  O         15.5270   46.7930   60.4170 O.2   203  VAL203     -0.2718
    106  CB        15.6070   47.6180   63.3220 C.3   203  VAL203      0.0266
    107  CG1       14.2650   47.0450   63.8580 C.3   203  VAL203      0.0020
    108  CG2       16.3910   48.2670   64.4510 C.3   203  VAL203      0.0020
    109  N         15.3090   44.7500   61.3650 N.am  204  SER204     -0.1938
    110  CA        14.6650   44.1570   60.1850 C.3   204  SER204      0.2055
    111  C         13.1750   43.8040   60.3530 C.2   204  SER204      0.2643
    112  O         12.3030   44.3820   59.6920 O.2   204  SER204     -0.2714
    113  CB        15.4410   42.9290   59.7010 C.3   204  SER204      0.2130
    114  OG        15.2170   42.7270   58.3160 O.3   204  SER204     -0.2179
    115  N         12.8840   42.8390   61.2100 N.am  205  TRP205     -0.1959
    116  CA        11.5110   42.3720   61.3680 C.3   205  TRP205      0.1771
    117  C         11.3600   41.4760   62.5880 C.2   205  TRP205      0.2620
    118  O         12.3410   41.0840   63.2090 O.2   205  TRP205     -0.2715
    119  CB        11.0150   41.6430   60.1080 C.3   205  TRP205      0.0590
    120  CG        11.8350   40.4490   59.7120 C.ar  205  TRP205      0.0006
    121  CD1       12.9240   40.4390   58.8890 C.ar  205  TRP205      0.0946
    122  CD2       11.6160   39.0820   60.1050 C.ar  205  TRP205      0.0152
    123  NE1       13.4050   39.1510   58.7510 N.ar  205  TRP205     -0.2442
    124  CE2       12.6210   38.3020   59.4880 C.ar  205  TRP205      0.0810
    125  CE3       10.6630   38.4420   60.9130 C.ar  205  TRP205      0.0012
    126  CZ2       12.7080   36.9180   59.6610 C.ar  205  TRP205      0.0191
    127  CZ3       10.7500   37.0630   61.0840 C.ar  205  TRP205      0.0001
    128  CH2       11.7670   36.3180   60.4620 C.ar  205  TRP205      0.0015
    129  N         10.1190   41.1740   62.9350 N.am  206  GLY206     -0.1940
    130  CA         9.8200   40.2690   64.0250 C.3   206  GLY206      0.2014
    131  C          8.3960   39.7930   63.8470 C.2   206  GLY206      0.2639
    132  O          7.5960   40.4620   63.1860 O.2   206  GLY206     -0.2714
    133  N          8.0760   38.6370   64.4150 N.am  207  GLU207     -0.1963
    134  CA         6.6950   38.1590   64.4140 C.3   207  GLU207      0.1733
    135  C          5.9720   38.8060   65.5910 C.2   207  GLU207      0.2617
    136  O          5.9930   38.2900   66.7070 O.2   207  GLU207     -0.2715
    137  CB         6.6620   36.6410   64.5180 C.3   207  GLU207      0.0429
    138  CG         7.5370   35.9510   63.4760 C.3   207  GLU207      0.1163
    139  CD         7.5900   34.4490   63.6640 C.2   207  GLU207      0.3649
    140  OE1        6.5360   33.8640   63.9910 O.co2 207  GLU207     -0.2457
    141  OE2        8.6810   33.8590   63.4970 O.co2 207  GLU207     -0.2457
    142  N          5.3690   39.9620   65.3370 N.am  208  GLY208     -0.1940
    143  CA         4.8060   40.7730   66.3940 C.3   208  GLY208      0.2014
    144  C          5.8440   41.6690   67.0440 C.2   208  GLY208      0.2642
    145  O          6.8930   41.9520   66.4570 O.2   208  GLY208     -0.2714
    146  N          5.5350   42.1210   68.2590 N.am  209  CYS209     -0.1925
    147  CA         6.4600   42.9060   69.0720 C.3   209  CYS209      0.1884
    148  C          6.5500   42.3060   70.4660 C.2   209  CYS209      0.2338
    149  O          5.5680   42.2950   71.2010 O.2   209  CYS209     -0.2860
    150  CB         5.9940   44.3630   69.2010 C.2   209  CYS209      0.0448
    151  SG         6.2320   45.4260   67.7640 S.3   209  CYS209     -0.0571
    152  N         13.4630   39.5790   68.0060 N.3   216  GLY216     -0.1210
    153  CA        13.7070   40.5350   66.9370 C.3   216  GLY216      0.1956
    154  C         14.7240   39.9990   65.9430 C.2   216  GLY216      0.2612
    155  O         15.7190   39.3810   66.3420 O.2   216  GLY216     -0.2717
    156  N         14.4720   40.2140   64.6510 N.am  217  ILE217     -0.1965
    157  CA        15.3840   39.7720   63.5940 C.3   217  ILE217      0.1727
    158  C         16.1280   40.9620   62.9620 C.2   217  ILE217      0.2616
    159  O         15.5050   41.9460   62.5360 O.2   217  ILE217     -0.2715
    160  CB        14.6560   38.9970   62.4670 C.3   217  ILE217      0.0290
    161  CG1       13.6920   37.9380   63.0310 C.3   217  ILE217      0.0022
    162  CG2       15.6670   38.4070   61.4790 C.3   217  ILE217      0.0023
    163  CD1       14.2740   37.0290   64.0830 C.3   217  ILE217      0.0001
    164  N         17.4550   40.8400   62.8820 N.am  218  TYR218     -0.1974
    165  CA        18.3220   41.9170   62.4180 C.3   218  TYR218      0.1639
    166  C         19.1380   41.5120   61.1960 C.2   218  TYR218      0.2290
    167  O         19.4940   40.3580   61.0400 O.2   218  TYR218     -0.2864
    168  CB        19.2710   42.3210   63.5440 C.3   218  TYR218      0.0560
    169  CG        18.5480   42.8610   64.7520 C.ar  218  TYR218     -0.0198
    170  CD1       17.8730   42.0120   65.6380 C.ar  218  TYR218     -0.0009
    171  CD2       18.5240   44.2190   65.0040 C.ar  218  TYR218     -0.0009
    172  CE1       17.1940   42.5210   66.7410 C.ar  218  TYR218      0.0417
    173  CE2       17.8550   44.7360   66.0980 C.ar  218  TYR218      0.0417
    174  CZ        17.1940   43.8960   66.9640 C.ar  218  TYR218      0.1957
    175  OH        16.5490   44.4560   68.0480 O.3   218  TYR218     -0.2866
@<TRIPOS>BOND
     1    18    19    1
     2    18    17    1
     3    17    16    1
     4    16    15    1
     5    25    26    1
     6    25    24    1
     7    28    26   ar
     8    26    27   ar
     9    15    12    1
    10    11    12    1
    11    24    21    1
    12    12    13    1
    13    20    13   am
    14    20    21    1
    15    13    14    2
    16    21    22    1
    17    34    33    1
    18    35    33    1
    19    22    29   am
    20    22    23    2
    21    29    30    1
    22    33    30    1
    23     1     2    1
    24     2     3    1
    25     2     5    1
    26    30    31    1
    27     4     3    2
    28    36    37    1
    29    36    31   am
    30    37    38    1
    31    37    40    1
    32     5     6    1
    33    31    32    2
    34    44    42   ar
    35    44    46   ar
    36    38    39    2
    37    42    41   ar
    38    47    46    1
    39    46    45   ar
    40    41    40    1
    41    41    43   ar
    42     6     8   ar
    43     6     7   ar
    44     8    10   ar
    45    45    43   ar
    46     7     9   ar
    47    10     9   ar
    48    63    65   ar
    49    63    62   ar
    50    65    67   ar
    51   114   113    1
    52    61    62    1
    53    61    58    1
    54    62    64   ar
    55    67    66   ar
    56   123   121   ar
    57   123   124   ar
    58    59    58    1
    59    59    60    2
    60    58    57    1
    61   121   120   ar
    62   124   126   ar
    63   124   122   ar
    64   126   128   ar
    65   112   111    2
    66   113   110    1
    67    64    66   ar
    68   120   122   ar
    69   120   119    1
    70   122   125   ar
    71   100   101    1
    72   100    97    1
    73   119   116    1
    74   110   111    1
    75   110   109    1
    76   111   115   am
    77   105   104    2
    78   128   127   ar
    79    99    98    2
    80    98    97    1
    81   125   127   ar
    82   167   166    2
    83    95    93   am
    84    97    96    1
    85   166   165    1
    86   115   116    1
    87   109   104   am
    88   104   103    1
    89   116   117    1
    90   162   160    1
    91    93    94    2
    92    93    92    1
    93   102   103    1
    94   165   164    1
    95   165   168    1
    96   160   161    1
    97   160   157    1
    98   159   158    2
    99   117   129   am
   100   117   118    2
   101   103   106    1
   102    92    91    1
   103   164   158   am
   104   129   130    1
   105   158   157    1
   106   161   163    1
   107   132   131    2
   108   106   107    1
   109   106   108    1
   110   138   139    1
   111   138   137    1
   112   141   139   ar
   113   168   169    1
   114   157   156    1
   115   139   140   ar
   116    91    88    1
   117   131   130    1
   118   131   133   am
   119    88    89    1
   120    88    87    1
   121    89    90    2
   122   134   133    1
   123   134   137    1
   124   134   135    1
   125   156   154   am
   126   169   171   ar
   127   169   170   ar
   128   171   173   ar
   129    87    83   am
   130    84    83    2
   131   142   135   am
   132   142   143    1
   133   135   136    2
   134   170   172   ar
   135    83    82    1
   136   154   155    2
   137   154   153    1
   138   173   174   ar
   139   143   144    1
   140   145   144    2
   141   172   174   ar
   142   153   152    1
   143   174   175    1
   144   144   146   am
   145    82    81    1
   146    82    85    1
   147    56    54   ar
   148    51    50    2
   149    81    78   am
   150    80    77    1
   151   151    86    1
   152   151   150    2
   153    86    85    1
   154    53    54    1
   155    53    52    1
   156    54    55   ar
   157   146   147    1
   158    78    79    2
   159    78    77    1
   160    50    49    1
   161    77    76    1
   162   147   150    1
   163   147   148    1
   164    49    52    1
   165    49    48    1
   166    75    73   ar
   167    74    73   ar
   168    76    70   am
   169    73    72    1
   170   148   149    2
   171    70    71    2
   172    70    69    1
   173    72    69    1
   174    69    68    1
