@<TRIPOS>MOLECULE
tmp/3sw4A00.pdb
 162 155 0 0 0
SMALL
GASTEIGER

@<TRIPOS>ATOM
      1  N         13.8280   12.9630   -6.3550 N.3    10  ILE10      -0.1231
      2  CA        12.7530   12.0510   -6.7420 C.3    10  ILE10       0.1692
      3  C         13.1110   10.5670   -6.4950 C.2    10  ILE10       0.2593
      4  O         12.2500    9.7090   -6.6770 O.2    10  ILE10      -0.2718
      5  CB        12.2620   12.2780   -8.2080 C.3    10  ILE10       0.0266
      6  CG1       13.3760   12.0650   -9.2460 C.3    10  ILE10       0.0019
      7  CG2       11.5860   13.6510   -8.3600 C.3    10  ILE10       0.0020
      8  CD1       12.9210   12.1270  -10.7390 C.3    10  ILE10       0.0001
      9  N         14.3350   10.2880   -6.0670 N.am   11  GLY11      -0.1942
     10  CA        14.7420    8.9070   -5.8010 C.3    11  GLY11       0.2014
     11  C         16.1080    8.7560   -5.1750 C.2    11  GLY11       0.2641
     12  O         16.9330    9.6790   -5.2210 O.2    11  GLY11      -0.2714
     13  N         16.3340    7.5750   -4.5640 N.am   12  GLU12      -0.1931
     14  CA        17.5930    7.1850   -3.9280 C.3    12  GLU12       0.1818
     15  C         17.6700    5.6580   -3.9330 C.2    12  GLU12       0.2332
     16  O         16.8150    4.9890   -3.3470 O.2    12  GLU12      -0.2860
     17  CB        17.7680    7.7850   -2.5050 C.2    12  GLU12       0.0097
     18  CG        16.5430    7.7310   -1.6000 C.2    12  GLU12       0.0837
     19  CD        16.7950    7.9450   -0.1180 C.2    12  GLU12       0.3877
     20  OE1       17.7090    8.7260    0.2350 O.co2  12  GLU12      -0.2406
     21  OE2       16.0580    7.3410    0.6950 O.co2  12  GLU12      -0.2406
     22  N         18.5590   10.5360   -7.3680 N.3    18  VAL18      -0.1245
     23  CA        17.9150   10.9690   -8.6080 C.3    18  VAL18       0.1561
     24  C         17.1840   12.2620   -8.2900 C.2    18  VAL18       0.2260
     25  O         16.4610   12.3340   -7.2990 O.2    18  VAL18      -0.2867
     26  CB        16.9820    9.9060   -9.2600 C.3    18  VAL18       0.0252
     27  CG1       16.4940   10.3830  -10.6340 C.3    18  VAL18       0.0019
     28  CG2       17.6860    8.5520   -9.3950 C.3    18  VAL18       0.0019
     29  N         15.4270   14.0150  -15.5050 N.3    31  ALA31      -0.1245
     30  CA        15.7360   13.2530  -14.2980 C.3    31  ALA31       0.1562
     31  C         17.2430   13.0670  -14.3120 C.2    31  ALA31       0.2260
     32  O         17.7960   12.4430  -15.2340 O.2    31  ALA31      -0.2867
     33  CB        14.9930   11.9250  -14.2580 C.3    31  ALA31       0.0290
     34  N         20.6020   11.6080  -12.5650 N.3    33  LYS33      -0.1245
     35  CA        21.0940   10.6010  -11.6410 C.3    33  LYS33       0.1561
     36  C         22.6050   10.8060  -11.4200 C.2    33  LYS33       0.2260
     37  O         23.3600   10.8350  -12.3830 O.2    33  LYS33      -0.2867
     38  CB        20.7580    9.1820  -12.1480 C.3    33  LYS33       0.0271
     39  CG        21.1020    8.0830  -11.1590 C.3    33  LYS33       0.0035
     40  CD        20.7330    6.7260  -11.7360 C.3    33  LYS33       0.0206
     41  CE        20.8570    5.6190  -10.7260 C.3    33  LYS33       0.1093
     42  NZ        19.8530    5.7180   -9.6290 N.3    33  LYS33      -0.1314
     43  N         12.7770    4.5110  -20.8380 N.3    56  VAL56      -0.1245
     44  CA        13.0600    5.9240  -20.5000 C.3    56  VAL56       0.1561
     45  C         14.3480    6.3260  -21.2450 C.2    56  VAL56       0.2260
     46  O         15.3610    5.6280  -21.1360 O.2    56  VAL56      -0.2867
     47  CB        13.1980    6.1070  -18.9560 C.3    56  VAL56       0.0252
     48  CG1       13.7160    7.5070  -18.6010 C.3    56  VAL56       0.0019
     49  CG2       11.8600    5.8530  -18.2580 C.3    56  VAL56       0.0019
     50  N         18.3090   11.6540  -17.8610 N.3    72  PHE72      -0.1227
     51  CA        17.1740   10.9470  -18.4440 C.3    72  PHE72       0.1736
     52  C         16.0470   11.8800  -18.7700 C.2    72  PHE72       0.2595
     53  O         15.8880   12.9010  -18.0970 O.2    72  PHE72      -0.2718
     54  CB        16.6260    9.9290  -17.4250 C.3    72  PHE72       0.0547
     55  CG        17.5530    8.7840  -17.1260 C.ar   72  PHE72      -0.0202
     56  CD1       17.5610    7.6460  -17.9340 C.ar   72  PHE72      -0.0042
     57  CD2       18.3800    8.8130  -16.0110 C.ar   72  PHE72      -0.0042
     58  CE1       18.4050    6.5660  -17.6450 C.ar   72  PHE72      -0.0003
     59  CE2       19.2190    7.7330  -15.7160 C.ar   72  PHE72      -0.0003
     60  CZ        19.2230    6.6110  -16.5310 C.ar   72  PHE72      -0.0000
     61  N         15.2150   11.5060  -19.7470 N.am   73  GLU73      -0.1965
     62  CA        13.9630   12.2380  -19.9820 C.3    73  GLU73       0.1733
     63  C         13.1320   12.1180  -18.7020 C.2    73  GLU73       0.2616
     64  O         13.2470   11.1160  -17.9830 O.2    73  GLU73      -0.2715
     65  CB        13.2030   11.6830  -21.1900 C.3    73  GLU73       0.0429
     66  CG        12.6690   10.2890  -20.9820 C.3    73  GLU73       0.1163
     67  CD        11.6670    9.8180  -22.0060 C.2    73  GLU73       0.3649
     68  OE1       11.7960    8.6510  -22.4220 O.co2  73  GLU73      -0.2457
     69  OE2       10.8480   10.6340  -22.4860 O.co2  73  GLU73      -0.2457
     70  N         12.3360   13.1460  -18.3950 N.am   74  PHE74      -0.1960
     71  CA        11.5270   13.1530  -17.1740 C.3    74  PHE74       0.1771
     72  C         10.1030   12.6590  -17.4440 C.2    74  PHE74       0.2619
     73  O          9.4810   13.1270  -18.3990 O.2    74  PHE74      -0.2715
     74  CB        11.4610   14.5910  -16.5790 C.3    74  PHE74       0.0574
     75  CG        10.6660   14.7090  -15.2950 C.ar   74  PHE74      -0.0200
     76  CD1       11.1640   14.1970  -14.0940 C.ar   74  PHE74      -0.0042
     77  CD2        9.3950   15.2750  -15.2930 C.ar   74  PHE74      -0.0042
     78  CE1       10.4210   14.2800  -12.9160 C.ar   74  PHE74      -0.0003
     79  CE2        8.6490   15.3520  -14.1110 C.ar   74  PHE74      -0.0003
     80  CZ         9.1690   14.8700  -12.9310 C.ar   74  PHE74      -0.0000
     81  N          9.5860   11.7250  -16.6000 N.am   75  LEU75      -0.1963
     82  CA         8.1840   11.2750  -16.6860 C.3    75  LEU75       0.1728
     83  C          7.4760   11.7250  -15.4320 C.2    75  LEU75       0.2616
     84  O          8.1240   11.9520  -14.4160 O.2    75  LEU75      -0.2715
     85  CB         8.0600    9.7760  -16.9510 C.3    75  LEU75       0.0311
     86  CG         8.1730    9.4320  -18.4460 C.3    75  LEU75       0.0022
     87  CD1        9.6490    9.2460  -18.8880 C.3    75  LEU75       0.0001
     88  CD2        7.3090    8.2350  -18.8120 C.3    75  LEU75       0.0001
     89  N          6.1560   11.9490  -15.4980 N.am   76  HIS76      -0.1959
     90  CA         5.5490   12.6240  -14.3690 C.3    76  HIS76       0.1787
     91  C          5.2940   11.8350  -13.1090 C.2    76  HIS76       0.2620
     92  O          5.2260   12.4590  -12.0450 O.2    76  HIS76      -0.2715
     93  CB         4.3330   13.4040  -14.8020 C.3    76  HIS76       0.0785
     94  CG         4.7330   14.8250  -15.0840 C.ar   76  HIS76       0.0821
     95  ND1        5.4690   15.1640  -16.2110 N.ar   76  HIS76      -0.2267
     96  CD2        4.5890   15.9320  -14.3110 C.ar   76  HIS76       0.1154
     97  CE1        5.7230   16.4560  -16.0930 C.ar   76  HIS76       0.1986
     98  NE2        5.1820   16.9670  -14.9830 N.ar   76  HIS76      -0.2212
     99  N          5.2430   10.4870  -13.1650 N.am   77  GLN77      -0.1963
    100  CA         5.0150    9.7200  -11.9330 C.3    77  GLN77       0.1733
    101  C          5.6120    8.3320  -12.0600 C.2    77  GLN77       0.2616
    102  O          5.7690    7.8490  -13.1800 O.2    77  GLN77      -0.2715
    103  CB         3.4820    9.5790  -11.7410 C.3    77  GLN77       0.0408
    104  CG         3.0190    9.0550  -10.3940 C.3    77  GLN77       0.0908
    105  CD         1.5820    9.4300  -10.1700 C.2    77  GLN77       0.2608
    106  OE1        0.7020    8.5950  -10.2030 O.2    77  GLN77      -0.2717
    107  NE2        1.3140   10.7040   -9.9010 N.am   77  GLN77      -0.0878
    108  N          5.9060    7.6720  -10.9370 N.am   78  ASP78      -0.1971
    109  CA         6.3150    6.2470  -11.0210 C.3    78  ASP78       0.1709
    110  C          5.0930    5.3350  -10.7460 C.2    78  ASP78       0.2293
    111  O          4.0490    5.7890  -10.2680 O.2    78  ASP78      -0.2864
    112  CB         7.5040    5.8960  -10.0960 C.3    78  ASP78       0.1436
    113  CG         7.2630    6.0500   -8.6030 C.2    78  ASP78       0.3671
    114  OD1        6.1400    6.3990   -8.2150 O.co2  78  ASP78      -0.2456
    115  OD2        8.1980    5.8040   -7.8280 O.co2  78  ASP78      -0.2456
    116  N          3.8650    5.2280   -6.9030 N.3    81  LYS81      -0.1245
    117  CA         2.9330    6.2760   -6.4590 C.3    81  LYS81       0.1561
    118  C          1.5250    6.0100   -7.0080 C.2    81  LYS81       0.2260
    119  O          0.5440    6.1940   -6.2920 O.2    81  LYS81      -0.2867
    120  CB         3.4250    7.6940   -6.8630 C.3    81  LYS81       0.0271
    121  CG         2.5210    8.8200   -6.3000 C.3    81  LYS81       0.0035
    122  CD         2.9210   10.2230   -6.7450 C.3    81  LYS81       0.0206
    123  CE         2.0060   11.2780   -6.1660 C.3    81  LYS81       0.1093
    124  NZ         2.5370   12.6540   -6.3870 N.3    81  LYS81      -0.1314
    125  N          9.2610    1.2830   -8.5670 N.3   123  GLN123     -0.1231
    126  CA         9.9510    2.5850   -8.5340 C.3   123  GLN123      0.1698
    127  C         10.7500    2.8560   -9.8050 C.2   123  GLN123      0.2592
    128  O         11.1170    4.0160  -10.0250 O.2   123  GLN123     -0.2718
    129  CB        10.8170    2.7270   -7.2740 C.3   123  GLN123      0.0381
    130  CG         9.9940    2.6660   -5.9870 C.3   123  GLN123      0.0905
    131  CD         9.7420    1.2790   -5.3980 C.2   123  GLN123      0.2608
    132  OE1        9.8660    0.2080   -6.0430 O.2   123  GLN123     -0.2717
    133  NE2        9.3110    1.2790   -4.1470 N.am  123  GLN123     -0.0878
    134  N         11.0150    1.8410  -10.6730 N.am  124  ASN124     -0.1974
    135  CA        11.7050    2.2280  -11.9010 C.3   124  ASN124      0.1688
    136  C         10.8350    1.9870  -13.1220 C.2   124  ASN124      0.2292
    137  O         11.3350    1.9000  -14.2440 O.2   124  ASN124     -0.2864
    138  CB        13.0950    1.6530  -12.0460 C.3   124  ASN124      0.1181
    139  CG        13.1710    0.2020  -11.8290 C.2   124  ASN124      0.2629
    140  OD1       12.2960   -0.5380  -12.2690 O.2   124  ASN124     -0.2716
    141  ND2       14.2870   -0.2210  -11.2130 N.am  124  ASN124     -0.0877
    142  N          7.8890    4.0440  -15.0080 N.3   126  LEU126     -0.1245
    143  CA         7.4450    5.4400  -15.0350 C.3   126  LEU126      0.1561
    144  C          6.2890    5.6290  -15.9900 C.2   126  LEU126      0.2260
    145  O          6.2920    5.0440  -17.0740 O.2   126  LEU126     -0.2867
    146  CB         8.6290    6.3430  -15.4640 C.3   126  LEU126      0.0270
    147  CG         9.7440    6.6060  -14.4500 C.3   126  LEU126      0.0019
    148  CD1        9.1940    7.0290  -13.0800 C.3   126  LEU126      0.0001
    149  CD2       10.6970    5.4310  -14.3240 C.3   126  LEU126      0.0001
    150  N         12.9730    2.2160  -16.6060 N.3   136  ALA136     -0.1231
    151  CA        14.1710    3.0280  -16.3550 C.3   136  ALA136      0.1694
    152  C         15.2880    2.1730  -15.7510 C.2   136  ALA136      0.2592
    153  O         14.9990    1.2490  -15.0060 O.2   136  ALA136     -0.2718
    154  CB        13.8370    4.1590  -15.4010 C.3   136  ALA136      0.0304
    155  N         16.5550    2.5290  -16.0220 N.am  137  ASP137     -0.1974
    156  CA        17.7760    1.8760  -15.4910 C.3   137  ASP137      0.1709
    157  C         18.1230    0.5380  -16.1390 C.2   137  ASP137      0.2293
    158  O         18.8810   -0.2320  -15.5540 O.2   137  ASP137     -0.2864
    159  CB        17.7420    1.7280  -13.9510 C.3   137  ASP137      0.1436
    160  CG        17.9030    3.0680  -13.2370 C.2   137  ASP137      0.3671
    161  OD1       17.7570    4.1190  -13.9020 O.co2 137  ASP137     -0.2456
    162  OD2       18.2570    3.0640  -12.0410 O.co2 137  ASP137     -0.2456
@<TRIPOS>BOND
     1    69    67   ar
     2    68    67   ar
     3    67    66    1
     4    45    46    2
     5    45    44    1
     6    65    66    1
     7    65    62    1
     8    43    44    1
     9    44    47    1
    10    62    61    1
    11    62    63    1
    12    61    52   am
    13    47    48    1
    14    47    49    1
    15    87    86    1
    16    88    86    1
    17    52    51    1
    18    52    53    2
    19    63    70   am
    20    63    64    2
    21    86    85    1
    22    51    50    1
    23    51    54    1
    24    73    72    2
    25    70    71    1
    26    56    58   ar
    27    56    55   ar
    28    58    60   ar
    29    72    71    1
    30    72    81   am
    31    54    55    1
    32    71    74    1
    33    55    57   ar
    34   145   144    2
    35    85    82    1
    36    82    81    1
    37    82    83    1
    38   150   151    1
    39    74    75    1
    40    60    59   ar
    41   151   152    1
    42   151   154    1
    43    95    97   ar
    44    95    94   ar
    45   157   158    2
    46   157   156    1
    47    97    98   ar
    48   155   152   am
    49   155   156    1
    50    57    59   ar
    51   144   143    1
    52   152   153    2
    53    29    30    1
    54    89    83   am
    55    89    90    1
    56   156   159    1
    57   146   143    1
    58   146   147    1
    59    83    84    2
    60    75    77   ar
    61    75    76   ar
    62    77    79   ar
    63    32    31    2
    64    94    93    1
    65    94    96   ar
    66   143   142    1
    67    98    96   ar
    68    93    90    1
    69   147   149    1
    70   147   148    1
    71    90    91    1
    72    31    30    1
    73    30    33    1
    74   137   136    2
    75    79    80   ar
    76    76    78   ar
    77   159   160    1
    78   161   160   ar
    79   160   162   ar
    80   102   101    2
    81    99    91   am
    82    99   100    1
    83   136   135    1
    84    91    92    2
    85    80    78   ar
    86    34    35    1
    87    37    36    2
    88   140   139    2
    89    38    35    1
    90    38    39    1
    91   101   100    1
    92   101   108   am
    93   138   135    1
    94   138   139    1
    95   100   103    1
    96   135   134    1
    97   139   141   am
    98   103   104    1
    99    40    39    1
   100    40    41    1
   101    35    36    1
   102   109   108    1
   103   109   110    1
   104   109   112    1
   105   110   111    2
   106     8     6    1
   107    41    42    1
   108   134   127   am
   109    27    26    1
   110   104   105    1
   111   106   105    2
   112   105   107   am
   113   112   113    1
   114   128   127    2
   115   127   126    1
   116    28    26    1
   117    26    23    1
   118     6     5    1
   119    23    24    1
   120    23    22    1
   121   113   114   ar
   122   113   115   ar
   123   125   126    1
   124   126   129    1
   125     7     5    1
   126    24    25    2
   127     5     2    1
   128   129   130    1
   129   118   117    1
   130   118   119    2
   131   116   117    1
   132   120   117    1
   133   120   121    1
   134   122   121    1
   135   122   123    1
   136     2     3    1
   137     2     1    1
   138     4     3    2
   139     3     9   am
   140   124   123    1
   141     9    10    1
   142   132   131    2
   143   130   131    1
   144    10    11    1
   145   131   133   am
   146    12    11    2
   147    11    13   am
   148    13    14    1
   149    15    14    1
   150    15    16    2
   151    14    17    1
   152    17    18    2
   153    18    19    1
   154    19    20   ar
   155    19    21   ar
