@<TRIPOS>MOLECULE
tmp/3sw7A00.pdb
 202 193 0 0 0
SMALL
GASTEIGER

@<TRIPOS>ATOM
      1  N         14.1460   19.0880   -7.2580 N.3     8  GLU8       -0.1231
      2  CA        13.8600   18.2920   -6.0530 C.3     8  GLU8        0.1699
      3  C         14.3160   16.8610   -6.2330 C.2     8  GLU8        0.2592
      4  O         14.4860   16.3990   -7.3620 O.2     8  GLU8       -0.2718
      5  CB        12.3610   18.3270   -5.6800 C.3     8  GLU8        0.0402
      6  CG        11.4330   17.7530   -6.7380 C.3     8  GLU8        0.1161
      7  CD         9.9680   18.1170   -6.6110 C.2     8  GLU8        0.3649
      8  OE1        9.5920   18.7820   -5.6200 O.co2   8  GLU8       -0.2457
      9  OE2        9.1960   17.7490   -7.5230 O.co2   8  GLU8       -0.2457
     10  N         14.4940   16.1530   -5.1140 N.am    9  LYS9       -0.1966
     11  CA        14.8750   14.7440   -5.1090 C.3     9  LYS9        0.1728
     12  C         13.6510   13.9010   -5.4590 C.2     9  LYS9        0.2616
     13  O         12.5910   14.1010   -4.8630 O.2     9  LYS9       -0.2715
     14  CB        15.4150   14.3660   -3.7230 C.3     9  LYS9        0.0311
     15  CG        15.9610   12.9520   -3.6090 C.3     9  LYS9        0.0038
     16  CD        16.2130   12.5460   -2.1410 C.3     9  LYS9        0.0206
     17  CE        17.5040   13.0750   -1.5600 C.3     9  LYS9        0.1093
     18  NZ        17.6670   12.6770   -0.1360 N.3     9  LYS9       -0.1314
     19  N         13.8020   12.9330   -6.3810 N.am   10  ILE10      -0.1963
     20  CA        12.6930   12.0570   -6.7760 C.3    10  ILE10       0.1730
     21  C         12.9640   10.5670   -6.4510 C.2    10  ILE10       0.2656
     22  O         12.0340    9.7580   -6.4830 O.2    10  ILE10      -0.2711
     23  CB        12.2980   12.2460   -8.2620 C.3    10  ILE10       0.0290
     24  CG1       13.4510   11.9530   -9.2360 C.3    10  ILE10       0.0022
     25  CG2       11.6960   13.6310   -8.4840 C.3    10  ILE10       0.0023
     26  CD1       13.0170   12.0630  -10.7760 C.3    10  ILE10       0.0001
     27  N         14.2020   10.2250   -6.1200 N.am   11  GLY11      -0.1716
     28  CA        14.5450    8.8430   -5.8080 C.2    11  GLY11       0.1480
     29  C         15.9430    8.6290   -5.2790 C.2    11  GLY11       0.2820
     30  O         16.8180    9.4900   -5.4180 O.2    11  GLY11      -0.2669
     31  N         16.1400    7.4700   -4.6350 N.am   12  GLU12      -0.1929
     32  CA        17.4010    7.0440   -4.0390 C.3    12  GLU12       0.1736
     33  C         17.5470    5.5440   -4.2460 C.2    12  GLU12       0.2617
     34  O         17.0650    4.7540   -3.4250 O.2    12  GLU12      -0.2715
     35  CB        17.4590    7.4100   -2.5390 C.3    12  GLU12       0.0429
     36  CG        17.8640    8.8480   -2.2590 C.3    12  GLU12       0.1163
     37  CD        17.8910    9.2650   -0.8000 C.2    12  GLU12       0.3649
     38  OE1       18.7550   10.0990   -0.4450 O.co2  12  GLU12      -0.2457
     39  OE2       17.0400    8.7840   -0.0170 O.co2  12  GLU12      -0.2457
     40  N         18.1670    5.1730   -5.3660 N.am   13  GLY13      -0.1955
     41  CA        18.3990    3.7830   -5.7410 C.3    13  GLY13       0.1869
     42  C         19.6590    3.2070   -5.1330 C.2    13  GLY13       0.2309
     43  O         20.2730    3.8290   -4.2580 O.2    13  GLY13      -0.2863
     44  N         18.4800   10.2210   -7.5190 N.3    18  VAL18      -0.1245
     45  CA        17.8360   10.7650   -8.7050 C.3    18  VAL18       0.1561
     46  C         17.1370   12.0700   -8.3300 C.2    18  VAL18       0.2260
     47  O         16.3940   12.1190   -7.3600 O.2    18  VAL18      -0.2867
     48  CB        16.8520    9.7570   -9.3800 C.3    18  VAL18       0.0252
     49  CG1       16.4420   10.2610  -10.7560 C.3    18  VAL18       0.0019
     50  CG2       17.4740    8.3570   -9.4970 C.3    18  VAL18       0.0019
     51  N         14.8920   15.6140   -9.9110 N.3    20  LYS20      -0.1245
     52  CA        14.2420   16.3210  -11.0150 C.3    20  LYS20       0.1561
     53  C         15.1050   17.5600  -11.2050 C.2    20  LYS20       0.2260
     54  O         15.4690   18.2000  -10.2110 O.2    20  LYS20      -0.2867
     55  CB        12.7830   16.6720  -10.6380 C.3    20  LYS20       0.0271
     56  CG        12.0370   17.4250  -11.7330 C.3    20  LYS20       0.0035
     57  CD        10.6250   17.7700  -11.2870 C.3    20  LYS20       0.0206
     58  CE         9.8900   18.4970  -12.3810 C.3    20  LYS20       0.1093
     59  NZ         8.4420   18.6560  -12.0520 N.3    20  LYS20      -0.1314
     60  N         15.4110   13.9260  -15.4480 N.3    31  ALA31      -0.1245
     61  CA        15.6900   13.1950  -14.2210 C.3    31  ALA31       0.1562
     62  C         17.1770   12.9690  -14.2340 C.2    31  ALA31       0.2260
     63  O         17.7070   12.3530  -15.1680 O.2    31  ALA31      -0.2867
     64  CB        14.9040   11.8960  -14.1560 C.3    31  ALA31       0.0290
     65  N         20.5000   11.4040  -12.5350 N.3    33  LYS33      -0.1245
     66  CA        21.0090   10.3740  -11.6250 C.3    33  LYS33       0.1561
     67  C         22.4990   10.6130  -11.3970 C.2    33  LYS33       0.2260
     68  O         23.2750   10.6590  -12.3540 O.2    33  LYS33      -0.2867
     69  CB        20.7220    8.9580  -12.1570 C.3    33  LYS33       0.0271
     70  CG        21.1550    7.8430  -11.1870 C.3    33  LYS33       0.0035
     71  CD        20.9930    6.4470  -11.8140 C.3    33  LYS33       0.0206
     72  CE        21.3510    5.3770  -10.8200 C.3    33  LYS33       0.1093
     73  NZ        21.5710    4.0580  -11.4790 N.3    33  LYS33      -0.1314
     74  N         12.5700    4.5990  -20.8930 N.3    57  VAL57      -0.1245
     75  CA        12.8770    5.9970  -20.5240 C.3    57  VAL57       0.1561
     76  C         14.1790    6.3860  -21.2550 C.2    57  VAL57       0.2260
     77  O         15.2020    5.7070  -21.1250 O.2    57  VAL57      -0.2867
     78  CB        12.9660    6.2060  -18.9780 C.3    57  VAL57       0.0252
     79  CG1       13.5040    7.5850  -18.6220 C.3    57  VAL57       0.0019
     80  CG2       11.6010    6.0200  -18.3340 C.3    57  VAL57       0.0019
     81  N         18.2230   11.4960  -17.8170 N.3    73  PHE73      -0.1227
     82  CA        17.0940   10.8140  -18.4280 C.3    73  PHE73       0.1736
     83  C         16.0130   11.7950  -18.7530 C.2    73  PHE73       0.2595
     84  O         15.8910   12.8280  -18.0880 O.2    73  PHE73      -0.2718
     85  CB        16.4930    9.7760  -17.4360 C.3    73  PHE73       0.0547
     86  CG        17.4220    8.6460  -17.0860 C.ar   73  PHE73      -0.0202
     87  CD1       17.4760    7.5020  -17.8730 C.ar   73  PHE73      -0.0042
     88  CD2       18.2480    8.7270  -15.9700 C.ar   73  PHE73      -0.0042
     89  CE1       18.3360    6.4520  -17.5460 C.ar   73  PHE73      -0.0003
     90  CE2       19.1010    7.6760  -15.6390 C.ar   73  PHE73      -0.0003
     91  CZ        19.1470    6.5490  -16.4360 C.ar   73  PHE73      -0.0000
     92  N         15.1620   11.4390  -19.6960 N.am   74  GLU74      -0.1965
     93  CA        13.9470   12.2290  -19.9030 C.3    74  GLU74       0.1733
     94  C         13.1200   12.1260  -18.6270 C.2    74  GLU74       0.2616
     95  O         13.2050   11.1150  -17.9120 O.2    74  GLU74      -0.2715
     96  CB        13.1540   11.7120  -21.1070 C.3    74  GLU74       0.0429
     97  CG        12.5270   10.3540  -20.8880 C.3    74  GLU74       0.1163
     98  CD        11.5480    9.9400  -21.9600 C.2    74  GLU74       0.3649
     99  OE1       11.6290    8.7770  -22.4090 O.co2  74  GLU74      -0.2457
    100  OE2       10.7350   10.7890  -22.3870 O.co2  74  GLU74      -0.2457
    101  N         12.3320   13.1430  -18.3300 N.am   75  PHE75      -0.1960
    102  CA        11.5300   13.1210  -17.1030 C.3    75  PHE75       0.1771
    103  C         10.0910   12.6370  -17.3550 C.2    75  PHE75       0.2619
    104  O          9.4700   13.0770  -18.3150 O.2    75  PHE75      -0.2715
    105  CB        11.4970   14.5350  -16.4870 C.3    75  PHE75       0.0574
    106  CG        10.7010   14.6480  -15.2120 C.ar   75  PHE75      -0.0200
    107  CD1       11.2120   14.1560  -14.0060 C.ar   75  PHE75      -0.0042
    108  CD2        9.4160   15.1920  -15.2200 C.ar   75  PHE75      -0.0042
    109  CE1       10.4740   14.2490  -12.8310 C.ar   75  PHE75      -0.0003
    110  CE2        8.6550   15.2380  -14.0490 C.ar   75  PHE75      -0.0003
    111  CZ         9.1930   14.7690  -12.8650 C.ar   75  PHE75      -0.0000
    112  N          9.5530   11.7650  -16.4680 N.am   76  LEU76      -0.1963
    113  CA         8.1480   11.3340  -16.5350 C.3    76  LEU76       0.1728
    114  C          7.4660   11.7690  -15.2630 C.2    76  LEU76       0.2616
    115  O          8.1230   11.8920  -14.2310 O.2    76  LEU76      -0.2715
    116  CB         7.9900    9.8330  -16.8130 C.3    76  LEU76       0.0311
    117  CG         8.0390    9.4910  -18.3040 C.3    76  LEU76       0.0022
    118  CD1        9.4830    9.3350  -18.7920 C.3    76  LEU76       0.0001
    119  CD2        7.2790    8.2170  -18.6010 C.3    76  LEU76       0.0001
    120  N          6.1570   12.0620  -15.3170 N.am   77  HIS77      -0.1959
    121  CA         5.5770   12.6940  -14.1400 C.3    77  HIS77       0.1787
    122  C          5.3160   11.8440  -12.9310 C.2    77  HIS77       0.2620
    123  O          5.2510   12.4130  -11.8400 O.2    77  HIS77      -0.2715
    124  CB         4.3590   13.5010  -14.5070 C.3    77  HIS77       0.0785
    125  CG         4.7710   14.8610  -14.9570 C.ar   77  HIS77       0.0821
    126  ND1        4.7880   15.9330  -14.0820 N.ar   77  HIS77      -0.2267
    127  CD2        5.3190   15.2490  -16.1330 C.ar   77  HIS77       0.1154
    128  CE1        5.2340   16.9530  -14.7840 C.ar   77  HIS77       0.1986
    129  NE2        5.5900   16.5840  -16.0130 N.ar   77  HIS77      -0.2212
    130  N          5.2420   10.5070  -13.0640 N.am   78  GLN78      -0.1963
    131  CA         4.9860    9.6690  -11.8890 C.3    78  GLN78       0.1733
    132  C          5.6190    8.3160  -12.0430 C.2    78  GLN78       0.2616
    133  O          5.7770    7.8520  -13.1820 O.2    78  GLN78      -0.2715
    134  CB         3.4490    9.4860  -11.7990 C.3    78  GLN78       0.0408
    135  CG         2.9080    9.0800  -10.4470 C.3    78  GLN78       0.0908
    136  CD         1.4550    9.4330  -10.3810 C.2    78  GLN78       0.2608
    137  OE1        1.0660   10.6030  -10.4000 O.2    78  GLN78      -0.2717
    138  NE2        0.6210    8.4360  -10.3690 N.am   78  GLN78      -0.0878
    139  N          5.8670    7.6130  -10.9190 N.am   79  ASP79      -0.1971
    140  CA         6.2730    6.2150  -11.0210 C.3    79  ASP79       0.1709
    141  C          5.0330    5.3100  -10.7690 C.2    79  ASP79       0.2293
    142  O          3.9610    5.7760  -10.3410 O.2    79  ASP79      -0.2864
    143  CB         7.4490    5.8580  -10.1000 C.3    79  ASP79       0.1436
    144  CG         7.1980    6.0130   -8.6090 C.2    79  ASP79       0.3671
    145  OD1        6.0900    6.4500   -8.2320 O.co2  79  ASP79      -0.2456
    146  OD2        8.0920    5.6750   -7.8310 O.co2  79  ASP79      -0.2456
    147  N          3.7900    5.2300   -6.9660 N.3    82  LYS82      -0.1245
    148  CA         2.8810    6.3000   -6.5240 C.3    82  LYS82       0.1561
    149  C          1.4840    6.0420   -7.0620 C.2    82  LYS82       0.2260
    150  O          0.5150    6.2640   -6.3390 O.2    82  LYS82      -0.2867
    151  CB         3.3930    7.7110   -6.9330 C.3    82  LYS82       0.0271
    152  CG         2.4850    8.8790   -6.4510 C.3    82  LYS82       0.0035
    153  CD         2.9880   10.2520   -6.9080 C.3    82  LYS82       0.0206
    154  CE         2.0400   11.3580   -6.5160 C.3    82  LYS82       0.1093
    155  NZ         2.6020   12.7020   -6.8160 N.3    82  LYS82      -0.1314
    156  N         11.2710   -2.9050  -10.6420 N.3   122  LYS122     -0.1245
    157  CA        10.4590   -2.6720   -9.4550 C.3   122  LYS122      0.1561
    158  C          9.5370   -1.5210   -9.7560 C.2   122  LYS122      0.2260
    159  O          9.8130   -0.7760  -10.6980 O.2   122  LYS122     -0.2867
    160  CB        11.2940   -2.4220   -8.1860 C.3   122  LYS122      0.0271
    161  CG        12.3060   -1.3020   -8.2930 C.3   122  LYS122      0.0035
    162  CD        13.3560   -1.4810   -7.2090 C.3   122  LYS122      0.0206
    163  CE        14.4200   -0.4190   -7.2590 C.3   122  LYS122      0.1093
    164  NZ        15.5170   -0.7640   -6.3100 N.3   122  LYS122     -0.1314
    165  N          9.2340    1.3510   -8.5740 N.3   124  GLN124     -0.1231
    166  CA         9.9490    2.6360   -8.5460 C.3   124  GLN124      0.1698
    167  C         10.7610    2.9090   -9.8250 C.2   124  GLN124      0.2592
    168  O         11.1180    4.0700  -10.0600 O.2   124  GLN124     -0.2718
    169  CB        10.8230    2.7520   -7.2970 C.3   124  GLN124      0.0381
    170  CG         9.9830    2.7470   -6.0250 C.3   124  GLN124      0.0905
    171  CD         9.7500    1.3800   -5.3950 C.2   124  GLN124      0.2608
    172  OE1        9.8280    0.2900   -6.0260 O.2   124  GLN124     -0.2717
    173  NE2        9.3950    1.4230   -4.1160 N.am  124  GLN124     -0.0878
    174  N         11.0310    1.9060  -10.6750 N.am  125  ASN125     -0.1974
    175  CA        11.7020    2.2690  -11.9270 C.3   125  ASN125      0.1688
    176  C         10.8120    1.9890  -13.1610 C.2   125  ASN125      0.2292
    177  O         11.3040    1.8800  -14.2880 O.2   125  ASN125     -0.2864
    178  CB        13.0890    1.6780  -12.0840 C.3   125  ASN125      0.1181
    179  CG        13.1880    0.2450  -11.8220 C.2   125  ASN125      0.2629
    180  OD1       12.3360   -0.5310  -12.2670 O.2   125  ASN125     -0.2716
    181  ND2       14.2780   -0.1360  -11.1110 N.am  125  ASN125     -0.0877
    182  N          7.8600    4.0210  -14.9920 N.3   127  LEU127     -0.1245
    183  CA         7.4070    5.4020  -15.0390 C.3   127  LEU127      0.1561
    184  C          6.2550    5.5800  -15.9980 C.2   127  LEU127      0.2260
    185  O          6.2590    4.9990  -17.0920 O.2   127  LEU127     -0.2867
    186  CB         8.5860    6.3020  -15.5080 C.3   127  LEU127      0.0270
    187  CG         9.6860    6.6570  -14.5040 C.3   127  LEU127      0.0019
    188  CD1        9.1290    7.2190  -13.1850 C.3   127  LEU127      0.0001
    189  CD2       10.6200    5.5060  -14.2350 C.3   127  LEU127      0.0001
    190  N         12.9310    2.1200  -16.7390 N.3   137  ALA137     -0.1231
    191  CA        14.0350    3.0580  -16.5110 C.3   137  ALA137      0.1694
    192  C         15.2000    2.4060  -15.8360 C.2   137  ALA137      0.2592
    193  O         15.0240    1.5070  -15.0290 O.2   137  ALA137     -0.2718
    194  CB        13.5680    4.2230  -15.6410 C.3   137  ALA137      0.0304
    195  N         16.3820    2.9010  -16.1660 N.am  138  ASP138     -0.1974
    196  CA        17.6640    2.6640  -15.5450 C.3   138  ASP138      0.1709
    197  C         18.0920    1.1890  -15.5040 C.2   138  ASP138      0.2293
    198  O         18.1370    0.5730  -14.4440 O.2   138  ASP138     -0.2864
    199  CB        17.6430    3.2900  -14.1300 C.3   138  ASP138      0.1436
    200  CG        19.0010    3.4380  -13.4750 C.2   138  ASP138      0.3671
    201  OD1       20.0200    3.4930  -14.2090 O.co2 138  ASP138     -0.2456
    202  OD2       19.0510    3.4660  -12.2400 O.co2 138  ASP138     -0.2456
@<TRIPOS>BOND
     1    99    98   ar
     2   100    98   ar
     3    98    97    1
     4    76    77    2
     5    76    75    1
     6    96    97    1
     7    96    93    1
     8    74    75    1
     9    75    78    1
    10    93    92    1
    11    93    94    1
    12    92    83   am
    13    78    79    1
    14    78    80    1
    15   118   117    1
    16    83    82    1
    17    83    84    2
    18    94   101   am
    19    94    95    2
    20   119   117    1
    21    82    81    1
    22    82    85    1
    23   101   102    1
    24   104   103    2
    25   117   116    1
    26    87    89   ar
    27    87    86   ar
    28    89    91   ar
    29    85    86    1
    30   103   102    1
    31   103   112   am
    32   102   105    1
    33   185   184    2
    34    86    88   ar
    35   116   113    1
    36   190   191    1
    37   113   112    1
    38   113   114    1
    39   191   192    1
    40   191   194    1
    41   105   106    1
    42    91    90   ar
    43   195   192   am
    44   195   196    1
    45   127   129   ar
    46   127   125   ar
    47   129   128   ar
    48   184   183    1
    49    88    90   ar
    50   192   193    2
    51   196   197    1
    52   196   199    1
    53   186   183    1
    54   186   187    1
    55   197   198    2
    56    60    61    1
    57   120   114   am
    58   120   121    1
    59   114   115    2
    60   108   106   ar
    61   108   110   ar
    62   106   107   ar
    63    63    62    2
    64   183   182    1
    65   125   124    1
    66   125   126   ar
    67   128   126   ar
    68   124   121    1
    69   187   189    1
    70   187   188    1
    71   177   176    2
    72    62    61    1
    73    61    64    1
    74   201   200   ar
    75   121   122    1
    76   199   200    1
    77   110   111   ar
    78   107   109   ar
    79   200   202   ar
    80   133   132    2
    81   176   175    1
    82   130   122   am
    83   130   131    1
    84   122   123    2
    85   111   109   ar
    86    65    66    1
    87    58    59    1
    88    58    57    1
    89    68    67    2
    90   180   179    2
    91    69    66    1
    92    69    70    1
    93   178   175    1
    94   178   179    1
    95   132   131    1
    96   132   139   am
    97   175   174    1
    98   131   134    1
    99   179   181   am
   100    71    70    1
   101    71    72    1
   102   134   135    1
   103    56    57    1
   104    56    55    1
   105    66    67    1
   106    73    72    1
   107    53    52    1
   108    53    54    2
   109   140   139    1
   110   140   141    1
   111   140   143    1
   112    52    55    1
   113    52    51    1
   114    26    24    1
   115   141   142    2
   116    49    48    1
   117   159   158    2
   118   174   167   am
   119   156   157    1
   120   135   136    1
   121   137   136    2
   122   136   138   am
   123   143   144    1
   124   168   167    2
   125   167   166    1
   126   158   157    1
   127    50    48    1
   128   157   160    1
   129    48    45    1
   130    24    23    1
   131    45    46    1
   132    45    44    1
   133   144   145   ar
   134   144   146   ar
   135   165   166    1
   136   166   169    1
   137    25    23    1
   138    46    47    2
   139   161   160    1
   140   161   162    1
   141    23    20    1
   142     9     7   ar
   143     4     3    2
   144   169   170    1
   145   163   162    1
   146   163   164    1
   147     1     2    1
   148   149   148    1
   149   149   150    2
   150   147   148    1
   151   151   148    1
   152   151   152    1
   153   153   154    1
   154   153   152    1
   155   155   154    1
   156    20    21    1
   157    20    19    1
   158     6     7    1
   159     6     5    1
   160     7     8   ar
   161    22    21    2
   162    21    27    1
   163    19    12   am
   164     3     2    1
   165     3    10   am
   166    27    28    2
   167     2     5    1
   168   172   171    2
   169   170   171    1
   170    28    29    1
   171    41    40    1
   172    41    42    1
   173    12    11    1
   174    12    13    2
   175    30    29    2
   176   171   173   am
   177    40    33   am
   178    29    31   am
   179    42    43    2
   180    10    11    1
   181    11    14    1
   182    31    32    1
   183    33    32    1
   184    33    34    2
   185    32    35    1
   186    14    15    1
   187    15    16    1
   188    35    36    1
   189    36    37    1
   190    16    17    1
   191    17    18    1
   192    37    38   ar
   193    37    39   ar
