@<TRIPOS>MOLECULE
tmp/3sw8A00.pdb
 122 117 0 0 0
SMALL
GASTEIGER

@<TRIPOS>ATOM
      1  N         26.7130   -8.5450   -3.8550 N.3    67  ARG67      -0.1231
      2  CA        26.2750   -8.9540   -2.5270 C.3    67  ARG67       0.1694
      3  C         25.4900   -7.7900   -1.9400 C.2    67  ARG67       0.2593
      4  O         25.8700   -6.6330   -2.1240 O.2    67  ARG67      -0.2718
      5  CB        27.4800   -9.2340   -1.6260 C.3    67  ARG67       0.0321
      6  CG        28.1300  -10.5980   -1.7980 C.3    67  ARG67       0.0489
      7  CD        28.4600  -11.1960   -0.4300 C.3    67  ARG67       0.2205
      8  NE        29.8010  -10.8580    0.0500 N.pl3  67  ARG67      -0.0865
      9  CZ        30.1240  -10.7120    1.3350 C.cat  67  ARG67       0.5346
     10  NH1       29.2000  -10.8440    2.2770 N.pl3  67  ARG67       0.1354
     11  NH2       31.3720  -10.4180    1.6830 N.pl3  67  ARG67       0.1354
     12  N         24.4110   -8.0890   -1.2280 N.am   68  GLY68      -0.1942
     13  CA        23.6090   -7.0510   -0.5970 C.3    68  GLY68       0.2014
     14  C         24.3400   -6.3190    0.5180 C.2    68  GLY68       0.2639
     15  O         25.1390   -6.9020    1.2490 O.2    68  GLY68      -0.2714
     16  N         24.0660   -5.0260    0.6500 N.am   69  GLY69      -0.1939
     17  CA        24.6320   -4.2390    1.7310 C.3    69  GLY69       0.2014
     18  C         23.6460   -3.2120    2.2450 C.2    69  GLY69       0.2639
     19  O         22.7860   -2.7590    1.4930 O.2    69  GLY69      -0.2714
     20  N         23.7560   -2.8560    3.5300 N.am   70  VAL70      -0.1963
     21  CA        22.9350   -1.7870    4.0920 C.3    70  VAL70       0.1727
     22  C         23.7830   -0.5720    4.4550 C.2    70  VAL70       0.2616
     23  O         23.2680    0.4110    4.9650 O.2    70  VAL70      -0.2715
     24  CB        22.1270   -2.2350    5.3420 C.3    70  VAL70       0.0290
     25  CG1       21.0230   -3.2290    4.9370 C.3    70  VAL70       0.0023
     26  CG2       23.0590   -2.8180    6.4180 C.3    70  VAL70       0.0023
     27  N         25.0800   -0.6620    4.1700 N.am   71  GLY71      -0.1955
     28  CA        26.0070    0.4390    4.3660 C.3    71  GLY71       0.1869
     29  C         27.2730    0.2480    3.5460 C.2    71  GLY71       0.2309
     30  O         27.5790   -0.8700    3.1140 O.2    71  GLY71      -0.2863
     31  N         36.3240    1.3100    1.6550 N.3    76  GLN76      -0.1245
     32  CA        36.0570    0.0500    0.9760 C.3    76  GLN76       0.1566
     33  C         36.2690    0.1560   -0.5260 C.2    76  GLN76       0.2260
     34  O         36.3700   -0.8620   -1.2020 O.2    76  GLN76      -0.2867
     35  CB        34.6460   -0.4250    1.2450 C.3    76  GLN76       0.0367
     36  CG        34.4160   -0.7560    2.7370 C.3    76  GLN76       0.0905
     37  CD        33.0420   -1.3110    2.9800 C.2    76  GLN76       0.2608
     38  OE1       32.0760   -0.5600    3.1590 O.2    76  GLN76      -0.2717
     39  NE2       32.9310   -2.6330    2.9690 N.am   76  GLN76      -0.0878
     40  N         23.6280   -7.4940   16.9400 N.3   115  LEU115     -0.1245
     41  CA        22.7000   -8.2740   16.1370 C.3   115  LEU115      0.1561
     42  C         22.8500   -9.7460   16.5090 C.2   115  LEU115      0.2260
     43  O         23.9700  -10.2640   16.5910 O.2   115  LEU115     -0.2867
     44  CB        23.0000   -8.0820   14.6460 C.3   115  LEU115      0.0270
     45  CG        22.8410   -6.6670   14.0910 C.3   115  LEU115      0.0019
     46  CD1       23.2330   -6.6300   12.6090 C.3   115  LEU115      0.0001
     47  CD2       21.4220   -6.1640   14.2870 C.3   115  LEU115      0.0001
     48  N         24.7260  -11.7920   14.0240 N.3   118  GLY118     -0.1210
     49  CA        26.0920  -11.3880   13.7580 C.3   118  GLY118      0.1956
     50  C         26.1320  -10.3820   12.6210 C.2   118  GLY118      0.2612
     51  O         25.1020   -9.8360   12.2440 O.2   118  GLY118     -0.2717
     52  N         27.3230  -10.1230   12.0950 N.am  119  GLU119     -0.1965
     53  CA        27.4700   -9.1920   10.9770 C.3   119  GLU119      0.1733
     54  C         28.3130   -9.8100    9.8700 C.2   119  GLU119      0.2617
     55  O         29.0380  -10.7770   10.0890 O.2   119  GLU119     -0.2715
     56  CB        28.1260   -7.8840   11.4400 C.3   119  GLU119      0.0429
     57  CG        27.3680   -7.1550   12.5640 C.3   119  GLU119      0.1163
     58  CD        27.9470   -5.7840   12.8900 C.2   119  GLU119      0.3649
     59  OE1       28.8230   -5.3060   12.1370 O.co2 119  GLU119     -0.2457
     60  OE2       27.5150   -5.1800   13.9050 O.co2 119  GLU119     -0.2457
     61  N         28.2090   -9.2340    8.6780 N.am  120  GLY120     -0.1940
     62  CA        29.1110   -9.5570    7.5940 C.3   120  GLY120      0.2014
     63  C         29.5900   -8.2620    6.9600 C.2   120  GLY120      0.2639
     64  O         29.0750   -7.1900    7.2910 O.2   120  GLY120     -0.2714
     65  N         30.5510   -8.3660    6.0420 N.am  121  CYS121     -0.1953
     66  CA        31.2040   -7.1990    5.4390 C.3   121  CYS121      0.1843
     67  C         31.5500   -7.5060    3.9910 C.2   121  CYS121      0.2625
     68  O         32.0120   -8.6000    3.6880 O.2   121  CYS121     -0.2714
     69  CB        32.4890   -6.8770    6.2070 C.3   121  CYS121      0.0997
     70  SG        33.2900   -5.2780    5.8720 S.3   121  CYS121     -0.0797
     71  N         31.3390   -6.5480    3.0940 N.am  122  LEU122     -0.1977
     72  CA        31.6510   -6.7770    1.6790 C.3   122  LEU122      0.1596
     73  C         33.1460   -6.9610    1.4210 C.2   122  LEU122      0.2287
     74  O         33.5450   -7.5330    0.3990 O.2   122  LEU122     -0.2864
     75  CB        31.1080   -5.6390    0.8130 C.3   122  LEU122      0.0297
     76  CG        29.5910   -5.5100    0.7510 C.3   122  LEU122      0.0022
     77  CD1       29.2060   -4.3410   -0.1380 C.3   122  LEU122      0.0001
     78  CD2       28.9630   -6.8020    0.2400 C.3   122  LEU122      0.0001
     79  N         23.4900    0.1510   14.8560 N.3   160  ILE160     -0.1231
     80  CA        24.5100   -0.8470   14.5440 C.3   160  ILE160      0.1692
     81  C         25.1710   -0.5480   13.2000 C.2   160  ILE160      0.2591
     82  O         26.4030   -0.5630   13.0640 O.2   160  ILE160     -0.2718
     83  CB        23.8870   -2.2620   14.5070 C.3   160  ILE160      0.0266
     84  CG1       23.2990   -2.6310   15.8730 C.3   160  ILE160      0.0019
     85  CG2       24.9250   -3.3040   14.1000 C.3   160  ILE160      0.0020
     86  CD1       24.3310   -2.8190   16.9230 C.3   160  ILE160      0.0001
     87  N         24.3460   -0.2660   12.2010 N.am  161  VAL161     -0.1980
     88  CA        24.8540   -0.0710   10.8470 C.3   161  VAL161      0.1595
     89  C         25.7610    1.1570   10.7520 C.2   161  VAL161      0.2287
     90  O         26.8300    1.1120   10.1630 O.2   161  VAL161     -0.2864
     91  CB        23.7080    0.0790    9.8520 C.3   161  VAL161      0.0276
     92  CG1       24.2440    0.4870    8.4710 C.3   161  VAL161      0.0022
     93  CG2       22.9310   -1.2290    9.7480 C.3   161  VAL161      0.0022
     94  N         29.0710    0.4500   12.2780 N.3   164  HIS164     -0.1226
     95  CA        29.8660   -0.4150   11.4080 C.3   164  HIS164      0.1752
     96  C         30.5880    0.4400   10.3500 C.2   164  HIS164      0.2595
     97  O         31.7890    0.2830   10.1180 O.2   164  HIS164     -0.2718
     98  CB        28.9550   -1.4830   10.7870 C.3   164  HIS164      0.0759
     99  CG        29.6420   -2.4060    9.8270 C.ar  164  HIS164      0.0818
    100  ND1       29.5790   -3.7780    9.9470 N.ar  164  HIS164     -0.2268
    101  CD2       30.3650   -2.1590    8.7080 C.ar  164  HIS164      0.1154
    102  CE1       30.2490   -4.3370    8.9540 C.ar  164  HIS164      0.1986
    103  NE2       30.7410   -3.3770    8.1920 N.ar  164  HIS164     -0.2212
    104  N         29.8760    1.3970    9.7570 N.am  165  GLU165     -0.1979
    105  CA        30.4830    2.2340    8.7190 C.3   165  GLU165      0.1602
    106  C         31.4920    3.2200    9.3120 C.2   165  GLU165      0.2287
    107  O         32.5510    3.4700    8.7440 O.2   165  GLU165     -0.2864
    108  CB        29.4210    2.9860    7.9000 C.3   165  GLU165      0.0415
    109  CG        28.3520    2.0970    7.2320 C.3   165  GLU165      0.1163
    110  CD        28.9100    0.8430    6.5630 C.2   165  GLU165      0.3649
    111  OE1       30.0570    0.8560    6.0820 O.co2 165  GLU165     -0.2457
    112  OE2       28.1780   -0.1640    6.5150 O.co2 165  GLU165     -0.2457
    113  N         34.7920    1.5730    9.7500 N.3   168  HIS168     -0.1241
    114  CA        35.6230    1.5540    8.5390 C.3   168  HIS168      0.1621
    115  C         36.4950    2.7770    8.3730 C.2   168  HIS168      0.2264
    116  O         37.6540    2.6680    7.9750 O.2   168  HIS168     -0.2867
    117  CB        34.7830    1.3910    7.2700 C.3   168  HIS168      0.0745
    118  CG        34.3700   -0.0170    6.9960 C.ar  168  HIS168      0.0817
    119  ND1       35.2680   -1.0610    6.9610 N.ar  168  HIS168     -0.2268
    120  CD2       33.1530   -0.5600    6.7630 C.ar  168  HIS168      0.1154
    121  CE1       34.6250   -2.1850    6.6930 C.ar  168  HIS168      0.1986
    122  NE2       33.3410   -1.9060    6.5680 N.ar  168  HIS168     -0.2212
@<TRIPOS>BOND
     1     1     2    1
     2     2     3    1
     3     2     5    1
     4     4     3    2
     5     3    12   am
     6     6     5    1
     7     6     7    1
     8    12    13    1
     9    34    33    2
    10    13    14    1
    11    33    32    1
    12     7     8    1
    13    77    76    1
    14     8     9    2
    15    78    76    1
    16    74    73    2
    17    14    16   am
    18    14    15    2
    19    16    17    1
    20    76    75    1
    21    75    72    1
    22    32    35    1
    23    32    31    1
    24    35    36    1
    25     9    11    1
    26     9    10    1
    27    73    72    1
    28    19    18    2
    29    72    71    1
    30    17    18    1
    31    18    20   am
    32    36    37    1
    33    39    37   am
    34    37    38    2
    35    71    67   am
    36    30    29    2
    37    20    21    1
    38    29    28    1
    39    68    67    2
    40    67    66    1
    41    21    22    1
    42    21    24    1
    43    27    28    1
    44    27    22   am
    45    22    23    2
    46    25    24    1
    47    24    26    1
    48    66    65    1
    49    66    69    1
    50    70    69    1
    51    65    63   am
    52   111   110   ar
    53   112   110   ar
    54   110   109    1
    55   122   121   ar
    56   122   120   ar
    57   121   119   ar
    58   120   118   ar
    59    63    64    2
    60    63    62    1
    61   119   118   ar
    62   118   117    1
    63   109   108    1
    64   117   114    1
    65    62    61    1
    66   108   105    1
    67   116   115    2
    68   103   101   ar
    69   103   102   ar
    70   115   114    1
    71    92    91    1
    72   114   113    1
    73    61    54   am
    74   101    99   ar
    75   105   106    1
    76   105   104    1
    77   107   106    2
    78   102   100   ar
    79    93    91    1
    80   104    96   am
    81    99   100   ar
    82    99    98    1
    83    91    88    1
    84    54    55    2
    85    54    53    1
    86    97    96    2
    87    90    89    2
    88    96    95    1
    89    89    88    1
    90    98    95    1
    91    88    87    1
    92    53    56    1
    93    53    52    1
    94    95    94    1
    95    56    57    1
    96    52    50   am
    97    59    58   ar
    98    87    81   am
    99    51    50    2
   100    57    58    1
   101    46    45    1
   102    50    49    1
   103    58    60   ar
   104    82    81    2
   105    81    80    1
   106    49    48    1
   107    45    47    1
   108    45    44    1
   109    85    83    1
   110    83    80    1
   111    83    84    1
   112    80    79    1
   113    44    41    1
   114    84    86    1
   115    41    42    1
   116    41    40    1
   117    42    43    2
