@<TRIPOS>MOLECULE
tmp/3sw9C01.pdb
 218 220 0 0 0
SMALL
GASTEIGER

@<TRIPOS>ATOM
      1  N          5.3310   15.2040  -16.1370 N.3   127  ARG127     -0.1245
      2  CA         5.8370   16.5260  -16.4140 C.3   127  ARG127      0.1563
      3  C          4.8040   17.5440  -15.9760 C.2   127  ARG127      0.2260
      4  O          3.6730   17.5180  -16.4460 O.2   127  ARG127     -0.2867
      5  CB         6.1240   16.6710  -17.8980 C.3   127  ARG127      0.0307
      6  CG         6.8910   17.9160  -18.2360 C.3   127  ARG127      0.0489
      7  CD         8.2830   17.8990  -17.6420 C.3   127  ARG127      0.2205
      8  NE         8.9710   19.1620  -17.8980 N.pl3 127  ARG127     -0.0865
      9  CZ        10.2720   19.3620  -17.7040 C.cat 127  ARG127      0.5346
     10  NH1       11.0360   18.3780  -17.2460 N.pl3 127  ARG127      0.1354
     11  NH2       10.8120   20.5460  -17.9670 N.pl3 127  ARG127      0.1354
     12  N          7.1040   23.3370  -12.3710 N.3   131  MET131     -0.1230
     13  CA         8.1640   22.7630  -11.5240 C.3   131  MET131      0.1702
     14  C          8.9990   21.6930  -12.2270 C.2   131  MET131      0.2593
     15  O          9.8880   21.0820  -11.6210 O.2   131  MET131     -0.2718
     16  CB         7.5630   22.1660  -10.2450 C.3   131  MET131      0.0401
     17  CG         7.1480   23.1900   -9.2060 C.3   131  MET131      0.0596
     18  SD         5.8850   22.5710   -8.0780 S.3   131  MET131     -0.1393
     19  CE         4.4210   22.6470   -9.1200 C.3   131  MET131      0.0692
     20  N          8.7150   21.4690  -13.5040 N.am  132  GLY132     -0.1942
     21  CA         9.4560   20.4820  -14.2560 C.3   132  GLY132      0.2014
     22  C          8.8450   19.1390  -13.9690 C.2   132  GLY132      0.2638
     23  O          7.6300   19.0140  -14.0210 O.2   132  GLY132     -0.2714
     24  N          9.6660   18.1420  -13.6540 N.am  133  TRP133     -0.1973
     25  CA         9.1350   16.8180  -13.3370 C.3   133  TRP133      0.1640
     26  C          8.4990   16.7770  -11.9570 C.2   133  TRP133      0.2290
     27  O          8.8910   17.5230  -11.0390 O.2   133  TRP133     -0.2864
     28  CB        10.2010   15.7270  -13.4890 C.3   133  TRP133      0.0576
     29  CG        10.6400   15.5560  -14.9210 C.ar  133  TRP133      0.0006
     30  CD1       11.7970   16.0170  -15.4930 C.ar  133  TRP133      0.0946
     31  CD2        9.9080   14.9070  -15.9730 C.ar  133  TRP133      0.0152
     32  NE1       11.8340   15.6780  -16.8220 N.ar  133  TRP133     -0.2442
     33  CE2       10.6860   15.0030  -17.1430 C.ar  133  TRP133      0.0810
     34  CE3        8.6720   14.2510  -16.0350 C.ar  133  TRP133      0.0012
     35  CZ2       10.2720   14.4620  -18.3560 C.ar  133  TRP133      0.0191
     36  CZ3        8.2630   13.7160  -17.2370 C.ar  133  TRP133      0.0001
     37  CH2        9.0610   13.8240  -18.3830 C.ar  133  TRP133      0.0015
     38  N         13.1650    8.0790    0.5980 N.3   150  TYR150     -0.1241
     39  CA        14.0680    8.9850   -0.0950 C.3   150  TYR150      0.1605
     40  C         15.4060    8.3100   -0.2440 C.2   150  TYR150      0.2264
     41  O         16.1930    8.2600    0.6930 O.2   150  TYR150     -0.2867
     42  CB        14.2290   10.3100    0.6350 C.3   150  TYR150      0.0534
     43  CG        14.9040   11.3650   -0.2210 C.ar  150  TYR150     -0.0201
     44  CD1       14.1510   12.2360   -1.0090 C.ar  150  TYR150     -0.0009
     45  CD2       16.2930   11.4820   -0.2550 C.ar  150  TYR150     -0.0009
     46  CE1       14.7630   13.2020   -1.8050 C.ar  150  TYR150      0.0417
     47  CE2       16.9120   12.4450   -1.0490 C.ar  150  TYR150      0.0417
     48  CZ        16.1380   13.2970   -1.8190 C.ar  150  TYR150      0.1957
     49  OH        16.7410   14.2480   -2.5990 O.3   150  TYR150     -0.2866
     50  N         20.2620   20.4500   -5.5770 N.3   167  SER167     -0.1202
     51  CA        18.8270   20.3030   -5.7300 C.3   167  SER167      0.2020
     52  C         18.3190   18.9470   -5.2550 C.2   167  SER167      0.2618
     53  O         17.1120   18.7400   -5.1820 O.2   167  SER167     -0.2717
     54  CB        18.4130   20.5350   -7.1820 C.3   167  SER167      0.2103
     55  OG        18.3670   21.9230   -7.4740 O.3   167  SER167     -0.2182
     56  N         19.2240   18.0270   -4.9280 N.am  168  TYR168     -0.1975
     57  CA        18.8060   16.6740   -4.5660 C.3   168  TYR168      0.1639
     58  C         19.3570   16.1800   -3.2580 C.2   168  TYR168      0.2290
     59  O         19.4580   14.9820   -3.0480 O.2   168  TYR168     -0.2864
     60  CB        19.1750   15.6970   -5.6650 C.3   168  TYR168      0.0560
     61  CG        18.4800   16.0340   -6.9420 C.ar  168  TYR168     -0.0198
     62  CD1       17.1800   15.6060   -7.1740 C.ar  168  TYR168     -0.0009
     63  CD2       19.1020   16.8130   -7.9080 C.ar  168  TYR168     -0.0009
     64  CE1       16.5250   15.9230   -8.3430 C.ar  168  TYR168      0.0417
     65  CE2       18.4530   17.1370   -9.0740 C.ar  168  TYR168      0.0417
     66  CZ        17.1670   16.6860   -9.2870 C.ar  168  TYR168      0.1957
     67  OH        16.5120   17.0050  -10.4430 O.3   168  TYR168     -0.2866
     68  N         11.8070    9.4070   -5.4010 N.3   191  SER191     -0.1202
     69  CA        11.5830   10.5260   -4.4900 C.3   191  SER191      0.2020
     70  C         12.3850   11.7930   -4.8520 C.2   191  SER191      0.2619
     71  O         12.0010   12.9140   -4.4910 O.2   191  SER191     -0.2717
     72  CB        11.8490   10.0870   -3.0540 C.3   191  SER191      0.2103
     73  OG        11.4720    8.7360   -2.8770 O.3   191  SER191     -0.2182
     74  N         13.4870   11.6190   -5.5780 N.am  192  ARG192     -0.1965
     75  CA        14.2880   12.7680   -6.0160 C.3   192  ARG192      0.1729
     76  C         13.4440   13.7540   -6.8420 C.2   192  ARG192      0.2616
     77  O         13.7730   14.9430   -6.9820 O.2   192  ARG192     -0.2715
     78  CB        15.5080   12.2990   -6.8160 C.3   192  ARG192      0.0348
     79  CG        15.1590   11.7030   -8.1560 C.3   192  ARG192      0.0492
     80  CD        16.3620   11.0000   -8.7920 C.3   192  ARG192      0.2205
     81  NE        17.5030   11.8770   -9.0740 N.pl3 192  ARG192     -0.0865
     82  CZ        17.6080   12.6660  -10.1450 C.cat 192  ARG192      0.5346
     83  NH1       16.6310   12.7200  -11.0370 N.pl3 192  ARG192      0.1354
     84  NH2       18.6880   13.4110  -10.3240 N.pl3 192  ARG192      0.1354
     85  N         12.3400   13.2390   -7.3670 N.am  193  PHE193     -0.1960
     86  CA        11.4830   13.9960   -8.2520 C.3   193  PHE193      0.1771
     87  C         10.3240   14.6390   -7.5140 C.2   193  PHE193      0.2619
     88  O          9.6890   15.5440   -8.0340 O.2   193  PHE193     -0.2715
     89  CB        10.9570   13.0820   -9.3620 C.3   193  PHE193      0.0574
     90  CG        12.0220   12.6270  -10.3380 C.ar  193  PHE193     -0.0200
     91  CD1       12.7670   13.5540  -11.0630 C.ar  193  PHE193     -0.0042
     92  CD2       12.2650   11.2790  -10.5480 C.ar  193  PHE193     -0.0042
     93  CE1       13.7430   13.1400  -11.9690 C.ar  193  PHE193     -0.0003
     94  CE2       13.2360   10.8640  -11.4540 C.ar  193  PHE193     -0.0003
     95  CZ        13.9740   11.7940  -12.1660 C.ar  193  PHE193     -0.0000
     96  N         10.0510   14.1670   -6.3030 N.am  194  ILE194     -0.1963
     97  CA         8.9650   14.7050   -5.4740 C.3   194  ILE194      0.1727
     98  C          9.2050   16.1520   -5.1090 C.2   194  ILE194      0.2616
     99  O         10.2370   16.4670   -4.5250 O.2   194  ILE194     -0.2715
    100  CB         8.8390   13.9320   -4.1520 C.3   194  ILE194      0.0290
    101  CG1        8.3280   12.5130   -4.4120 C.3   194  ILE194      0.0022
    102  CG2        7.9600   14.7070   -3.1480 C.3   194  ILE194      0.0023
    103  CD1        8.1840   11.6820   -3.1640 C.3   194  ILE194      0.0001
    104  N          8.2530   17.0240   -5.4340 N.am  195  ASN195     -0.1958
    105  CA         8.4420   18.4650   -5.2230 C.3   195  ASN195      0.1819
    106  C          8.0960   18.9570   -3.8200 C.2   195  ASN195      0.2621
    107  O          7.7040   18.1740   -2.9500 O.2   195  ASN195     -0.2715
    108  CB         7.6730   19.2830   -6.2580 C.3   195  ASN195      0.1195
    109  CG         8.2610   19.1670   -7.6460 C.2   195  ASN195      0.2630
    110  OD1        9.4350   19.4610   -7.8550 O.2   195  ASN195     -0.2716
    111  ND2        7.4420   18.7430   -8.6070 N.am  195  ASN195     -0.0877
    112  N          8.2620   20.2600   -3.6080 N.am  196  HIS196     -0.1973
    113  CA         7.9390   20.8660   -2.3170 C.3   196  HIS196      0.1656
    114  C          6.5730   21.5490   -2.2780 C.2   196  HIS196      0.2291
    115  O          6.1330   22.1650   -3.2520 O.2   196  HIS196     -0.2864
    116  CB         8.9810   21.8910   -1.8820 C.3   196  HIS196      0.0771
    117  CG         8.4410   22.8840   -0.9050 C.ar  196  HIS196      0.0820
    118  ND1        8.3210   22.6120    0.4410 N.ar  196  HIS196     -0.2267
    119  CD2        7.9280   24.1220   -1.0850 C.ar  196  HIS196      0.1154
    120  CE1        7.7860   23.6530    1.0540 C.ar  196  HIS196      0.1986
    121  NE2        7.5350   24.5820    0.1500 N.ar  196  HIS196     -0.2212
    122  N          6.3330   17.3580   -0.1830 N.3   235  PHE235     -0.1241
    123  CA         6.7070   17.4060    1.2190 C.3   235  PHE235      0.1605
    124  C          7.3990   18.7350    1.4940 C.2   235  PHE235      0.2264
    125  O          7.8200   19.4180    0.5690 O.2   235  PHE235     -0.2867
    126  CB         7.5490   16.1730    1.6360 C.3   235  PHE235      0.0534
    127  CG         9.0090   16.2140    1.1940 C.ar  235  PHE235     -0.0203
    128  CD1        9.9880   16.7680    2.0210 C.ar  235  PHE235     -0.0042
    129  CD2        9.4030   15.6740   -0.0230 C.ar  235  PHE235     -0.0042
    130  CE1       11.3230   16.8080    1.6310 C.ar  235  PHE235     -0.0003
    131  CE2       10.7390   15.7190   -0.4200 C.ar  235  PHE235     -0.0003
    132  CZ        11.6960   16.2870    0.4060 C.ar  235  PHE235     -0.0000
    133  N         10.2620   20.8730    2.1310 N.3   237  TYR237     -0.1241
    134  CA        11.7160   20.7920    2.0120 C.3   237  TYR237      0.1605
    135  C         12.3990   21.4370    3.2090 C.2   237  TYR237      0.2264
    136  O         13.5320   21.0990    3.5360 O.2   237  TYR237     -0.2867
    137  CB        12.2100   21.4870    0.7540 C.3   237  TYR237      0.0534
    138  CG        11.9440   20.7760   -0.5500 C.ar  237  TYR237     -0.0201
    139  CD1       11.1650   19.6280   -0.6160 C.ar  237  TYR237     -0.0009
    140  CD2       12.4780   21.2730   -1.7260 C.ar  237  TYR237     -0.0009
    141  CE1       10.9290   19.0090   -1.8250 C.ar  237  TYR237      0.0417
    142  CE2       12.2620   20.6660   -2.9210 C.ar  237  TYR237      0.0417
    143  CZ        11.4910   19.5430   -2.9790 C.ar  237  TYR237      0.1957
    144  OH        11.3130   18.9740   -4.2180 O.3   237  TYR237     -0.2866
    145  N         16.4550   24.6440    3.1060 N.3   241  PHE241     -0.1227
    146  CA        16.3160   24.6520    1.6480 C.3   241  PHE241      0.1736
    147  C         15.9580   26.0310    1.1040 C.2   241  PHE241      0.2595
    148  O         16.5050   26.4780    0.0900 O.2   241  PHE241     -0.2718
    149  CB        15.2670   23.6390    1.1700 C.3   241  PHE241      0.0547
    150  CG        15.1870   23.5300   -0.3260 C.ar  241  PHE241     -0.0202
    151  CD1       15.9930   22.6290   -1.0160 C.ar  241  PHE241     -0.0042
    152  CD2       14.3390   24.3510   -1.0540 C.ar  241  PHE241     -0.0042
    153  CE1       15.9360   22.5370   -2.4060 C.ar  241  PHE241     -0.0003
    154  CE2       14.2760   24.2630   -2.4440 C.ar  241  PHE241     -0.0003
    155  CZ        15.0750   23.3560   -3.1180 C.ar  241  PHE241     -0.0000
    156  N         15.0400   26.7010    1.7910 N.am  242  TRP242     -0.1976
    157  CA        14.4790   27.9480    1.2960 C.3   242  TRP242      0.1640
    158  C         15.2840   29.2030    1.6240 C.2   242  TRP242      0.2290
    159  O         15.3940   30.0810    0.7700 O.2   242  TRP242     -0.2864
    160  CB        13.0240   28.0770    1.7180 C.3   242  TRP242      0.0576
    161  CG        12.1610   27.2050    0.8880 C.ar  242  TRP242      0.0006
    162  CD1       11.5120   26.0660    1.2800 C.ar  242  TRP242      0.0946
    163  CD2       11.8800   27.3660   -0.5090 C.ar  242  TRP242      0.0152
    164  NE1       10.8290   25.5230    0.2160 N.ar  242  TRP242     -0.2442
    165  CE2       11.0380   26.3040   -0.8910 C.ar  242  TRP242      0.0810
    166  CE3       12.2530   28.3110   -1.4690 C.ar  242  TRP242      0.0012
    167  CZ2       10.5630   26.1660   -2.1880 C.ar  242  TRP242      0.0191
    168  CZ3       11.7810   28.1700   -2.7490 C.ar  242  TRP242      0.0001
    169  CH2       10.9480   27.1070   -3.1010 C.ar  242  TRP242      0.0015
    170  N         17.6840   28.5900   -1.3640 N.3   245  LYS245     -0.1245
    171  CA        17.1570   28.5690   -2.7270 C.3   245  LYS245      0.1561
    172  C         16.0690   29.6180   -2.9970 C.2   245  LYS245      0.2260
    173  O         15.7730   29.9170   -4.1560 O.2   245  LYS245     -0.2867
    174  CB        16.6740   27.1630   -3.0990 C.3   245  LYS245      0.0271
    175  CG        17.8060   26.1770   -3.4070 C.3   245  LYS245      0.0035
    176  CD        17.9700   26.0020   -4.9090 C.3   245  LYS245      0.0206
    177  CE        19.1670   25.1390   -5.2610 C.3   245  LYS245      0.1093
    178  NZ        19.2040   24.8980   -6.7370 N.3   245  LYS245     -0.1314
    179  N         14.4140   31.6630   -6.8640 N.3   249  PHE249     -0.1227
    180  CA        13.0480   31.4930   -7.3280 C.3   249  PHE249      0.1736
    181  C         12.2320   31.3300   -6.0730 C.2   249  PHE249      0.2596
    182  O         12.7780   31.0380   -5.0050 O.2   249  PHE249     -0.2718
    183  CB        12.9050   30.2460   -8.2030 C.3   249  PHE249      0.0547
    184  CG        13.4490   29.0050   -7.5620 C.ar  249  PHE249     -0.0202
    185  CD1       12.6200   28.1620   -6.8370 C.ar  249  PHE249     -0.0042
    186  CD2       14.8030   28.6900   -7.6640 C.ar  249  PHE249     -0.0042
    187  CE1       13.1260   27.0220   -6.2310 C.ar  249  PHE249     -0.0003
    188  CE2       15.3230   27.5560   -7.0640 C.ar  249  PHE249     -0.0003
    189  CZ        14.4830   26.7190   -6.3460 C.ar  249  PHE249     -0.0000
    190  N         10.9270   31.5300   -6.2080 N.am  250  SER250     -0.1938
    191  CA        10.0100   31.4020   -5.0890 C.3   250  SER250      0.2055
    192  C          9.2510   30.0900   -5.2010 C.2   250  SER250      0.2643
    193  O          9.4720   29.3160   -6.1350 O.2   250  SER250     -0.2714
    194  CB         9.0340   32.5820   -5.0670 C.3   250  SER250      0.2130
    195  OG         9.7310   33.8110   -4.9430 O.3   250  SER250     -0.2179
    196  N          8.3500   29.8450   -4.2550 N.am  251  CYS251     -0.1953
    197  CA         7.6030   28.5890   -4.2280 C.3   251  CYS251      0.1843
    198  C          6.3600   28.5920   -5.1200 C.2   251  CYS251      0.2625
    199  O          5.4150   29.3450   -4.8840 O.2   251  CYS251     -0.2714
    200  CB         7.2170   28.2140   -2.7970 C.3   251  CYS251      0.0997
    201  SG         6.1570   26.7770   -2.7860 S.3   251  CYS251     -0.0797
    202  N          6.3570   27.7290   -6.1300 N.am  252  ARG252     -0.1963
    203  CA         5.2280   27.6280   -7.0490 C.3   252  ARG252      0.1729
    204  C          4.2520   26.4840   -6.7500 C.2   252  ARG252      0.2616
    205  O          3.6100   25.9480   -7.6540 O.2   252  ARG252     -0.2715
    206  CB         5.7260   27.5590   -8.4920 C.3   252  ARG252      0.0348
    207  CG         6.0280   28.9360   -9.0610 C.3   252  ARG252      0.0492
    208  CD         6.3540   28.9070  -10.5520 C.3   252  ARG252      0.2205
    209  NE         7.6400   28.2660  -10.8340 N.pl3 252  ARG252     -0.0865
    210  CZ         8.8010   28.6290  -10.2880 C.cat 252  ARG252      0.5346
    211  NH1        8.8520   29.6310   -9.4090 N.pl3 252  ARG252      0.1354
    212  NH2        9.9160   27.9840  -10.6160 N.pl3 252  ARG252      0.1354
    213  N          4.1290   26.1370   -5.4720 N.am  253  CYS253     -0.1968
    214  CA         3.2140   25.0790   -5.0500 C.3   253  CYS253      0.1712
    215  C          1.7640   25.5500   -5.1090 C.2   253  CYS253      0.2296
    216  O          0.8390   24.7470   -4.9950 O.2   253  CYS253     -0.2864
    217  CB         3.5460   24.5960   -3.6380 C.3   253  CYS253      0.0983
    218  SG         2.9960   25.6780   -2.3110 S.3   253  CYS253     -0.0798
@<TRIPOS>BOND
     1    37    35   ar
     2    37    36   ar
     3    35    33   ar
     4     6     5    1
     5     6     7    1
     6    11     9    1
     7     5     2    1
     8     8     9    2
     9     8     7    1
    10     9    10    1
    11    36    34   ar
    12    33    32   ar
    13    33    31   ar
    14    32    30   ar
    15     4     3    2
    16     2     1    1
    17     2     3    1
    18    34    31   ar
    19    31    29   ar
    20    30    29   ar
    21    29    28    1
    22    21    22    1
    23    21    20    1
    24    23    22    2
    25    22    24   am
    26    24    25    1
    27    20    14   am
    28    28    25    1
    29    25    26    1
    30    12    13    1
    31    14    15    2
    32    14    13    1
    33    95    93   ar
    34    95    94   ar
    35    93    91   ar
    36    26    27    2
    37    13    16    1
    38    94    92   ar
    39    91    90   ar
    40    83    82    1
    41   209   208    1
    42   209   210    2
    43   212   210    1
    44   208   207    1
    45    92    90   ar
    46    67    66    1
    47    90    89    1
    48    84    82    1
    49   210   211    1
    50    16    17    1
    51    82    81    2
    52    89    86    1
    53    66    65   ar
    54    66    64   ar
    55    17    18    1
    56    19    18    1
    57    65    63   ar
    58    81    80    1
    59   207   206    1
    60    80    79    1
    61   111   109   am
    62   206   203    1
    63    64    62   ar
    64    86    87    1
    65    86    85    1
    66   183   184    1
    67   183   180    1
    68    79    78    1
    69    88    87    2
    70    63    61   ar
    71   110   109    2
    72   186   184   ar
    73   186   188   ar
    74   205   204    2
    75   109   108    1
    76   184   185   ar
    77    87    96   am
    78    55    54    1
    79    85    76   am
    80   180   179    1
    81   180   181    1
    82    54    51    1
    83    62    61   ar
    84   188   189   ar
    85   203   204    1
    86   203   202    1
    87    77    76    2
    88    61    60    1
    89    76    75    1
    90   185   187   ar
    91    78    75    1
    92   204   213   am
    93   178   177    1
    94   189   187   ar
    95    96    97    1
    96   108   105    1
    97   190   181   am
    98   190   191    1
    99   193   192    2
   100   202   198   am
   101   181   182    2
   102    75    74    1
   103    51    50    1
   104    51    52    1
   105    60    57    1
   106    74    70   am
   107    97    98    1
   108    97   100    1
   109   213   214    1
   110   104   105    1
   111   104    98   am
   112    68    69    1
   113   177   176    1
   114    52    53    2
   115    52    56   am
   116   105   106    1
   117   192   191    1
   118   192   196   am
   119   198   199    2
   120   198   197    1
   121    98    99    2
   122   215   214    1
   123   215   216    2
   124   191   194    1
   125   194   195    1
   126   214   217    1
   127    56    57    1
   128   176   175    1
   129    70    71    2
   130    70    69    1
   131    57    58    1
   132    69    72    1
   133   101   100    1
   134   101   103    1
   135   196   197    1
   136   197   200    1
   137   144   143    1
   138   173   172    2
   139   100   102    1
   140   106   112   am
   141   106   107    2
   142   217   218    1
   143   112   113    1
   144   175   174    1
   145    58    59    2
   146   115   114    2
   147   155   154   ar
   148   155   153   ar
   149   169   168   ar
   150   169   167   ar
   151   174   171    1
   152    72    73    1
   153   172   171    1
   154   143   142   ar
   155   143   141   ar
   156   142   140   ar
   157   200   201    1
   158   168   166   ar
   159   171   170    1
   160    49    48    1
   161   154   152   ar
   162   153   151   ar
   163   113   114    1
   164   113   116    1
   165   167   165   ar
   166   116   117    1
   167   141   139   ar
   168    48    46   ar
   169    48    47   ar
   170    46    44   ar
   171   140   138   ar
   172   166   163   ar
   173   119   117   ar
   174   119   121   ar
   175   152   150   ar
   176    47    45   ar
   177   151   150   ar
   178    44    43   ar
   179   117   118   ar
   180   165   163   ar
   181   165   164   ar
   182   139   138   ar
   183   138   137    1
   184   163   161   ar
   185   131   129   ar
   186   131   132   ar
   187   150   149    1
   188    45    43   ar
   189    40    39    1
   190    40    41    2
   191    43    42    1
   192   122   123    1
   193    39    38    1
   194    39    42    1
   195   129   127   ar
   196   148   147    2
   197   121   120   ar
   198   164   162   ar
   199   132   130   ar
   200   118   120   ar
   201   125   124    2
   202   137   134    1
   203   159   158    2
   204   161   162   ar
   205   161   160    1
   206   147   146    1
   207   147   156   am
   208   149   146    1
   209   127   126    1
   210   127   128   ar
   211   123   124    1
   212   123   126    1
   213   157   158    1
   214   157   160    1
   215   157   156    1
   216   130   128   ar
   217   146   145    1
   218   134   133    1
   219   134   135    1
   220   135   136    2
