@<TRIPOS>MOLECULE
tmp/3swcA00.pdb
 234 231 0 0 0
SMALL
GASTEIGER

@<TRIPOS>ATOM
      1  N        -24.7870   21.0550    0.3370 N.3   150  TYR150     -0.1241
      2  CA       -25.4070   21.3260    1.6210 C.3   150  TYR150      0.1605
      3  C        -25.5910   20.0130    2.3580 C.2   150  TYR150      0.2264
      4  O        -26.5250   19.2520    2.1000 O.2   150  TYR150     -0.2867
      5  CB       -26.7430   22.0440    1.4840 C.3   150  TYR150      0.0534
      6  CG       -27.1960   22.6760    2.7780 C.ar  150  TYR150     -0.0201
      7  CD1      -26.8000   23.9590    3.1190 C.ar  150  TYR150     -0.0009
      8  CD2      -27.9850   21.9770    3.6770 C.ar  150  TYR150     -0.0009
      9  CE1      -27.2050   24.5450    4.3200 C.ar  150  TYR150      0.0417
     10  CE2      -28.3910   22.5580    4.8730 C.ar  150  TYR150      0.0417
     11  CZ       -27.9950   23.8410    5.1800 C.ar  150  TYR150      0.1957
     12  OH       -28.3930   24.4240    6.3590 O.3   150  TYR150     -0.2866
     13  N        -40.1800   15.5870    7.6180 N.3   157  ASP157     -0.1239
     14  CA       -41.0800   16.7380    7.7380 C.3   157  ASP157      0.1674
     15  C        -41.4420   17.0610    9.1900 C.2   157  ASP157      0.2266
     16  O        -41.1440   18.1510    9.6850 O.2   157  ASP157     -0.2867
     17  CB       -42.3660   16.4400    6.9550 C.3   157  ASP157      0.1410
     18  CG       -43.1490   17.7000    6.5810 C.2   157  ASP157      0.3668
     19  OD1      -44.3320   17.5680    6.1870 O.co2 157  ASP157     -0.2456
     20  OD2      -42.5900   18.8140    6.6590 O.co2 157  ASP157     -0.2456
     21  N        -38.7230   17.7540   11.6590 N.3   160  ALA160     -0.1231
     22  CA       -38.1530   19.0550   11.3830 C.3   160  ALA160      0.1694
     23  C        -39.0200   20.1550   11.9840 C.2   160  ALA160      0.2592
     24  O        -38.4990   21.1870   12.4180 O.2   160  ALA160     -0.2718
     25  CB       -37.9760   19.2510    9.8940 C.3   160  ALA160      0.0304
     26  N        -40.3360   19.9320   12.0160 N.am  161  ASP161     -0.1974
     27  CA       -41.2640   20.9190   12.5910 C.3   161  ASP161      0.1709
     28  C        -41.0450   21.1350   14.0860 C.2   161  ASP161      0.2293
     29  O        -41.4750   22.1470   14.6310 O.2   161  ASP161     -0.2864
     30  CB       -42.7350   20.5500   12.3290 C.3   161  ASP161      0.1436
     31  CG       -43.2480   21.0530   10.9740 C.2   161  ASP161      0.3671
     32  OD1      -42.7870   22.1140   10.4850 O.co2 161  ASP161     -0.2456
     33  OD2      -44.1310   20.3840   10.3940 O.co2 161  ASP161     -0.2456
     34  N        -33.4760   26.2760   14.5600 N.3   166  ASP166     -0.1225
     35  CA       -34.0080   26.1360   13.2200 C.3   166  ASP166      0.1805
     36  C        -33.3510   27.0420   12.1880 C.2   166  ASP166      0.2598
     37  O        -33.9760   27.3830   11.1830 O.2   166  ASP166     -0.2718
     38  CB       -35.5050   26.4340   13.2550 C.3   166  ASP166      0.1424
     39  CG       -35.8140   27.8310   13.7910 C.2   166  ASP166      0.3668
     40  OD1      -34.8710   28.5660   14.1530 O.co2 166  ASP166     -0.2456
     41  OD2      -37.0080   28.2020   13.8430 O.co2 166  ASP166     -0.2456
     42  N        -32.1040   27.4310   12.4270 N.am  167  SER167     -0.1938
     43  CA       -31.4270   28.3550   11.5290 C.3   167  SER167      0.2055
     44  C        -30.6120   27.6300   10.4590 C.2   167  SER167      0.2643
     45  O        -29.9540   28.2620    9.6280 O.2   167  SER167     -0.2714
     46  CB       -30.5270   29.2920   12.3270 C.3   167  SER167      0.2130
     47  OG       -31.1370   29.6440   13.5550 O.3   167  SER167     -0.2179
     48  N        -30.6710   26.3040   10.4770 N.am  168  TYR168     -0.1959
     49  CA       -29.8440   25.5030    9.6010 C.3   168  TYR168      0.1771
     50  C        -30.6260   24.4600    8.8040 C.2   168  TYR168      0.2619
     51  O        -30.0690   23.4410    8.4090 O.2   168  TYR168     -0.2715
     52  CB       -28.7720   24.8060   10.4260 C.3   168  TYR168      0.0574
     53  CG       -27.8760   25.7620   11.1510 C.ar  168  TYR168     -0.0198
     54  CD1      -26.8240   26.3670   10.4940 C.ar  168  TYR168     -0.0009
     55  CD2      -28.0780   26.0600   12.4940 C.ar  168  TYR168     -0.0009
     56  CE1      -25.9890   27.2430   11.1430 C.ar  168  TYR168      0.0417
     57  CE2      -27.2370   26.9480   13.1680 C.ar  168  TYR168      0.0417
     58  CZ       -26.1920   27.5330   12.4800 C.ar  168  TYR168      0.1957
     59  OH       -25.3360   28.4130   13.1040 O.3   168  TYR168     -0.2866
     60  N        -31.9010   24.7240    8.5470 N.am  169  LEU169     -0.1963
     61  CA       -32.7550   23.7530    7.8770 C.3   169  LEU169      0.1728
     62  C        -32.7850   23.9610    6.3830 C.2   169  LEU169      0.2616
     63  O        -32.8530   25.0910    5.9070 O.2   169  LEU169     -0.2715
     64  CB       -34.1750   23.8340    8.4190 C.3   169  LEU169      0.0311
     65  CG       -34.3110   23.4910    9.9080 C.3   169  LEU169      0.0022
     66  CD1      -35.7010   23.8380   10.4130 C.3   169  LEU169      0.0001
     67  CD2      -34.0080   22.0270   10.1450 C.3   169  LEU169      0.0001
     68  N        -32.7260   22.8620    5.6410 N.am  170  PHE170     -0.1960
     69  CA       -32.8720   22.9220    4.1960 C.3   170  PHE170      0.1771
     70  C        -33.9400   21.9420    3.7450 C.2   170  PHE170      0.2619
     71  O        -33.7720   20.7270    3.8410 O.2   170  PHE170     -0.2715
     72  CB       -31.5500   22.6490    3.4670 C.3   170  PHE170      0.0574
     73  CG       -31.5110   23.2400    2.0890 C.ar  170  PHE170     -0.0200
     74  CD1      -30.5380   24.1520    1.7350 C.ar  170  PHE170     -0.0042
     75  CD2      -32.4850   22.9190    1.1670 C.ar  170  PHE170     -0.0042
     76  CE1      -30.5310   24.7190    0.4790 C.ar  170  PHE170     -0.0003
     77  CE2      -32.4720   23.4730   -0.0900 C.ar  170  PHE170     -0.0003
     78  CZ       -31.4990   24.3740   -0.4390 C.ar  170  PHE170     -0.0000
     79  N        -35.0440   22.4720    3.2510 N.am  171  ASP171     -0.1971
     80  CA       -36.1690   21.6240    2.9010 C.3   171  ASP171      0.1709
     81  C        -35.9720   20.9520    1.5540 C.2   171  ASP171      0.2293
     82  O        -35.4540   21.5500    0.6090 O.2   171  ASP171     -0.2864
     83  CB       -37.4830   22.4070    2.9750 C.3   171  ASP171      0.1436
     84  CG       -37.9050   22.6820    4.4100 C.2   171  ASP171      0.3671
     85  OD1      -37.4420   21.9510    5.3170 O.co2 171  ASP171     -0.2456
     86  OD2      -38.7000   23.6180    4.6450 O.co2 171  ASP171     -0.2456
     87  N        -38.3120   19.3690   -1.0110 N.3   173  ASP173     -0.1239
     88  CA       -39.7000   19.1790   -1.4370 C.3   173  ASP173      0.1674
     89  C        -39.7810   18.4810   -2.7990 C.2   173  ASP173      0.2266
     90  O        -39.5040   19.0890   -3.8420 O.2   173  ASP173     -0.2867
     91  CB       -40.4610   20.5200   -1.4840 C.3   173  ASP173      0.1410
     92  CG       -40.2900   21.3460   -0.2060 C.2   173  ASP173      0.3668
     93  OD1      -39.5870   20.8740    0.7190 O.co2 173  ASP173     -0.2456
     94  OD2      -40.8480   22.4670   -0.1300 O.co2 173  ASP173     -0.2456
     95  N        -42.0240   15.7230    1.4140 N.3   179  VAL179     -0.1231
     96  CA       -41.0310   16.6390    1.9890 C.3   179  VAL179      0.1692
     97  C        -40.1900   16.0580    3.1220 C.2   179  VAL179      0.2592
     98  O        -40.7130   15.5230    4.0980 O.2   179  VAL179     -0.2718
     99  CB       -41.6680   17.9490    2.5020 C.3   179  VAL179      0.0266
    100  CG1      -42.8170   17.6440    3.4300 C.3   179  VAL179      0.0020
    101  CG2      -40.6270   18.7910    3.2200 C.3   179  VAL179      0.0020
    102  N        -38.8770   16.1770    2.9660 N.am  180  TYR180     -0.1962
    103  CA       -37.9220   15.8880    4.0230 C.3   180  TYR180      0.1771
    104  C        -37.0720   17.1200    4.1900 C.2   180  TYR180      0.2619
    105  O        -37.3450   18.1530    3.5850 O.2   180  TYR180     -0.2715
    106  CB       -37.0640   14.6700    3.6760 C.3   180  TYR180      0.0574
    107  CG       -37.8480   13.3960    3.7600 C.ar  180  TYR180     -0.0198
    108  CD1      -37.7390   12.5640    4.8600 C.ar  180  TYR180     -0.0009
    109  CD2      -38.7330   13.0470    2.7570 C.ar  180  TYR180     -0.0009
    110  CE1      -38.4860   11.3930    4.9550 C.ar  180  TYR180      0.0417
    111  CE2      -39.4770   11.8890    2.8340 C.ar  180  TYR180      0.0417
    112  CZ       -39.3520   11.0650    3.9380 C.ar  180  TYR180      0.1957
    113  OH       -40.0910    9.9020    4.0160 O.3   180  TYR180     -0.2866
    114  N        -36.0340   17.0070    4.9930 N.am  181  CYS181     -0.1968
    115  CA       -35.2630   18.1710    5.3520 C.3   181  CYS181      0.1712
    116  C        -33.8250   17.7930    5.7250 C.2   181  CYS181      0.2296
    117  O        -33.5710   16.7030    6.2490 O.2   181  CYS181     -0.2864
    118  CB       -35.9660   18.8610    6.5260 C.3   181  CYS181      0.0983
    119  SG       -35.2260   20.3730    7.0880 S.3   181  CYS181     -0.0798
    120  N        -21.2440   24.1940    4.3740 N.3   191  SER191     -0.1202
    121  CA       -22.4050   24.9030    3.8200 C.3   191  SER191      0.2020
    122  C        -23.3310   25.4940    4.8860 C.2   191  SER191      0.2618
    123  O        -24.0280   26.4700    4.6360 O.2   191  SER191     -0.2717
    124  CB       -23.2020   24.0030    2.8800 C.3   191  SER191      0.2103
    125  OG       -22.4770   23.7440    1.6900 O.3   191  SER191     -0.2182
    126  N        -23.3390   24.9050    6.0730 N.am  192  ARG192     -0.1979
    127  CA       -24.1520   25.4350    7.1560 C.3   192  ARG192      0.1597
    128  C        -23.8070   26.8970    7.4340 C.2   192  ARG192      0.2287
    129  O        -24.6180   27.6350    7.9820 O.2   192  ARG192     -0.2864
    130  CB       -23.9660   24.6020    8.4320 C.3   192  ARG192      0.0334
    131  CG       -22.7370   24.9750    9.2270 C.3   192  ARG192      0.0492
    132  CD       -22.3460   23.8920   10.2390 C.3   192  ARG192      0.2205
    133  NE       -23.3020   23.7130   11.3330 N.pl3 192  ARG192     -0.0865
    134  CZ       -23.4340   24.5540   12.3560 C.cat 192  ARG192      0.5346
    135  NH1      -22.6950   25.6570   12.3970 N.pl3 192  ARG192      0.1354
    136  NH2      -24.3130   24.3060   13.3250 N.pl3 192  ARG192      0.1354
    137  N        -22.8150   29.2050    5.1110 N.3   194  ILE194     -0.1245
    138  CA       -23.0160   30.1270    3.9990 C.3   194  ILE194      0.1561
    139  C        -24.2270   31.0150    4.2590 C.2   194  ILE194      0.2260
    140  O        -25.3120   30.5350    4.5750 O.2   194  ILE194     -0.2867
    141  CB       -23.1730   29.3900    2.6790 C.3   194  ILE194      0.0252
    142  CG1      -21.8410   28.7620    2.2770 C.3   194  ILE194      0.0019
    143  CG2      -23.6550   30.3390    1.5920 C.3   194  ILE194      0.0019
    144  CD1      -21.9410   27.8720    1.0640 C.3   194  ILE194      0.0001
    145  N        -28.5920   26.5100   -5.6230 N.3   204  PRO204     -0.2116
    146  CA       -28.6960   25.0880   -5.2780 C.3   204  PRO204      0.1372
    147  C        -29.4230   24.2960   -6.3430 C.2   204  PRO204      0.2244
    148  O        -30.4190   24.7430   -6.9200 O.2   204  PRO204     -0.2868
    149  CB       -29.5310   25.0990   -3.9960 C.3   204  PRO204      0.0268
    150  CG       -30.4280   26.2910   -4.1620 C.3   204  PRO204      0.0207
    151  CD       -29.5750   27.3270   -4.8830 C.3   204  PRO204      0.0892
    152  N        -26.1450   32.2350   -1.0130 N.3   235  PHE235     -0.1227
    153  CA       -27.2910   31.8810   -1.8210 C.3   235  PHE235      0.1736
    154  C        -28.5450   32.4810   -1.2130 C.2   235  PHE235      0.2595
    155  O        -28.5260   32.9650   -0.0910 O.2   235  PHE235     -0.2718
    156  CB       -27.4230   30.3650   -2.0030 C.3   235  PHE235      0.0547
    157  CG       -27.7830   29.6130   -0.7480 C.ar  235  PHE235     -0.0202
    158  CD1      -29.0750   29.1470   -0.5520 C.ar  235  PHE235     -0.0042
    159  CD2      -26.8250   29.3320    0.2190 C.ar  235  PHE235     -0.0042
    160  CE1      -29.4120   28.4250    0.6070 C.ar  235  PHE235     -0.0003
    161  CE2      -27.1540   28.6200    1.3690 C.ar  235  PHE235     -0.0003
    162  CZ       -28.4490   28.1690    1.5620 C.ar  235  PHE235     -0.0000
    163  N        -29.6250   32.4490   -1.9760 N.am  236  ASP236     -0.1960
    164  CA       -30.9150   32.9550   -1.5610 C.3   236  ASP236      0.1840
    165  C        -31.6150   31.9180   -0.6810 C.2   236  ASP236      0.2622
    166  O        -32.0770   30.8950   -1.1730 O.2   236  ASP236     -0.2715
    167  CB       -31.7270   33.1930   -2.8400 C.3   236  ASP236      0.1450
    168  CG       -33.0860   33.8120   -2.5860 C.2   236  ASP236      0.3671
    169  OD1      -33.5170   33.8820   -1.4190 O.co2 236  ASP236     -0.2456
    170  OD2      -33.7240   34.2200   -3.5840 O.co2 236  ASP236     -0.2456
    171  N        -31.6870   32.1710    0.6180 N.am  237  TYR237     -0.1960
    172  CA       -32.3900   31.2610    1.5230 C.3   237  TYR237      0.1771
    173  C        -33.8350   31.0460    1.1100 C.2   237  TYR237      0.2620
    174  O        -34.4440   30.0440    1.4710 O.2   237  TYR237     -0.2715
    175  CB       -32.3860   31.7840    2.9550 C.3   237  TYR237      0.0574
    176  CG       -31.0730   31.6560    3.6840 C.ar  237  TYR237     -0.0198
    177  CD1      -29.9000   31.3220    3.0110 C.ar  237  TYR237     -0.0009
    178  CD2      -31.0020   31.8870    5.0570 C.ar  237  TYR237     -0.0009
    179  CE1      -28.6990   31.2230    3.6810 C.ar  237  TYR237      0.0417
    180  CE2      -29.8060   31.7830    5.7290 C.ar  237  TYR237      0.0417
    181  CZ       -28.6580   31.4530    5.0390 C.ar  237  TYR237      0.1957
    182  OH       -27.4720   31.3460    5.7280 O.3   237  TYR237     -0.2866
    183  N        -34.3970   32.0040    0.3850 N.am  238  GLY238     -0.1940
    184  CA       -35.7640   31.8780   -0.0850 C.3   238  GLY238      0.2014
    185  C        -36.7980   32.5090    0.8330 C.2   238  GLY238      0.2639
    186  O        -36.5040   32.9410    1.9400 O.2   238  GLY238     -0.2714
    187  N        -38.0340   32.5520    0.3560 N.am  239  GLU239     -0.1963
    188  CA       -39.0910   33.3280    0.9950 C.3   239  GLU239      0.1733
    189  C        -39.6490   32.6770    2.2640 C.2   239  GLU239      0.2616
    190  O        -39.9900   33.3730    3.2170 O.2   239  GLU239     -0.2715
    191  CB       -40.2090   33.6260   -0.0180 C.3   239  GLU239      0.0429
    192  CG       -41.0160   34.8600    0.3350 C.3   239  GLU239      0.1163
    193  CD       -40.1330   36.0870    0.5210 C.2   239  GLU239      0.3649
    194  OE1      -39.2640   36.3250   -0.3510 O.co2 239  GLU239     -0.2457
    195  OE2      -40.3170   36.8200    1.5270 O.co2 239  GLU239     -0.2457
    196  N        -39.7300   31.3510    2.2820 N.am  240  ARG240     -0.1963
    197  CA       -40.2530   30.6490    3.4440 C.3   240  ARG240      0.1729
    198  C        -39.4010   30.9500    4.6640 C.2   240  ARG240      0.2616
    199  O        -39.9230   31.1210    5.7640 O.2   240  ARG240     -0.2715
    200  CB       -40.2770   29.1440    3.2040 C.3   240  ARG240      0.0348
    201  CG       -40.6020   28.3100    4.4500 C.3   240  ARG240      0.0492
    202  CD       -40.4670   26.8090    4.1570 C.3   240  ARG240      0.2205
    203  NE       -41.2180   26.4380    2.9530 N.pl3 240  ARG240     -0.0865
    204  CZ       -40.9260   25.4150    2.1480 C.cat 240  ARG240      0.5346
    205  NH1      -39.8860   24.6230    2.3930 N.pl3 240  ARG240      0.1354
    206  NH2      -41.6830   25.1810    1.0820 N.pl3 240  ARG240      0.1354
    207  N        -38.0860   30.9930    4.4650 N.am  241  PHE241     -0.1974
    208  CA       -37.1540   31.3190    5.5360 C.3   241  PHE241      0.1639
    209  C        -37.3780   32.7420    6.0430 C.2   241  PHE241      0.2290
    210  O        -37.4990   32.9620    7.2440 O.2   241  PHE241     -0.2864
    211  CB       -35.7030   31.1570    5.0700 C.3   241  PHE241      0.0560
    212  CG       -34.6800   31.5630    6.1070 C.ar  241  PHE241     -0.0200
    213  CD1      -34.1310   30.6240    6.9680 C.ar  241  PHE241     -0.0042
    214  CD2      -34.2620   32.8820    6.2150 C.ar  241  PHE241     -0.0042
    215  CE1      -33.1920   30.9940    7.9250 C.ar  241  PHE241     -0.0003
    216  CE2      -33.3220   33.2550    7.1640 C.ar  241  PHE241     -0.0003
    217  CZ       -32.7870   32.3060    8.0210 C.ar  241  PHE241     -0.0000
    218  N        -40.4210   33.9850    8.1520 N.3   244  ILE244     -0.1231
    219  CA       -40.3150   33.6570    9.5780 C.3   244  ILE244      0.1692
    220  C        -39.2280   34.4420   10.3210 C.2   244  ILE244      0.2591
    221  O        -39.4980   35.0840   11.3470 O.2   244  ILE244     -0.2718
    222  CB       -40.1140   32.1430    9.8070 C.3   244  ILE244      0.0266
    223  CG1      -41.4050   31.3950    9.4780 C.3   244  ILE244      0.0019
    224  CG2      -39.7090   31.8700   11.2520 C.3   244  ILE244      0.0020
    225  CD1      -41.1950   30.0020    8.9600 C.3   244  ILE244      0.0001
    226  N        -38.0040   34.3930    9.8050 N.am  245  LYS245     -0.1980
    227  CA       -36.8770   35.0680   10.4490 C.3   245  LYS245      0.1596
    228  C        -36.9350   36.5930   10.3020 C.2   245  LYS245      0.2287
    229  O        -36.3710   37.3230   11.1210 O.2   245  LYS245     -0.2864
    230  CB       -35.5490   34.5550    9.8880 C.3   245  LYS245      0.0298
    231  CG       -35.2460   33.1120   10.2130 C.3   245  LYS245      0.0038
    232  CD       -35.2680   32.8890   11.7090 C.3   245  LYS245      0.0206
    233  CE       -34.4250   31.6910   12.0950 C.3   245  LYS245      0.1093
    234  NZ       -34.3740   31.5060   13.5840 N.3   245  LYS245     -0.1314
@<TRIPOS>BOND
     1   148   147    2
     2   147   146    1
     3   145   146    1
     4   145   151    1
     5   146   149    1
     6   151   150    1
     7   150   149    1
     8    90    89    2
     9   170   168   ar
    10   167   168    1
    11   167   164    1
    12    89    88    1
    13   168   169   ar
    14   156   153    1
    15   156   157    1
    16   163   164    1
    17   163   154   am
    18   153   154    1
    19   153   152    1
    20   164   165    1
    21    91    88    1
    22    91    92    1
    23    88    87    1
    24   154   155    2
    25   166   165    2
    26   157   158   ar
    27   157   159   ar
    28   165   171   am
    29   158   160   ar
    30    78    77   ar
    31    78    76   ar
    32   194   193   ar
    33    92    94   ar
    34    92    93   ar
    35    77    75   ar
    36   184   183    1
    37   184   185    1
    38   191   192    1
    39   191   188    1
    40   159   161   ar
    41   192   193    1
    42     1     2    1
    43   187   185   am
    44   187   188    1
    45   183   173   am
    46    76    74   ar
    47   193   195   ar
    48   160   162   ar
    49    82    81    2
    50   171   172    1
    51   185   186    2
    52   188   189    1
    53   144   142    1
    54   206   204    1
    55   173   174    2
    56   173   172    1
    57    75    73   ar
    58   161   162   ar
    59    95    96    1
    60     5     2    1
    61     5     6    1
    62   172   175    1
    63    81    80    1
    64   143   141    1
    65     2     3    1
    66   125   124    1
    67    74    73   ar
    68    96    99    1
    69    96    97    1
    70    73    72    1
    71     4     3    2
    72   204   205    1
    73   204   203    2
    74   189   196   am
    75   189   190    2
    76   142   141    1
    77   196   197    1
    78    99   101    1
    79    99   100    1
    80   141   138    1
    81   109   111   ar
    82   109   107   ar
    83     6     7   ar
    84     6     8   ar
    85   111   112   ar
    86   124   121    1
    87    80    83    1
    88    80    79    1
    89   203   202    1
    90   175   176    1
    91   102    97   am
    92   102   103    1
    93    83    84    1
    94   177   179   ar
    95   177   176   ar
    96     7     9   ar
    97    97    98    2
    98   200   197    1
    99   200   201    1
   100    79    70   am
   101   197   198    1
   102    72    69    1
   103   105   104    2
   104   106   107    1
   105   106   103    1
   106     8    10   ar
   107   179   181   ar
   108   176   178   ar
   109    70    71    2
   110    70    69    1
   111   107   108   ar
   112   121   120    1
   113   121   122    1
   114   112   113    1
   115   112   110   ar
   116   138   139    1
   117   138   137    1
   118   103   104    1
   119   202   201    1
   120   104   114   am
   121    69    68    1
   122   139   140    2
   123     9    11   ar
   124    84    86   ar
   125    84    85   ar
   126   207   198   am
   127   207   208    1
   128   123   122    2
   129   198   199    2
   130   108   110   ar
   131    10    11   ar
   132   122   126   am
   133   114   115    1
   134   181   182    1
   135   181   180   ar
   136   178   180   ar
   137   211   208    1
   138   211   212    1
   139    11    12    1
   140   115   116    1
   141   115   118    1
   142   208   209    1
   143    68    62   am
   144   116   117    2
   145    63    62    2
   146   209   210    2
   147   126   127    1
   148   212   214   ar
   149   212   213   ar
   150    19    18   ar
   151   214   216   ar
   152    62    61    1
   153   118   119    1
   154    18    20   ar
   155    18    17    1
   156    17    14    1
   157   213   215   ar
   158   127   128    1
   159   127   130    1
   160   216   217   ar
   161   128   129    2
   162    13    14    1
   163    14    15    1
   164    61    64    1
   165    61    60    1
   166   215   217   ar
   167   218   219    1
   168    51    50    2
   169    64    65    1
   170   130   131    1
   171    60    50   am
   172    50    49    1
   173   225   223    1
   174    15    16    2
   175   131   132    1
   176   223   222    1
   177   219   222    1
   178   219   220    1
   179    49    52    1
   180    49    48    1
   181    45    44    2
   182   226   220   am
   183   226   227    1
   184   222   224    1
   185   230   231    1
   186   230   227    1
   187    25    22    1
   188    65    67    1
   189    65    66    1
   190   231   232    1
   191   132   133    1
   192   228   227    1
   193   228   229    2
   194   220   221    2
   195    33    31   ar
   196    52    53    1
   197    44    48   am
   198    44    43    1
   199    32    31   ar
   200    54    56   ar
   201    54    53   ar
   202    31    30    1
   203    56    58   ar
   204    53    55   ar
   205    37    36    2
   206   133   134    2
   207    22    21    1
   208    22    23    1
   209    43    46    1
   210    43    42    1
   211   232   233    1
   212    23    26   am
   213    23    24    2
   214    26    27    1
   215   233   234    1
   216    36    42   am
   217    36    35    1
   218    46    47    1
   219    30    27    1
   220   134   135    1
   221   134   136    1
   222    58    59    1
   223    58    57   ar
   224    55    57   ar
   225    27    28    1
   226    35    38    1
   227    35    34    1
   228    38    39    1
   229    39    41   ar
   230    39    40   ar
   231    28    29    2
