@<TRIPOS>MOLECULE
tmp/3swcC00.pdb
 241 233 0 0 0
SMALL
GASTEIGER

@<TRIPOS>ATOM
      1  N        -13.3900   -8.1570    0.4580 N.3   150  TYR150     -0.1241
      2  CA       -14.3220   -9.0370   -0.2240 C.3   150  TYR150      0.1605
      3  C        -15.6110   -8.2700   -0.4240 C.2   150  TYR150      0.2264
      4  O        -16.4020   -8.1340    0.4990 O.2   150  TYR150     -0.2867
      5  CB       -14.5830  -10.3040    0.5710 C.3   150  TYR150      0.0534
      6  CG       -15.2300  -11.3740   -0.2640 C.ar  150  TYR150     -0.0201
      7  CD1      -14.4530  -12.2760   -0.9760 C.ar  150  TYR150     -0.0009
      8  CD2      -16.6170  -11.4590   -0.3800 C.ar  150  TYR150     -0.0009
      9  CE1      -15.0330  -13.2480   -1.7660 C.ar  150  TYR150      0.0417
     10  CE2      -17.2120  -12.4440   -1.1630 C.ar  150  TYR150      0.0417
     11  CZ       -16.4090  -13.3320   -1.8580 C.ar  150  TYR150      0.1957
     12  OH       -16.9580  -14.3150   -2.6510 O.3   150  TYR150     -0.2866
     13  N        -29.5000  -14.8070    5.2940 N.3   157  ASP157     -0.1239
     14  CA       -29.4210  -16.2610    5.4250 C.3   157  ASP157      0.1674
     15  C        -30.3040  -16.9580    4.3970 C.2   157  ASP157      0.2266
     16  O        -29.8030  -17.6560    3.5150 O.2   157  ASP157     -0.2867
     17  CB       -29.8830  -16.6650    6.8320 C.3   157  ASP157      0.1410
     18  CG       -28.9230  -17.6190    7.5170 C.2   157  ASP157      0.3668
     19  OD1      -28.8990  -17.6560    8.7710 O.co2 157  ASP157     -0.2456
     20  OD2      -28.1870  -18.3320    6.8030 O.co2 157  ASP157     -0.2456
     21  N        -29.5420  -16.4800    0.8930 N.3   160  ALA160     -0.1231
     22  CA       -28.2870  -17.1360    0.5190 C.3   160  ALA160      0.1694
     23  C        -28.5040  -18.6070    0.1920 C.2   160  ALA160      0.2592
     24  O        -27.8810  -19.1610   -0.7240 O.2   160  ALA160     -0.2718
     25  CB       -27.2570  -16.9830    1.6180 C.3   160  ALA160      0.0304
     26  N        -29.3990  -19.2370    0.9450 N.am  161  ASP161     -0.1974
     27  CA       -29.6380  -20.6680    0.8020 C.3   161  ASP161      0.1709
     28  C        -30.3190  -21.0280   -0.5180 C.2   161  ASP161      0.2293
     29  O        -30.2860  -22.1810   -0.9410 O.2   161  ASP161     -0.2864
     30  CB       -30.4420  -21.1960    1.9900 C.3   161  ASP161      0.1436
     31  CG       -29.5840  -21.3920    3.2270 C.2   161  ASP161      0.3671
     32  OD1      -28.3510  -21.5300    3.0650 O.co2 161  ASP161     -0.2456
     33  OD2      -30.1340  -21.4100    4.3510 O.co2 161  ASP161     -0.2456
     34  N        -23.4910  -20.7830   -6.3970 N.3   166  ASP166     -0.1225
     35  CA       -23.0750  -20.6530   -5.0060 C.3   166  ASP166      0.1805
     36  C        -21.5550  -20.6170   -4.7330 C.2   166  ASP166      0.2598
     37  O        -21.1360  -20.8360   -3.6000 O.2   166  ASP166     -0.2718
     38  CB       -23.7030  -21.7870   -4.1870 C.3   166  ASP166      0.1424
     39  CG       -23.2240  -23.1680   -4.6390 C.2   166  ASP166      0.3668
     40  OD1      -22.5940  -23.2470   -5.7140 O.co2 166  ASP166     -0.2456
     41  OD2      -23.4720  -24.1790   -3.9360 O.co2 166  ASP166     -0.2456
     42  N        -20.7240  -20.3380   -5.7300 N.am  167  SER167     -0.1938
     43  CA       -19.2890  -20.3660   -5.4500 C.3   167  SER167      0.2055
     44  C        -18.6640  -19.0170   -5.0670 C.2   167  SER167      0.2643
     45  O        -17.4450  -18.9120   -4.9460 O.2   167  SER167     -0.2714
     46  CB       -18.4960  -21.0540   -6.5680 C.3   167  SER167      0.2130
     47  OG       -18.9870  -20.7220   -7.8460 O.3   167  SER167     -0.2179
     48  N        -19.5000  -18.0090   -4.8280 N.am  168  TYR168     -0.1959
     49  CA       -19.0160  -16.6770   -4.4880 C.3   168  TYR168      0.1771
     50  C        -19.5640  -16.1670   -3.1540 C.2   168  TYR168      0.2619
     51  O        -19.6730  -14.9680   -2.9220 O.2   168  TYR168     -0.2715
     52  CB       -19.3730  -15.7230   -5.6150 C.3   168  TYR168      0.0574
     53  CG       -18.7710  -16.1290   -6.9420 C.ar  168  TYR168     -0.0198
     54  CD1      -17.4480  -15.8360   -7.2320 C.ar  168  TYR168     -0.0009
     55  CD2      -19.5180  -16.8050   -7.8990 C.ar  168  TYR168     -0.0009
     56  CE1      -16.8810  -16.1910   -8.4350 C.ar  168  TYR168      0.0417
     57  CE2      -18.9550  -17.1690   -9.1190 C.ar  168  TYR168      0.0417
     58  CZ       -17.6320  -16.8520   -9.3800 C.ar  168  TYR168      0.1957
     59  OH       -17.0420  -17.1990  -10.5820 O.3   168  TYR168     -0.2866
     60  N        -19.8910  -17.0980   -2.2720 N.am  169  LEU169     -0.1963
     61  CA       -20.5290  -16.7810   -1.0100 C.3   169  LEU169      0.1728
     62  C        -19.5180  -16.6020    0.1200 C.2   169  LEU169      0.2616
     63  O        -18.6600  -17.4590    0.3190 O.2   169  LEU169     -0.2715
     64  CB       -21.4890  -17.9150   -0.6500 C.3   169  LEU169      0.0311
     65  CG       -22.6390  -18.1750   -1.6230 C.3   169  LEU169      0.0022
     66  CD1      -23.5970  -19.2150   -1.0630 C.3   169  LEU169      0.0001
     67  CD2      -23.3690  -16.8860   -1.8800 C.3   169  LEU169      0.0001
     68  N        -19.6270  -15.5060    0.8710 N.am  170  PHE170     -0.1960
     69  CA       -18.8110  -15.3200    2.0680 C.3   170  PHE170      0.1771
     70  C        -19.7380  -15.1300    3.2570 C.2   170  PHE170      0.2619
     71  O        -20.4630  -14.1360    3.3240 O.2   170  PHE170     -0.2715
     72  CB       -17.8760  -14.1040    1.9430 C.3   170  PHE170      0.0574
     73  CG       -16.6260  -14.2110    2.7890 C.ar  170  PHE170     -0.0200
     74  CD1      -15.3710  -14.1280    2.2080 C.ar  170  PHE170     -0.0042
     75  CD2      -16.7110  -14.4220    4.1580 C.ar  170  PHE170     -0.0042
     76  CE1      -14.2140  -14.2450    2.9650 C.ar  170  PHE170     -0.0003
     77  CE2      -15.5570  -14.5320    4.9350 C.ar  170  PHE170     -0.0003
     78  CZ       -14.2990  -14.4470    4.3360 C.ar  170  PHE170     -0.0000
     79  N        -19.7230  -16.0820    4.1850 N.am  171  ASP171     -0.1971
     80  CA       -20.6120  -16.0300    5.3420 C.3   171  ASP171      0.1709
     81  C        -20.1480  -14.9920    6.3430 C.2   171  ASP171      0.2293
     82  O        -18.9590  -14.8480    6.5910 O.2   171  ASP171     -0.2864
     83  CB       -20.7200  -17.3890    6.0300 C.3   171  ASP171      0.1436
     84  CG       -21.6710  -18.3310    5.3170 C.2   171  ASP171      0.3671
     85  OD1      -22.4330  -17.8780    4.4320 O.co2 171  ASP171     -0.2456
     86  OD2      -21.6530  -19.5350    5.6510 O.co2 171  ASP171     -0.2456
     87  N        -21.7690  -14.6990    9.5320 N.3   173  ASP173     -0.1239
     88  CA       -22.0640  -15.2880   10.8660 C.3   173  ASP173      0.1674
     89  C        -21.7800  -14.4610   12.1390 C.2   173  ASP173      0.2266
     90  O        -20.6460  -14.3650   12.6160 O.2   173  ASP173     -0.2867
     91  CB       -21.5380  -16.7420   11.0100 C.3   173  ASP173      0.1410
     92  CG       -20.0260  -16.8570   10.8670 C.2   173  ASP173      0.3668
     93  OD1      -19.3630  -15.8580   10.4980 O.co2 173  ASP173     -0.2456
     94  OD2      -19.5020  -17.9700   11.1110 O.co2 173  ASP173     -0.2456
     95  N        -27.3150  -15.3840   10.2880 N.3   179  VAL179     -0.1245
     96  CA       -26.0350  -15.2820    9.5950 C.3   179  VAL179      0.1561
     97  C        -26.2380  -14.5920    8.2540 C.2   179  VAL179      0.2260
     98  O        -26.8800  -15.1410    7.3640 O.2   179  VAL179     -0.2867
     99  CB       -25.4120  -16.6820    9.3690 C.3   179  VAL179      0.0252
    100  CG1      -24.3310  -16.6500    8.3060 C.3   179  VAL179      0.0019
    101  CG2      -24.8590  -17.2320   10.6710 C.3   179  VAL179      0.0019
    102  N        -24.7380  -12.7470    4.6360 N.3   181  CYS181     -0.1235
    103  CA       -23.8440  -13.2650    3.6280 C.3   181  CYS181      0.1677
    104  C        -23.5310  -12.2140    2.5830 C.2   181  CYS181      0.2270
    105  O        -24.3780  -11.4010    2.2180 O.2   181  CYS181     -0.2867
    106  CB       -24.4720  -14.5010    2.9790 C.3   181  CYS181      0.0956
    107  SG       -23.3590  -15.4500    1.9200 S.3   181  CYS181     -0.0801
    108  N        -11.9540   -9.3700   -5.4700 N.3   191  SER191     -0.1202
    109  CA       -11.8100  -10.4850   -4.5190 C.3   191  SER191      0.2020
    110  C        -12.5490  -11.7570   -4.9210 C.2   191  SER191      0.2618
    111  O        -12.2060  -12.8710   -4.4770 O.2   191  SER191     -0.2717
    112  CB       -12.2590  -10.0730   -3.1040 C.3   191  SER191      0.2103
    113  OG       -11.4430   -9.0430   -2.5790 O.3   191  SER191     -0.2182
    114  N        -13.5840  -11.5910   -5.7330 N.am  192  ARG192     -0.1979
    115  CA       -14.4090  -12.7180   -6.1400 C.3   192  ARG192      0.1597
    116  C        -13.5640  -13.7090   -6.9290 C.2   192  ARG192      0.2287
    117  O        -13.8940  -14.8960   -7.0020 O.2   192  ARG192     -0.2864
    118  CB       -15.6060  -12.2380   -6.9760 C.3   192  ARG192      0.0334
    119  CG       -15.2310  -11.7590   -8.3500 C.3   192  ARG192      0.0492
    120  CD       -16.3970  -11.0440   -9.0430 C.3   192  ARG192      0.2205
    121  NE       -17.5900  -11.8730   -9.2200 N.pl3 192  ARG192     -0.0865
    122  CZ       -17.7120  -12.8400  -10.1280 C.cat 192  ARG192      0.5346
    123  NH1      -16.6970  -13.1260  -10.9370 N.pl3 192  ARG192      0.1354
    124  NH2      -18.8490  -13.5240  -10.2320 N.pl3 192  ARG192      0.1354
    125  N        -10.3140  -14.4730   -6.2320 N.3   194  ILE194     -0.1245
    126  CA        -9.1950  -15.0280   -5.4460 C.3   194  ILE194      0.1561
    127  C         -9.4530  -16.4860   -5.0690 C.2   194  ILE194      0.2260
    128  O        -10.4530  -16.7940   -4.4110 O.2   194  ILE194     -0.2867
    129  CB        -8.9630  -14.2400   -4.1530 C.3   194  ILE194      0.0252
    130  CG1       -8.6070  -12.7850   -4.4650 C.3   194  ILE194      0.0019
    131  CG2       -7.8820  -14.9180   -3.3140 C.3   194  ILE194      0.0019
    132  CD1       -8.2940  -11.9840   -3.2350 C.3   194  ILE194      0.0001
    133  N         -8.5630  -13.1790    6.0530 N.3   204  PRO204     -0.2116
    134  CA        -9.7090  -12.2640    6.1760 C.3   204  PRO204      0.1372
    135  C         -9.9110  -11.7930    7.6130 C.2   204  PRO204      0.2244
    136  O         -9.9180  -12.6020    8.5430 O.2   204  PRO204     -0.2868
    137  CB       -10.8990  -13.1270    5.7540 C.3   204  PRO204      0.0268
    138  CG       -10.5000  -14.5180    6.1580 C.3   204  PRO204      0.0207
    139  CD        -8.9930  -14.5810    5.8800 C.3   204  PRO204      0.0892
    140  N        -12.4420   -9.2440   10.0670 N.3   206  ARG206     -0.1245
    141  CA       -13.6910   -8.4920   10.1270 C.3   206  ARG206      0.1563
    142  C        -13.3910   -7.0650   10.5800 C.2   206  ARG206      0.2260
    143  O        -12.7220   -6.8650   11.5770 O.2   206  ARG206     -0.2867
    144  CB       -14.7010   -9.1630   11.0590 C.3   206  ARG206      0.0307
    145  CG       -15.2820  -10.4540   10.4810 C.3   206  ARG206      0.0489
    146  CD       -15.6520  -11.4580   11.5670 C.3   206  ARG206      0.2205
    147  NE       -16.9130  -11.1410   12.2250 N.pl3 206  ARG206     -0.0865
    148  CZ       -18.0060  -11.9030   12.1510 C.cat 206  ARG206      0.5346
    149  NH1      -17.9790  -13.0290   11.4490 N.pl3 206  ARG206      0.1354
    150  NH2      -19.1240  -11.5440   12.7790 N.pl3 206  ARG206      0.1354
    151  N         -6.6520  -17.2040   -0.1250 N.3   235  PHE235     -0.1227
    152  CA        -7.0070  -17.3770    1.2810 C.3   235  PHE235      0.1736
    153  C         -7.6300  -18.7600    1.4900 C.2   235  PHE235      0.2595
    154  O         -7.9670  -19.4420    0.5390 O.2   235  PHE235     -0.2718
    155  CB        -7.9070  -16.2310    1.8090 C.3   235  PHE235      0.0547
    156  CG        -9.2740  -16.1430    1.1500 C.ar  235  PHE235     -0.0202
    157  CD1      -10.4090  -16.5960    1.8200 C.ar  235  PHE235     -0.0042
    158  CD2       -9.4270  -15.5800   -0.1250 C.ar  235  PHE235     -0.0042
    159  CE1      -11.6740  -16.5180    1.2360 C.ar  235  PHE235     -0.0003
    160  CE2      -10.6910  -15.5010   -0.7190 C.ar  235  PHE235     -0.0003
    161  CZ       -11.8190  -15.9790   -0.0270 C.ar  235  PHE235     -0.0000
    162  N         -7.7420  -19.1800    2.7370 N.am  236  ASP236     -0.1960
    163  CA        -8.3790  -20.4430    3.0620 C.3   236  ASP236      0.1840
    164  C         -9.8930  -20.2070    3.0880 C.2   236  ASP236      0.2622
    165  O        -10.3870  -19.4630    3.9380 O.2   236  ASP236     -0.2715
    166  CB        -7.8730  -20.8950    4.4410 C.3   236  ASP236      0.1450
    167  CG        -8.4240  -22.2390    4.8650 C.2   236  ASP236      0.3671
    168  OD1       -9.3430  -22.7690    4.2060 O.co2 236  ASP236     -0.2456
    169  OD2       -7.9340  -22.7680    5.8780 O.co2 236  ASP236     -0.2456
    170  N        -10.6270  -20.8150    2.1530 N.am  237  TYR237     -0.1960
    171  CA       -12.0810  -20.6630    2.1130 C.3   237  TYR237      0.1771
    172  C        -12.7250  -21.2440    3.3680 C.2   237  TYR237      0.2620
    173  O        -13.7790  -20.7730    3.8170 O.2   237  TYR237     -0.2715
    174  CB       -12.6830  -21.3650    0.9040 C.3   237  TYR237      0.0574
    175  CG       -12.4270  -20.7370   -0.4470 C.ar  237  TYR237     -0.0198
    176  CD1      -11.5180  -19.7060   -0.6140 C.ar  237  TYR237     -0.0009
    177  CD2      -13.0920  -21.2120   -1.5710 C.ar  237  TYR237     -0.0009
    178  CE1      -11.2900  -19.1560   -1.8780 C.ar  237  TYR237      0.0417
    179  CE2      -12.8710  -20.6740   -2.8270 C.ar  237  TYR237      0.0417
    180  CZ       -11.9800  -19.6550   -2.9740 C.ar  237  TYR237      0.1957
    181  OH       -11.7820  -19.1280   -4.2210 O.3   237  TYR237     -0.2866
    182  N        -12.1080  -22.2940    3.9100 N.am  238  GLY238     -0.1954
    183  CA       -12.5890  -22.9400    5.1250 C.3   238  GLY238      0.1869
    184  C        -13.3790  -24.2350    4.9420 C.2   238  GLY238      0.2309
    185  O        -13.7310  -24.6230    3.8270 O.2   238  GLY238     -0.2863
    186  N        -16.5590  -25.1680    5.8570 N.3   240  ARG240     -0.1231
    187  CA       -17.9120  -25.0820    5.3190 C.3   240  ARG240      0.1694
    188  C        -17.9070  -25.1490    3.7750 C.2   240  ARG240      0.2592
    189  O        -18.6840  -25.8980    3.1760 O.2   240  ARG240     -0.2718
    190  CB       -18.6340  -23.8280    5.8250 C.3   240  ARG240      0.0321
    191  CG       -20.1120  -23.7580    5.4410 C.3   240  ARG240      0.0489
    192  CD       -20.8580  -22.7630    6.3260 C.3   240  ARG240      0.2205
    193  NE       -22.2860  -22.6780    6.0190 N.pl3 240  ARG240     -0.0865
    194  CZ       -23.1460  -21.8790    6.6540 C.cat 240  ARG240      0.5346
    195  NH1      -22.7220  -21.0920    7.6420 N.pl3 240  ARG240      0.1354
    196  NH2      -24.4350  -21.8610    6.3000 N.pl3 240  ARG240      0.1354
    197  N        -17.0280  -24.3850    3.1330 N.am  241  PHE241     -0.1976
    198  CA       -16.9180  -24.4340    1.6820 C.3   241  PHE241      0.1639
    199  C        -16.5580  -25.8380    1.1950 C.2   241  PHE241      0.2290
    200  O        -17.2280  -26.4020    0.3270 O.2   241  PHE241     -0.2864
    201  CB       -15.8760  -23.4370    1.1770 C.3   241  PHE241      0.0560
    202  CG       -15.7150  -23.4420   -0.3230 C.ar  241  PHE241     -0.0200
    203  CD1      -16.4350  -22.5580   -1.1160 C.ar  241  PHE241     -0.0042
    204  CD2      -14.8490  -24.3290   -0.9380 C.ar  241  PHE241     -0.0042
    205  CE1      -16.2910  -22.5530   -2.4890 C.ar  241  PHE241     -0.0003
    206  CE2      -14.7050  -24.3350   -2.3110 C.ar  241  PHE241     -0.0003
    207  CZ       -15.4280  -23.4450   -3.0920 C.ar  241  PHE241     -0.0000
    208  N        -18.8160  -29.1130    1.2640 N.3   244  ILE244     -0.1231
    209  CA       -19.7860  -29.1720    0.1860 C.3   244  ILE244      0.1692
    210  C        -19.0680  -29.2730   -1.1430 C.2   244  ILE244      0.2591
    211  O        -19.3920  -30.1210   -1.9720 O.2   244  ILE244     -0.2718
    212  CB       -20.6940  -27.9160    0.1940 C.3   244  ILE244      0.0266
    213  CG1      -21.6650  -27.9660    1.3690 C.3   244  ILE244      0.0019
    214  CG2      -21.4690  -27.7820   -1.1120 C.3   244  ILE244      0.0020
    215  CD1      -22.0570  -26.6100    1.8720 C.3   244  ILE244      0.0001
    216  N        -18.0870  -28.4040   -1.3550 N.am  245  LYS245     -0.1980
    217  CA       -17.3970  -28.3860   -2.6330 C.3   245  LYS245      0.1596
    218  C        -16.4230  -29.5570   -2.7590 C.2   245  LYS245      0.2287
    219  O        -16.1010  -29.9800   -3.8690 O.2   245  LYS245     -0.2864
    220  CB       -16.6880  -27.0490   -2.8520 C.3   245  LYS245      0.0298
    221  CG       -17.6300  -25.8730   -3.0840 C.3   245  LYS245      0.0038
    222  CD       -18.2560  -25.9450   -4.4670 C.3   245  LYS245      0.0206
    223  CE       -19.4270  -24.9860   -4.6090 C.3   245  LYS245      0.1093
    224  NZ       -19.9970  -25.0930   -5.9820 N.3   245  LYS245     -0.1314
    225  N        -16.9460  -32.5660   -2.3080 N.3   247  LYS247     -0.1231
    226  CA       -17.6470  -33.6710   -2.9520 C.3   247  LYS247      0.1693
    227  C        -17.6840  -33.5650   -4.4750 C.2   247  LYS247      0.2591
    228  O        -18.0110  -34.5310   -5.1510 O.2   247  LYS247     -0.2718
    229  CB       -19.0800  -33.7710   -2.4050 C.3   247  LYS247      0.0285
    230  CG       -19.1840  -33.8650   -0.8710 C.3   247  LYS247      0.0035
    231  CD       -20.6390  -34.0300   -0.4290 C.3   247  LYS247      0.0206
    232  CE       -20.7490  -34.4980    1.0260 C.3   247  LYS247      0.1093
    233  NZ       -20.7360  -33.3810    2.0250 N.3   247  LYS247     -0.1314
    234  N        -17.3530  -32.4010   -5.0180 N.am  248  LEU248     -0.1980
    235  CA       -17.4930  -32.1750   -6.4570 C.3   248  LEU248      0.1596
    236  C        -16.1410  -32.0590   -7.1440 C.2   248  LEU248      0.2287
    237  O        -15.9980  -32.3800   -8.3250 O.2   248  LEU248     -0.2864
    238  CB       -18.2990  -30.9030   -6.7230 C.3   248  LEU248      0.0297
    239  CG       -19.6810  -30.8640   -6.0750 C.3   248  LEU248      0.0022
    240  CD1      -20.1730  -29.4320   -5.8890 C.3   248  LEU248      0.0001
    241  CD2      -20.6660  -31.6860   -6.8860 C.3   248  LEU248      0.0001
@<TRIPOS>BOND
     1   123   122    1
     2    59    58    1
     3   124   122    1
     4   122   121    2
     5    58    57   ar
     6    58    56   ar
     7   121   120    1
     8    57    55   ar
     9   120   119    1
    10    56    54   ar
    11   119   118    1
    12   237   236    2
    13    55    53   ar
    14    47    46    1
    15    54    53   ar
    16   236   235    1
    17   117   116    2
    18   118   115    1
    19    53    52    1
    20   116   115    1
    21   241   239    1
    22   238   235    1
    23   238   239    1
    24    46    43    1
    25   235   234    1
    26    34    35    1
    27   125   126    1
    28   115   114    1
    29   239   240    1
    30   224   223    1
    31   114   110   am
    32    42    43    1
    33    42    36   am
    34    40    39   ar
    35    52    49    1
    36   108   109    1
    37    43    44    1
    38   126   127    1
    39   126   129    1
    40   228   227    2
    41   127   128    2
    42    44    45    2
    43    44    48   am
    44   234   227   am
    45    35    36    1
    46    35    38    1
    47   110   109    1
    48   110   111    2
    49    48    49    1
    50    36    37    2
    51    39    38    1
    52    39    41   ar
    53   223   222    1
    54   109   112    1
    55    49    50    1
    56   227   226    1
    57   222   221    1
    58   130   129    1
    59   130   132    1
    60   181   180    1
    61   129   131    1
    62   219   218    2
    63    50    51    2
    64    50    60   am
    65   112   113    1
    66   207   205   ar
    67   207   206   ar
    68   221   220    1
    69   180   179   ar
    70   180   178   ar
    71   226   229    1
    72   226   225    1
    73   220   217    1
    74   179   177   ar
    75   218   217    1
    76    12    11    1
    77   217   216    1
    78   205   203   ar
    79   229   230    1
    80   206   204   ar
    81    60    61    1
    82   211   210    2
    83    67    65    1
    84   178   176   ar
    85    11     9   ar
    86    11    10   ar
    87     9     7   ar
    88    65    66    1
    89    65    64    1
    90   177   175   ar
    91   216   210   am
    92    10     8   ar
    93   210   209    1
    94   203   202   ar
    95   214   212    1
    96    61    64    1
    97    61    62    1
    98     7     6   ar
    99    29    28    2
   100   204   202   ar
   101   230   231    1
   102    24    23    2
   103   160   158   ar
   104   160   161   ar
   105   176   175   ar
   106    28    27    1
   107   175   174    1
   108   231   232    1
   109     3     2    1
   110     3     4    2
   111     8     6   ar
   112   202   201    1
   113     6     5    1
   114     2     1    1
   115     2     5    1
   116   151   152    1
   117   158   156   ar
   118   161   159   ar
   119    62    63    2
   120    62    68   am
   121   209   212    1
   122   209   208    1
   123    23    22    1
   124    23    26   am
   125   212   213    1
   126   200   199    2
   127    22    21    1
   128    22    25    1
   129   154   153    2
   130    27    26    1
   131    27    30    1
   132    68    69    1
   133   174   171    1
   134   232   233    1
   135   156   155    1
   136   156   157   ar
   137   201   198    1
   138   199   198    1
   139   159   157   ar
   140   152   153    1
   141   152   155    1
   142   213   215    1
   143   153   162   am
   144   198   197    1
   145   107   106    1
   146    72    69    1
   147    72    73    1
   148    30    31    1
   149    69    70    1
   150   171   170    1
   151   171   172    1
   152   170   164   am
   153    74    73   ar
   154    74    76   ar
   155   105   104    2
   156   104   103    1
   157   162   163    1
   158    73    75   ar
   159    76    78   ar
   160   106   103    1
   161   163   164    1
   162   163   166    1
   163    32    31   ar
   164   164   165    2
   165   197   188   am
   166   189   188    2
   167    31    33   ar
   168    70    71    2
   169    70    79   am
   170   172   173    2
   171   172   182   am
   172    16    15    2
   173   103   102    1
   174   188   187    1
   175   185   184    2
   176   182   183    1
   177    75    77   ar
   178    79    80    1
   179   168   167   ar
   180    78    77   ar
   181    15    14    1
   182    85    84   ar
   183   166   167    1
   184   167   169   ar
   185   184   183    1
   186    13    14    1
   187    84    86   ar
   188    84    83    1
   189   187   190    1
   190   187   186    1
   191    80    83    1
   192    80    81    1
   193    14    17    1
   194   191   190    1
   195   191   192    1
   196   137   138    1
   197   137   134    1
   198   139   133    1
   199   139   138    1
   200   193   192    1
   201   193   194    2
   202   133   134    1
   203   134   135    1
   204   196   194    1
   205    81    82    2
   206   194   195    1
   207    20    18   ar
   208    17    18    1
   209    98    97    2
   210    18    19   ar
   211   135   136    2
   212    97    96    1
   213   100    99    1
   214    99    96    1
   215    99   101    1
   216    87    88    1
   217    96    95    1
   218   140   141    1
   219   141   142    1
   220   141   144    1
   221   145   144    1
   222   145   146    1
   223    93    92   ar
   224   142   143    2
   225    88    91    1
   226    88    89    1
   227    92    91    1
   228    92    94   ar
   229   149   148    1
   230   146   147    1
   231    89    90    2
   232   148   147    2
   233   148   150    1
