@<TRIPOS>MOLECULE
tmp/3swiA02.pdb
 87 81 0 0 0
SMALL
GASTEIGER

@<TRIPOS>ATOM
      1  N        162.9590   65.6570  195.4900 N.3   187  PRO187     -0.2116
      2  CA       164.2010   65.3680  194.7670 C.3   187  PRO187      0.1372
      3  C        164.3610   66.3120  193.6220 C.2   187  PRO187      0.2244
      4  O        165.4710   66.7470  193.3330 O.2   187  PRO187     -0.2868
      5  CB       164.0010   63.9400  194.2850 C.3   187  PRO187      0.0268
      6  CG       163.0890   63.3620  195.3130 C.3   187  PRO187      0.0207
      7  CD       162.0990   64.4660  195.5300 C.3   187  PRO187      0.0892
      8  N        166.1820   69.5210  194.4670 N.3   190  VAL190     -0.1231
      9  CA       167.6200   69.2700  194.5790 C.3   190  VAL190      0.1692
     10  C        168.2840   69.2900  193.2190 C.2   190  VAL190      0.2592
     11  O        169.3520   69.8810  193.0470 O.2   190  VAL190     -0.2718
     12  CB       167.8880   67.8770  195.2320 C.3   190  VAL190      0.0266
     13  CG1      169.3770   67.6800  195.4810 C.3   190  VAL190      0.0020
     14  CG2      167.1230   67.7500  196.5280 C.3   190  VAL190      0.0020
     15  N        167.6920   68.6440  192.2440 N.am  191  ASP191     -0.1974
     16  CA       168.2190   68.6070  190.8950 C.3   191  ASP191      0.1709
     17  C        168.2060   69.9790  190.2510 C.2   191  ASP191      0.2293
     18  O        169.1650   70.4000  189.6870 O.2   191  ASP191     -0.2864
     19  CB       167.4170   67.6010  190.0650 C.3   191  ASP191      0.1436
     20  CG       168.2780   66.5880  189.3700 C.2   191  ASP191      0.3671
     21  OD1      169.3420   66.2600  189.8580 O.co2 191  ASP191     -0.2456
     22  OD2      167.8910   66.1100  188.3260 O.co2 191  ASP191     -0.2456
     23  N        171.0770   71.6290  191.8410 N.3   194  ASN194     -0.1240
     24  CA       172.3350   71.1010  191.3360 C.3   194  ASN194      0.1653
     25  C        172.6100   71.6830  189.9820 C.2   194  ASN194      0.2266
     26  O        173.7060   72.1940  189.7210 O.2   194  ASN194     -0.2867
     27  CB       172.4630   69.5790  191.4180 C.3   194  ASN194      0.1155
     28  CG       172.3370   69.0590  192.8490 C.2   194  ASN194      0.2627
     29  OD1      172.6080   69.7850  193.8080 O.2   194  ASN194     -0.2716
     30  ND2      171.9410   67.7930  192.9960 N.am  194  ASN194     -0.0877
     31  N        169.8240   72.4480  199.4870 N.3   206  GLN206     -0.1231
     32  CA       168.8600   71.7450  198.6470 C.3   206  GLN206      0.1698
     33  C        168.5800   70.3730  199.1900 C.2   206  GLN206      0.2592
     34  O        169.5230   69.6120  199.4090 O.2   206  GLN206     -0.2718
     35  CB       169.1260   71.7960  197.1390 C.3   206  GLN206      0.0381
     36  CG       170.4580   71.2180  196.7090 C.3   206  GLN206      0.0905
     37  CD       171.6250   72.1760  196.9110 C.2   206  GLN206      0.2608
     38  OE1      171.8640   72.6770  198.0130 O.2   206  GLN206     -0.2717
     39  NE2      172.3650   72.4280  195.8380 N.am  206  GLN206     -0.0878
     40  N        167.3130   70.0690  199.4380 N.am  207  GLY207     -0.1957
     41  CA       166.9530   68.7740  199.9750 C.3   207  GLY207      0.1869
     42  C        166.5150   68.9310  201.4100 C.2   207  GLY207      0.2309
     43  O        165.8920   68.0360  201.9870 O.2   207  GLY207     -0.2863
     44  N        174.0040   69.2190  182.0960 N.3   224  TYR224     -0.1241
     45  CA       173.4480   68.5750  183.2740 C.3   224  TYR224      0.1605
     46  C        172.6720   67.3170  182.9690 C.2   224  TYR224      0.2264
     47  O        172.1060   67.1970  181.8820 O.2   224  TYR224     -0.2867
     48  CB       172.7330   69.5400  184.2100 C.3   224  TYR224      0.0534
     49  CG       172.4440   68.9840  185.5860 C.ar  224  TYR224     -0.0201
     50  CD1      173.3020   69.2390  186.6570 C.ar  224  TYR224     -0.0009
     51  CD2      171.2870   68.2360  185.8330 C.ar  224  TYR224     -0.0009
     52  CE1      173.0080   68.7740  187.9460 C.ar  224  TYR224      0.0417
     53  CE2      170.9880   67.7620  187.1130 C.ar  224  TYR224      0.0417
     54  CZ       171.8480   68.0390  188.1640 C.ar  224  TYR224      0.1957
     55  OH       171.5290   67.6170  189.4340 O.3   224  TYR224     -0.2866
     56  N        167.7750   63.6540  186.8890 N.3   227  LEU227     -0.1245
     57  CA       167.5990   62.4130  187.6360 C.3   227  LEU227      0.1561
     58  C        166.4820   61.5370  187.0980 C.2   227  LEU227      0.2260
     59  O        165.6720   62.0000  186.2870 O.2   227  LEU227     -0.2867
     60  CB       167.5620   62.5920  189.1460 C.3   227  LEU227      0.0270
     61  CG       166.2060   63.0460  189.6810 C.3   227  LEU227      0.0019
     62  CD1      166.1130   62.7820  191.1650 C.3   227  LEU227      0.0001
     63  CD2      166.0160   64.5070  189.3860 C.3   227  LEU227      0.0001
     64  N        166.8830   55.4730  190.7450 N.3   253  GLN253     -0.1245
     65  CA       167.4240   56.1270  191.9320 C.3   253  GLN253      0.1566
     66  C        166.5540   55.7930  193.1260 C.2   253  GLN253      0.2260
     67  O        165.6860   56.5730  193.5100 O.2   253  GLN253     -0.2867
     68  CB       167.7160   57.6150  191.7270 C.3   253  GLN253      0.0367
     69  CG       168.2260   58.3380  192.9610 C.3   253  GLN253      0.0905
     70  CD       168.7310   59.7350  192.6460 C.2   253  GLN253      0.2608
     71  OE1      168.8970   60.5710  193.5360 O.2   253  GLN253     -0.2717
     72  NE2      168.9900   59.9880  191.3750 N.am  253  GLN253     -0.0878
     73  N        166.6780   55.9150  196.2860 N.3   255  ASP255     -0.1225
     74  CA       166.4590   56.8410  197.3860 C.3   255  ASP255      0.1805
     75  C        165.5450   58.0010  197.1030 C.2   255  ASP255      0.2598
     76  O        165.8100   59.1210  197.5080 O.2   255  ASP255     -0.2718
     77  CB       167.6910   57.1770  198.1970 C.3   255  ASP255      0.1424
     78  CG       168.7290   57.8620  197.3760 C.2   255  ASP255      0.3668
     79  OD1      168.3320   58.7260  196.5610 O.co2 255  ASP255     -0.2456
     80  OD2      169.9310   57.5470  197.5380 O.co2 255  ASP255     -0.2456
     81  N        164.4740   57.7390  196.3830 N.am  256  THR256     -0.1953
     82  CA       163.4980   58.7640  196.0850 C.3   256  THR256      0.1897
     83  C        162.1340   58.1390  196.2160 C.2   256  THR256      0.2313
     84  O        161.1060   58.8180  196.1340 O.2   256  THR256     -0.2863
     85  CB       163.7270   59.3450  194.6730 C.3   256  THR256      0.1794
     86  OG1      163.6330   58.3060  193.6990 O.3   256  THR256     -0.2208
     87  CG2      165.1130   59.9540  194.5760 C.3   256  THR256      0.0378
@<TRIPOS>BOND
     1    47    46    2
     2    44    45    1
     3    46    45    1
     4    45    48    1
     5    48    49    1
     6    49    51   ar
     7    49    50   ar
     8    51    53   ar
     9    59    58    2
    10    50    52   ar
    11    56    57    1
    12    58    57    1
    13    53    54   ar
    14    57    60    1
    15    52    54   ar
    16    54    55    1
    17    22    20   ar
    18    60    61    1
    19    20    21   ar
    20    20    19    1
    21    63    61    1
    22    61    62    1
    23    18    17    2
    24    26    25    2
    25    25    24    1
    26    19    16    1
    27    17    16    1
    28    64    65    1
    29    16    15    1
    30    24    27    1
    31    24    23    1
    32    72    70   am
    33    27    28    1
    34    68    65    1
    35    68    69    1
    36    65    66    1
    37    15    10   am
    38    70    69    1
    39    70    71    2
    40    28    30   am
    41    28    29    2
    42    11    10    2
    43    66    67    2
    44    10     9    1
    45     4     3    2
    46     3     2    1
    47    86    85    1
    48     5     2    1
    49     5     6    1
    50     8     9    1
    51    87    85    1
    52     9    12    1
    53    85    82    1
    54     2     1    1
    55    12    13    1
    56    12    14    1
    57     6     7    1
    58     1     7    1
    59    39    37   am
    60    82    83    1
    61    82    81    1
    62    84    83    2
    63    73    74    1
    64    81    75   am
    65    79    78   ar
    66    36    37    1
    67    36    35    1
    68    37    38    2
    69    75    74    1
    70    75    76    2
    71    35    32    1
    72    78    80   ar
    73    78    77    1
    74    74    77    1
    75    32    33    1
    76    32    31    1
    77    33    34    2
    78    33    40   am
    79    40    41    1
    80    41    42    1
    81    42    43    2
