@<TRIPOS>MOLECULE
tmp/3swiA03.pdb
 93 88 0 0 0
SMALL
GASTEIGER

@<TRIPOS>ATOM
      1  N        140.8390   61.2770  168.1340 N.3     1  MET1       -0.1245
      2  CA       141.4000   61.3970  169.5130 C.3     1  MET1        0.1570
      3  C        141.9530   60.0880  170.0150 C.2     1  MET1        0.2261
      4  O        141.2520   59.0740  170.0150 O.2     1  MET1       -0.2867
      5  CB       140.3260   61.8890  170.4720 C.3     1  MET1        0.0387
      6  CG       140.7740   61.9320  171.9090 C.3     1  MET1        0.0595
      7  SD       139.7590   63.1090  172.7640 S.3     1  MET1       -0.1393
      8  CE       140.4960   64.6700  172.1080 C.3     1  MET1        0.0692
      9  N        148.3170   83.3250  177.2400 N.3    83  TYR83      -0.1241
     10  CA       147.1640   82.6280  177.8070 C.3    83  TYR83       0.1605
     11  C        146.9070   81.2900  177.1320 C.2    83  TYR83       0.2264
     12  O        146.7330   80.2710  177.8000 O.2    83  TYR83      -0.2867
     13  CB       145.9420   83.5340  177.8690 C.3    83  TYR83       0.0534
     14  CG       144.6430   82.8260  178.1350 C.ar   83  TYR83      -0.0201
     15  CD1      144.2020   82.6000  179.4390 C.ar   83  TYR83      -0.0009
     16  CD2      143.8510   82.3760  177.0790 C.ar   83  TYR83      -0.0009
     17  CE1      142.9980   81.9450  179.6870 C.ar   83  TYR83       0.0417
     18  CE2      142.6440   81.7170  177.3140 C.ar   83  TYR83       0.0417
     19  CZ       142.2170   81.5070  178.6210 C.ar   83  TYR83       0.1957
     20  OH       140.9990   80.8940  178.8510 O.3    83  TYR83      -0.2866
     21  N        147.1100   77.9850  179.5760 N.3    87  LYS87      -0.1231
     22  CA       145.8580   77.2760  179.8040 C.3    87  LYS87       0.1693
     23  C        145.9080   75.7860  179.5700 C.2    87  LYS87       0.2592
     24  O        144.8770   75.1210  179.6950 O.2    87  LYS87      -0.2718
     25  CB       144.6550   77.9470  179.1550 C.3    87  LYS87       0.0285
     26  CG       144.6280   77.8770  177.6300 C.3    87  LYS87       0.0035
     27  CD       143.2820   78.3750  177.0810 C.3    87  LYS87       0.0206
     28  CE       143.1430   78.1490  175.5690 C.3    87  LYS87       0.1093
     29  NZ       141.7340   78.3370  175.0830 N.3    87  LYS87      -0.1314
     30  N        147.0810   75.2610  179.2290 N.am   88  THR88      -0.1953
     31  CA       147.2240   73.8380  178.9500 C.3    88  THR88       0.1897
     32  C        148.2690   73.2170  179.8190 C.2    88  THR88       0.2313
     33  O        148.4710   71.9950  179.8170 O.2    88  THR88      -0.2863
     34  CB       147.6270   73.5940  177.4760 C.3    88  THR88       0.1794
     35  OG1      148.9800   74.0080  177.2770 O.3    88  THR88      -0.2208
     36  CG2      146.7300   74.3660  176.5380 C.3    88  THR88       0.0378
     37  N        144.0880   79.6690  185.5360 N.3   112  GLY112     -0.1210
     38  CA       142.7500   79.5070  186.0710 C.3   112  GLY112      0.1956
     39  C        142.6560   78.1460  186.7560 C.2   112  GLY112      0.2612
     40  O        143.6670   77.6130  187.2450 O.2   112  GLY112     -0.2717
     41  N        141.4640   77.5600  186.7770 N.am  113  GLY113     -0.1956
     42  CA       141.2960   76.2770  187.4370 C.3   113  GLY113      0.1869
     43  C        141.9380   75.0400  186.8240 C.2   113  GLY113      0.2309
     44  O        142.3740   75.0290  185.6760 O.2   113  GLY113     -0.2863
     45  N        141.4960   70.5110  186.9950 N.3   114  ALA114     -0.1245
     46  CA       140.6210   69.4320  187.4150 C.3   114  ALA114      0.1562
     47  C        141.0050   68.7830  188.7270 C.2   114  ALA114      0.2260
     48  O        140.1140   68.3240  189.4540 O.2   114  ALA114     -0.2867
     49  CB       140.5340   68.3800  186.3210 C.3   114  ALA114      0.0290
     50  N        140.6550   59.7150  176.2350 N.3   389  ARG389     -0.1245
     51  CA       141.4160   60.9060  176.6000 C.3   389  ARG389      0.1563
     52  C        142.8340   60.6750  177.0100 C.2   389  ARG389      0.2260
     53  O        143.3650   61.4650  177.7940 O.2   389  ARG389     -0.2867
     54  CB       140.6670   61.8620  177.5300 C.3   389  ARG389      0.0307
     55  CG       139.3610   62.3320  176.9640 C.3   389  ARG389      0.0489
     56  CD       138.7120   63.3930  177.8220 C.3   389  ARG389      0.2205
     57  NE       137.3570   63.6490  177.3490 N.pl3 389  ARG389     -0.0865
     58  CZ       136.4520   64.4010  177.9660 C.cat 389  ARG389      0.5346
     59  NH1      136.7310   65.0120  179.1110 N.pl3 389  ARG389      0.1354
     60  NH2      135.2390   64.5100  177.4450 N.pl3 389  ARG389      0.1354
     61  N        145.3040   61.5910  176.0790 N.3   391  TYR391     -0.1227
     62  CA       146.1450   62.7570  175.8890 C.3   391  TYR391      0.1736
     63  C        146.7440   63.1820  177.2040 C.2   391  TYR391      0.2595
     64  O        147.8300   63.7480  177.2360 O.2   391  TYR391     -0.2718
     65  CB       145.4840   63.8750  175.0920 C.3   391  TYR391      0.0548
     66  CG       144.2350   64.4450  175.7290 C.ar  391  TYR391     -0.0200
     67  CD1      144.3150   65.3020  176.8270 C.ar  391  TYR391     -0.0009
     68  CD2      142.9590   64.1150  175.2400 C.ar  391  TYR391     -0.0009
     69  CE1      143.1600   65.8230  177.4240 C.ar  391  TYR391      0.0417
     70  CE2      141.7940   64.6290  175.8370 C.ar  391  TYR391      0.0417
     71  CZ       141.9080   65.4840  176.9290 C.ar  391  TYR391      0.1957
     72  OH       140.7780   65.9930  177.5260 O.3   391  TYR391     -0.2866
     73  N        146.0290   62.8930  178.2890 N.am  392  HIS392     -0.1975
     74  CA       146.4960   63.2020  179.6420 C.3   392  HIS392      0.1656
     75  C        147.7650   62.4620  179.9870 C.2   392  HIS392      0.2291
     76  O        148.7400   63.0340  180.4760 O.2   392  HIS392     -0.2864
     77  CB       145.4280   62.9520  180.7010 C.3   392  HIS392      0.0771
     78  CG       144.2780   63.8950  180.6310 C.ar  392  HIS392      0.0820
     79  ND1      142.9670   63.4680  180.6130 N.ar  392  HIS392     -0.2267
     80  CD2      144.2410   65.2420  180.5230 C.ar  392  HIS392      0.1154
     81  CE1      142.1700   64.5120  180.4880 C.ar  392  HIS392      0.1986
     82  NE2      142.9190   65.5990  180.4300 N.ar  392  HIS392     -0.2212
     83  N        151.2170   63.1900  178.6530 N.3   395  ARG395     -0.1245
     84  CA       151.8260   64.3470  179.2820 C.3   395  ARG395      0.1563
     85  C        152.8930   63.9880  180.2760 C.2   395  ARG395      0.2260
     86  O        153.9370   64.6430  180.3310 O.2   395  ARG395     -0.2867
     87  CB       150.8080   65.3250  179.8520 C.3   395  ARG395      0.0307
     88  CG       150.2770   66.3420  178.8700 C.3   395  ARG395      0.0489
     89  CD       150.1990   67.7110  179.5350 C.3   395  ARG395      0.2205
     90  NE       149.0650   67.8390  180.4450 N.pl3 395  ARG395     -0.0865
     91  CZ       149.0000   68.7080  181.4500 C.cat 395  ARG395      0.5346
     92  NH1      150.0040   69.5300  181.7090 N.pl3 395  ARG395      0.1354
     93  NH2      147.9020   68.7870  182.1760 N.pl3 395  ARG395      0.1354
@<TRIPOS>BOND
     1     1     2    1
     2     2     3    1
     3     2     5    1
     4     3     4    2
     5     5     6    1
     6     6     7    1
     7     8     7    1
     8    29    28    1
     9    65    66    1
    10    65    62    1
    11    68    66   ar
    12    68    70   ar
    13    28    27    1
    14    66    67   ar
    15    70    71   ar
    16    62    61    1
    17    62    63    1
    18    50    51    1
    19    36    34    1
    20    51    52    1
    21    51    54    1
    22    67    69   ar
    23    71    69   ar
    24    71    72    1
    25    55    54    1
    26    55    56    1
    27    52    53    2
    28    16    18   ar
    29    16    14   ar
    30    27    26    1
    31    11    12    2
    32    11    10    1
    33    63    64    2
    34    63    73   am
    35     9    10    1
    36    35    34    1
    37    18    19   ar
    38    57    56    1
    39    57    58    2
    40    60    58    1
    41    34    31    1
    42    26    25    1
    43    10    13    1
    44    13    14    1
    45    58    59    1
    46    14    15   ar
    47    73    74    1
    48    19    20    1
    49    19    17   ar
    50    83    84    1
    51    88    89    1
    52    88    87    1
    53    31    30    1
    54    31    32    1
    55    25    22    1
    56    30    23   am
    57    84    87    1
    58    84    85    1
    59    15    17   ar
    60    89    90    1
    61    23    24    2
    62    23    22    1
    63    21    22    1
    64    74    75    1
    65    74    77    1
    66    33    32    2
    67    75    76    2
    68    85    86    2
    69    82    81   ar
    70    82    80   ar
    71    90    91    2
    72    81    79   ar
    73    80    78   ar
    74    79    78   ar
    75    78    77    1
    76    91    92    1
    77    91    93    1
    78    37    38    1
    79    44    43    2
    80    38    39    1
    81    49    46    1
    82    39    41   am
    83    39    40    2
    84    41    42    1
    85    43    42    1
    86    45    46    1
    87    46    47    1
    88    47    48    2
