@<TRIPOS>MOLECULE
tmp/3swjA01.pdb
 92 86 0 0 0
SMALL
GASTEIGER

@<TRIPOS>ATOM
      1  N         57.8100  -31.7850    3.2650 N.3     5  ILE5       -0.1245
      2  CA        56.4860  -31.5610    3.8350 C.3     5  ILE5        0.1561
      3  C         55.4800  -32.5610    3.2820 C.2     5  ILE5        0.2260
      4  O         54.5750  -32.9950    3.9930 O.2     5  ILE5       -0.2867
      5  CB        55.9670  -30.1380    3.5630 C.3     5  ILE5        0.0252
      6  CG1       56.7750  -29.4800    2.4440 C.3     5  ILE5        0.0019
      7  CG2       56.0160  -29.3030    4.8350 C.3     5  ILE5        0.0019
      8  CD1       55.9720  -28.5120    1.6040 C.3     5  ILE5        0.0001
      9  N         56.0920  -35.2540    5.5970 N.3     8  HIS8       -0.1226
     10  CA        55.5890  -34.9450    6.9330 C.3     8  HIS8        0.1752
     11  C         54.0640  -34.8710    6.9900 C.2     8  HIS8        0.2595
     12  O         53.4600  -35.3170    7.9650 O.2     8  HIS8       -0.2718
     13  CB        56.1970  -33.6420    7.4630 C.3     8  HIS8        0.0759
     14  CG        55.7750  -33.3000    8.8610 C.ar    8  HIS8        0.0818
     15  ND1       55.5510  -32.0050    9.2780 N.ar    8  HIS8       -0.2268
     16  CD2       55.5410  -34.0850    9.9390 C.ar    8  HIS8        0.1154
     17  CE1       55.1930  -32.0060   10.5450 C.ar    8  HIS8        0.1986
     18  NE2       55.1790  -33.2590   10.9760 N.ar    8  HIS8       -0.2212
     19  N         53.4410  -34.3020    5.9620 N.am    9  MET9       -0.1979
     20  CA        51.9870  -34.2010    5.9360 C.3     9  MET9        0.1605
     21  C         51.3620  -35.5880    5.7680 C.2     9  MET9        0.2287
     22  O         50.3080  -35.8770    6.3350 O.2     9  MET9       -0.2864
     23  CB        51.5300  -33.2600    4.8190 C.3     9  MET9        0.0413
     24  CG        52.0100  -31.8490    4.9920 C.3     9  MET9        0.0598
     25  SD        51.2710  -30.9840    6.4330 S.3     9  MET9       -0.1393
     26  CE        49.6320  -30.6790    5.8660 C.3     9  MET9        0.0692
     27  N         49.1830  -36.3020   10.5160 N.3    13  HIS13      -0.1241
     28  CA        47.9560  -35.5990   10.1370 C.3    13  HIS13       0.1621
     29  C         47.5980  -35.6260    8.6430 C.2    13  HIS13       0.2264
     30  O         47.8040  -34.6450    7.9260 O.2    13  HIS13      -0.2867
     31  CB        47.9090  -34.1600   10.6900 C.3    13  HIS13       0.0745
     32  CG        49.1420  -33.3450   10.4170 C.ar   13  HIS13       0.0817
     33  ND1       50.1270  -33.1540   11.3380 N.ar   13  HIS13      -0.2268
     34  CD2       49.5110  -32.6450    9.3010 C.ar   13  HIS13       0.1154
     35  CE1       51.0820  -32.3850   10.8210 C.ar   13  HIS13       0.1986
     36  NE2       50.7260  -32.0720    9.5960 N.ar   13  HIS13      -0.2212
     37  N         44.1930  -34.1140    8.9200 N.3    16  ASN16      -0.1240
     38  CA        43.9610  -32.7420    8.4860 C.3    16  ASN16       0.1653
     39  C         43.8390  -32.6340    6.9680 C.2    16  ASN16       0.2266
     40  O         43.3040  -31.6530    6.4530 O.2    16  ASN16      -0.2867
     41  CB        45.0500  -31.8040    9.0170 C.3    16  ASN16       0.1155
     42  CG        45.0510  -31.7110   10.5350 C.2    16  ASN16       0.2627
     43  OD1       44.0270  -31.9290   11.1850 O.2    16  ASN16      -0.2716
     44  ND2       46.2040  -31.3830   11.1070 N.am   16  ASN16      -0.0877
     45  N         55.5250  -22.8580    4.1040 N.3    63  LYS63      -0.1245
     46  CA        55.3000  -23.7240    5.2560 C.3    63  LYS63       0.1561
     47  C         54.0820  -23.2530    6.0520 C.2    63  LYS63       0.2260
     48  O         53.2360  -24.0580    6.4370 O.2    63  LYS63      -0.2867
     49  CB        56.5410  -23.7720    6.1490 C.3    63  LYS63       0.0271
     50  CG        57.7830  -24.3110    5.4740 C.3    63  LYS63       0.0035
     51  CD        57.5590  -25.7280    4.9880 C.3    63  LYS63       0.0206
     52  CE        58.8780  -26.4100    4.6670 C.3    63  LYS63       0.1093
     53  NZ        59.6900  -25.5430    3.7690 N.3    63  LYS63      -0.1314
     54  N         50.3060  -23.3330    4.4320 N.3    66  ILE66      -0.1231
     55  CA        49.7310  -24.6710    4.4400 C.3    66  ILE66       0.1692
     56  C         49.1060  -25.0250    5.7910 C.2    66  ILE66       0.2591
     57  O         48.0730  -25.6930    5.8500 O.2    66  ILE66      -0.2718
     58  CB        50.7840  -25.7260    4.0440 C.3    66  ILE66       0.0266
     59  CG1       51.2860  -25.4620    2.6210 C.3    66  ILE66       0.0019
     60  CG2       50.2140  -27.1280    4.1660 C.3    66  ILE66       0.0020
     61  CD1       52.1480  -26.5730    2.0550 C.3    66  ILE66       0.0001
     62  N         49.7290  -24.5750    6.8760 N.am   67  ILE67      -0.1980
     63  CA        49.1880  -24.8120    8.2090 C.3    67  ILE67       0.1595
     64  C         47.9390  -23.9680    8.4240 C.2    67  ILE67       0.2287
     65  O         46.9850  -24.4030    9.0720 O.2    67  ILE67      -0.2864
     66  CB        50.2090  -24.4720    9.2990 C.3    67  ILE67       0.0276
     67  CG1       51.5840  -25.0260    8.9230 C.3    67  ILE67       0.0022
     68  CG2       49.7420  -25.0160   10.6420 C.3    67  ILE67       0.0022
     69  CD1       52.7360  -24.3020    9.5850 C.3    67  ILE67       0.0001
     70  N         45.1120  -25.4510    6.7000 N.3    70  CYS70      -0.1221
     71  CA        44.6300  -26.6170    7.4400 C.3    70  CYS70       0.1808
     72  C         43.8070  -26.2650    8.6820 C.2    70  CYS70       0.2601
     73  O         42.7560  -26.8640    8.9250 O.2    70  CYS70      -0.2717
     74  CB        45.8030  -27.5220    7.8340 C.3    70  CYS70       0.0970
     75  SG        46.4880  -28.5230    6.4890 S.3    70  CYS70      -0.0800
     76  N         44.2960  -25.3090    9.4700 N.am   71  MET71      -0.1979
     77  CA        43.5990  -24.8830   10.6830 C.3    71  MET71       0.1605
     78  C         42.2200  -24.2950   10.4000 C.2    71  MET71       0.2287
     79  O         41.3180  -24.4310   11.2120 O.2    71  MET71      -0.2864
     80  CB        44.4500  -23.9060   11.5080 C.3    71  MET71       0.0413
     81  CG        45.2970  -24.5560   12.5930 C.3    71  MET71       0.0598
     82  SD        44.3690  -25.7400   13.5960 S.3    71  MET71      -0.1393
     83  CE        44.8650  -25.2890   15.2620 C.3    71  MET71       0.0692
     84  N         39.7780  -27.0550    9.8340 N.3    74  LYS74      -0.1245
     85  CA        39.4500  -27.7250   11.0820 C.3    74  LYS74       0.1561
     86  C         38.0410  -27.3210   11.5080 C.2    74  LYS74       0.2260
     87  O         37.7020  -26.1360   11.5450 O.2    74  LYS74      -0.2867
     88  CB        40.4800  -27.3760   12.1580 C.3    74  LYS74       0.0271
     89  CG        40.6550  -28.4490   13.2200 C.3    74  LYS74       0.0035
     90  CD        42.1140  -28.5490   13.6480 C.3    74  LYS74       0.0206
     91  CE        42.2960  -29.5300   14.7920 C.3    74  LYS74       0.1093
     92  NZ        43.7280  -29.8780   15.0180 N.3    74  LYS74      -0.1314
@<TRIPOS>BOND
     1     8     6    1
     2    61    59    1
     3     6     5    1
     4    59    58    1
     5     1     2    1
     6     3     2    1
     7     3     4    2
     8     5     2    1
     9     5     7    1
    10    53    52    1
    11    58    60    1
    12    58    55    1
    13    45    46    1
    14    54    55    1
    15    55    56    1
    16    52    51    1
    17    23    24    1
    18    23    20    1
    19    51    50    1
    20    24    25    1
    21    46    47    1
    22    46    49    1
    23    50    49    1
    24     9    10    1
    25    21    20    1
    26    21    22    2
    27    56    57    2
    28    56    62   am
    29    26    25    1
    30    20    19    1
    31    19    11   am
    32    47    48    2
    33    40    39    2
    34    75    74    1
    35    70    71    1
    36    62    63    1
    37    10    11    1
    38    10    13    1
    39    39    38    1
    40    11    12    2
    41    71    74    1
    42    71    72    1
    43    13    14    1
    44    30    29    2
    45    63    64    1
    46    63    66    1
    47    64    65    2
    48    38    37    1
    49    38    41    1
    50    29    28    1
    51    72    73    2
    52    72    76   am
    53    14    15   ar
    54    14    16   ar
    55    67    66    1
    56    67    69    1
    57    41    42    1
    58    15    17   ar
    59    66    68    1
    60    34    36   ar
    61    34    32   ar
    62    76    77    1
    63    36    35   ar
    64    84    85    1
    65    16    18   ar
    66    28    27    1
    67    28    31    1
    68    78    77    1
    69    78    79    2
    70    32    31    1
    71    32    33   ar
    72    42    44   am
    73    42    43    2
    74    17    18   ar
    75    77    80    1
    76    35    33   ar
    77    85    86    1
    78    85    88    1
    79    80    81    1
    80    86    87    2
    81    88    89    1
    82    81    82    1
    83    89    90    1
    84    82    83    1
    85    90    91    1
    86    91    92    1
