@<TRIPOS>MOLECULE
tmp/3swjA00.pdb
 149 144 0 0 0
SMALL
GASTEIGER

@<TRIPOS>ATOM
      1  N         36.1300  -29.9020    2.5820 N.3    23  LYS23      -0.1231
      2  CA        35.8570  -28.4700    2.6060 C.3    23  LYS23       0.1693
      3  C         36.2430  -27.7360    1.3180 C.2    23  LYS23       0.2592
      4  O         35.6880  -26.6820    1.0080 O.2    23  LYS23      -0.2718
      5  CB        36.5270  -27.8380    3.8290 C.3    23  LYS23       0.0285
      6  CG        37.4720  -26.6910    3.5200 C.3    23  LYS23       0.0035
      7  CD        36.9540  -25.3710    4.0780 C.3    23  LYS23       0.0206
      8  CE        37.8400  -24.2070    3.6590 C.3    23  LYS23       0.1093
      9  NZ        39.1880  -24.2970    4.2860 N.3    23  LYS23      -0.1314
     10  N         37.1920  -28.2930    0.5750 N.am   24  PHE24      -0.1976
     11  CA        37.5630  -27.7440   -0.7250 C.3    24  PHE24       0.1639
     12  C         37.0000  -28.6090   -1.8470 C.2    24  PHE24       0.2290
     13  O         37.1500  -28.2890   -3.0300 O.2    24  PHE24      -0.2864
     14  CB        39.0810  -27.6310   -0.8490 C.3    24  PHE24       0.0560
     15  CG        39.6460  -26.3820   -0.2410 C.ar   24  PHE24      -0.0200
     16  CD1       39.9510  -26.3220    1.1090 C.ar   24  PHE24      -0.0042
     17  CD2       39.8700  -25.2620   -1.0250 C.ar   24  PHE24      -0.0042
     18  CE1       40.4710  -25.1660    1.6650 C.ar   24  PHE24      -0.0003
     19  CE2       40.3880  -24.1050   -0.4770 C.ar   24  PHE24      -0.0003
     20  CZ        40.6890  -24.0560    0.8700 C.ar   24  PHE24      -0.0000
     21  N         38.5940  -11.5850   -4.5570 N.3   157  ILE157     -0.1245
     22  CA        37.4670  -12.4330   -4.1860 C.3   157  ILE157      0.1561
     23  C         37.4580  -12.7570   -2.6990 C.2   157  ILE157      0.2260
     24  O         36.6100  -13.5150   -2.2350 O.2   157  ILE157     -0.2867
     25  CB        37.4590  -13.7640   -4.9690 C.3   157  ILE157      0.0252
     26  CG1       38.6190  -14.6550   -4.5150 C.3   157  ILE157      0.0019
     27  CG2       37.5040  -13.5090   -6.4750 C.3   157  ILE157      0.0019
     28  CD1       38.4100  -16.1250   -4.8300 C.3   157  ILE157      0.0001
     29  N         35.8040   -8.2290    5.5000 N.3   161  ARG161     -0.1245
     30  CA        34.6970   -7.2840    5.5970 C.3   161  ARG161      0.1563
     31  C         33.9020   -7.4730    6.8850 C.2   161  ARG161      0.2260
     32  O         33.7780   -8.5910    7.3920 O.2   161  ARG161     -0.2867
     33  CB        33.7770   -7.4110    4.3680 C.3   161  ARG161      0.0307
     34  CG        32.8650   -8.6340    4.3800 C.3   161  ARG161      0.0489
     35  CD        32.5180   -9.1040    2.9690 C.3   161  ARG161      0.2205
     36  NE        33.5540   -9.9730    2.4070 N.pl3 161  ARG161     -0.0865
     37  CZ        33.3510  -11.2240    2.0020 C.cat 161  ARG161      0.5346
     38  NH1       34.3560  -11.9360    1.5090 N.pl3 161  ARG161      0.1354
     39  NH2       32.1400  -11.7620    2.0830 N.pl3 161  ARG161      0.1354
     40  N         30.1380   -6.1420    8.5410 N.3   163  ARG163     -0.1245
     41  CA        28.8810   -5.4660    8.2040 C.3   163  ARG163      0.1563
     42  C         27.8950   -5.4120    9.3720 C.2   163  ARG163      0.2260
     43  O         27.5780   -6.4400    9.9730 O.2   163  ARG163     -0.2867
     44  CB        28.2060   -6.1570    7.0150 C.3   163  ARG163      0.0307
     45  CG        28.9560   -6.0550    5.6940 C.3   163  ARG163      0.0489
     46  CD        28.4490   -7.1070    4.7090 C.3   163  ARG163      0.2205
     47  NE        26.9890   -7.2050    4.7330 N.pl3 163  ARG163     -0.0865
     48  CZ        26.3070   -8.3450    4.6450 C.cat 163  ARG163      0.5346
     49  NH1       26.9460   -9.4990    4.5180 N.pl3 163  ARG163      0.1354
     50  NH2       24.9820   -8.3320    4.6850 N.pl3 163  ARG163      0.1354
     51  N         28.1180   -9.2090   10.8280 N.3   214  ARG214     -0.1245
     52  CA        28.6010  -10.3000    9.9850 C.3   214  ARG214      0.1563
     53  C         30.0580  -10.0240    9.6380 C.2   214  ARG214      0.2260
     54  O         30.3920   -8.9570    9.1170 O.2   214  ARG214     -0.2867
     55  CB        27.7540  -10.4140    8.7100 C.3   214  ARG214      0.0307
     56  CG        28.3810  -11.2200    7.5740 C.3   214  ARG214      0.0489
     57  CD        28.5260  -12.6850    7.9250 C.3   214  ARG214      0.2205
     58  NE        27.2480  -13.3440    8.1950 N.pl3 214  ARG214     -0.0865
     59  CZ        26.5230  -13.9800    7.2790 C.cat 214  ARG214      0.5346
     60  NH1       26.9340  -14.0310    6.0210 N.pl3 214  ARG214      0.1354
     61  NH2       25.3800  -14.5630    7.6200 N.pl3 214  ARG214      0.1354
     62  N         33.6080  -11.6490    7.7860 N.3   216  VAL216     -0.1245
     63  CA        34.2350  -12.6510    6.9230 C.3   216  VAL216      0.1561
     64  C         35.7450  -12.4110    6.8580 C.2   216  VAL216      0.2260
     65  O         36.1890  -11.3370    6.4420 O.2   216  VAL216     -0.2867
     66  CB        33.6590  -12.6160    5.4870 C.3   216  VAL216      0.0252
     67  CG1       34.3690  -13.6400    4.6010 C.3   216  VAL216      0.0019
     68  CG2       32.1620  -12.8680    5.5010 C.3   216  VAL216      0.0019
     69  N         37.9830  -17.9620    3.4370 N.3   219  PHE219     -0.1227
     70  CA        37.1330  -19.0410    2.9390 C.3   219  PHE219      0.1736
     71  C         36.6920  -19.9720    4.0600 C.2   219  PHE219      0.2596
     72  O         37.5230  -20.5030    4.7980 O.2   219  PHE219     -0.2718
     73  CB        37.8640  -19.8370    1.8590 C.3   219  PHE219      0.0547
     74  CG        38.2900  -19.0040    0.6850 C.ar  219  PHE219     -0.0202
     75  CD1       37.4550  -18.0180    0.1810 C.ar  219  PHE219     -0.0042
     76  CD2       39.5310  -19.1930    0.0950 C.ar  219  PHE219     -0.0042
     77  CE1       37.8440  -17.2390   -0.8980 C.ar  219  PHE219     -0.0003
     78  CE2       39.9280  -18.4160   -0.9830 C.ar  219  PHE219     -0.0003
     79  CZ        39.0820  -17.4380   -1.4800 C.ar  219  PHE219     -0.0000
     80  N         35.3820  -20.1690    4.1800 N.am  220  GLY220     -0.1957
     81  CA        34.8280  -20.9860    5.2440 C.3   220  GLY220      0.1869
     82  C         34.8560  -20.2880    6.5910 C.2   220  GLY220      0.2309
     83  O         34.6110  -20.9080    7.6270 O.2   220  GLY220     -0.2863
     84  N         33.0450  -17.2950    7.9400 N.3   222  ALA222     -0.1245
     85  CA        32.0440  -16.2460    8.1310 C.3   222  ALA222      0.1562
     86  C         31.3940  -16.3660    9.5120 C.2   222  ALA222      0.2260
     87  O         30.9850  -17.4540    9.9230 O.2   222  ALA222     -0.2867
     88  CB        30.9850  -16.3090    7.0340 C.3   222  ALA222      0.0290
     89  N         29.8970  -19.0640   14.3030 N.3   232  HIS232     -0.1226
     90  CA        30.2820  -19.5900   12.9880 C.3   232  HIS232      0.1752
     91  C         29.0060  -20.0150   12.2650 C.2   232  HIS232      0.2596
     92  O         28.0030  -20.3190   12.9150 O.2   232  HIS232     -0.2718
     93  CB        31.2670  -20.7580   13.0930 C.3   232  HIS232      0.0759
     94  CG        32.0570  -20.9970   11.8350 C.ar  232  HIS232      0.0818
     95  ND1       31.4670  -21.0420   10.5920 N.ar  232  HIS232     -0.2268
     96  CD2       33.3750  -21.2130   11.6430 C.ar  232  HIS232      0.1154
     97  CE1       32.4050  -21.2700    9.6750 C.ar  232  HIS232      0.1986
     98  NE2       33.5620  -21.3760   10.2870 N.ar  232  HIS232     -0.2212
     99  N         29.0280  -20.0410   10.9320 N.am  233  VAL233     -0.1966
    100  CA        27.7540  -20.0800   10.2090 C.3   233  VAL233      0.1727
    101  C         26.8420  -21.3040   10.4230 C.2   233  VAL233      0.2616
    102  O         25.8400  -21.1490   11.1100 O.2   233  VAL233     -0.2715
    103  CB        27.8050  -19.5400    8.7640 C.3   233  VAL233      0.0290
    104  CG1       27.7600  -17.9750    8.7930 C.3   233  VAL233      0.0023
    105  CG2       29.0180  -20.0210    8.0750 C.3   233  VAL233      0.0023
    106  N         27.1190  -22.4900    9.8730 N.am  234  GLY234     -0.1955
    107  CA        28.2270  -22.7850    8.9910 C.3   234  GLY234      0.1869
    108  C         28.4930  -24.2700    9.0890 C.2   234  GLY234      0.2309
    109  O         28.8390  -24.9310    8.1080 O.2   234  GLY234     -0.2863
    110  N         27.2290  -27.6610    7.2970 N.3   237  GLY237     -0.1210
    111  CA        27.8540  -28.0950    6.0630 C.3   237  GLY237      0.1956
    112  C         28.3420  -26.9830    5.1560 C.2   237  GLY237      0.2612
    113  O         27.8710  -25.8420    5.2270 O.2   237  GLY237     -0.2717
    114  N         29.3060  -27.3350    4.3070 N.am  238  ASN238     -0.1960
    115  CA        29.7330  -26.5040    3.1900 C.3   238  ASN238      0.1804
    116  C         28.5400  -26.1820    2.2860 C.2   238  ASN238      0.2463
    117  O         27.9590  -27.0800    1.6730 O.2   238  ASN238     -0.2730
    118  CB        30.8250  -27.2330    2.3960 C.3   238  ASN238      0.1195
    119  CG        31.4980  -26.3430    1.3590 C.2   238  ASN238      0.2630
    120  OD1       30.8540  -25.5070    0.7260 O.2   238  ASN238     -0.2716
    121  ND2       32.8000  -26.5320    1.1740 N.am  238  ASN238     -0.0877
    122  N         28.1700  -24.8950    2.2020 N.am  239  PRO239     -0.2716
    123  CA        26.9560  -24.4950    1.4790 C.3   239  PRO239      0.1536
    124  C         27.1420  -24.3840   -0.0360 C.2   239  PRO239      0.2598
    125  O         26.1660  -24.1510   -0.7530 O.2   239  PRO239     -0.2715
    126  CB        26.6650  -23.1130    2.0570 C.3   239  PRO239      0.0310
    127  CG        28.0390  -22.5560    2.3310 C.3   239  PRO239      0.0237
    128  CD        28.8670  -23.7350    2.7920 C.3   239  PRO239      0.0939
    129  N         28.3730  -24.5410   -0.5150 N.am  240  HIS240     -0.1974
    130  CA        28.6570  -24.3710   -1.9360 C.3   240  HIS240      0.1656
    131  C         28.4050  -25.6550   -2.7330 C.2   240  HIS240      0.2291
    132  O         28.2890  -26.7460   -2.1620 O.2   240  HIS240     -0.2864
    133  CB        30.0880  -23.8570   -2.1430 C.3   240  HIS240      0.0771
    134  CG        30.3120  -22.4750   -1.5700 C.ar  240  HIS240      0.0820
    135  ND1       29.5840  -21.3980   -1.9380 N.ar  240  HIS240     -0.2267
    136  CD2       31.2280  -22.0530   -0.6450 C.ar  240  HIS240      0.1154
    137  CE1       30.0120  -20.3200   -1.2650 C.ar  240  HIS240      0.1986
    138  NE2       30.9930  -20.6970   -0.4930 N.ar  240  HIS240     -0.2212
    139  N         29.8710  -27.9080   -5.8460 N.3   242  PHE242     -0.1241
    140  CA        30.8790  -28.2710   -6.8360 C.3   242  PHE242      0.1605
    141  C         30.2780  -29.2430   -7.8280 C.2   242  PHE242      0.2264
    142  O         29.2420  -29.8500   -7.5660 O.2   242  PHE242     -0.2867
    143  CB        32.0810  -28.9300   -6.1640 C.3   242  PHE242      0.0534
    144  CG        32.5520  -28.2160   -4.9330 C.ar  242  PHE242     -0.0203
    145  CD1       33.6370  -27.3540   -4.9850 C.ar  242  PHE242     -0.0042
    146  CD2       31.9020  -28.4000   -3.7200 C.ar  242  PHE242     -0.0042
    147  CE1       34.0680  -26.6900   -3.8480 C.ar  242  PHE242     -0.0003
    148  CE2       32.3260  -27.7410   -2.5810 C.ar  242  PHE242     -0.0003
    149  CZ        33.4100  -26.8840   -2.6450 C.ar  242  PHE242     -0.0000
@<TRIPOS>BOND
     1   141   142    2
     2   141   140    1
     3   140   143    1
     4   140   139    1
     5    27    25    1
     6   143   144    1
     7   145   144   ar
     8   145   147   ar
     9    25    26    1
    10    25    22    1
    11   144   146   ar
    12    28    26    1
    13    21    22    1
    14    22    23    1
    15   147   149   ar
    16   146   148   ar
    17    13    12    2
    18   131   132    2
    19   131   130    1
    20    23    24    2
    21   149   148   ar
    22   133   130    1
    23   133   134    1
    24   135   134   ar
    25   135   137   ar
    26   130   129    1
    27    12    11    1
    28   134   136   ar
    29    79    78   ar
    30    79    77   ar
    31   137   138   ar
    32    17    19   ar
    33    17    15   ar
    34    78    76   ar
    35    77    75   ar
    36    14    11    1
    37    14    15    1
    38   125   124    2
    39    11    10    1
    40   136   138   ar
    41   129   124   am
    42    19    20   ar
    43    15    16   ar
    44   124   123    1
    45    76    74   ar
    46    75    74   ar
    47    10     3   am
    48    74    73    1
    49   120   119    2
    50    20    18   ar
    51     4     3    2
    52    16    18   ar
    53   121   119   am
    54     3     2    1
    55   119   118    1
    56   123   126    1
    57   123   122    1
    58    38    37    1
    59   117   116    2
    60    73    70    1
    61    37    39    1
    62    37    36    2
    63   126   127    1
    64   122   116   am
    65   122   128    1
    66   116   115    1
    67   127   128    1
    68   118   115    1
    69    36    35    1
    70     1     2    1
    71     2     5    1
    72    70    69    1
    73    70    71    1
    74    35    34    1
    75   115   114    1
    76     6     5    1
    77     6     7    1
    78     8     7    1
    79     8     9    1
    80    71    80   am
    81    71    72    2
    82    80    81    1
    83   114   112   am
    84    33    34    1
    85    33    30    1
    86    49    48    1
    87    67    66    1
    88    48    50    1
    89    48    47    2
    90    46    47    1
    91    46    45    1
    92   112   113    2
    93   112   111    1
    94    81    82    1
    95    66    68    1
    96    66    63    1
    97    29    30    1
    98    30    31    1
    99    45    44    1
   100    60    59    1
   101   111   110    1
   102    65    64    2
   103    82    83    2
   104    64    63    1
   105    31    32    2
   106    63    62    1
   107    44    41    1
   108    88    85    1
   109    59    61    1
   110    59    58    2
   111    56    57    1
   112    56    55    1
   113    57    58    1
   114    84    85    1
   115   105   103    1
   116   109   108    2
   117    85    86    1
   118    41    40    1
   119    41    42    1
   120    55    52    1
   121   103   104    1
   122   103   100    1
   123   107   108    1
   124   107   106    1
   125    54    53    2
   126    42    43    2
   127    86    87    2
   128    53    52    1
   129    97    98   ar
   130    97    95   ar
   131   106   101   am
   132    52    51    1
   133   100   101    1
   134   100    99    1
   135    98    96   ar
   136   101   102    2
   137    95    94   ar
   138    99    91   am
   139    96    94   ar
   140    94    93    1
   141    91    92    2
   142    91    90    1
   143    90    93    1
   144    90    89    1
