@<TRIPOS>MOLECULE
tmp/3swoA01.pdb
 130 124 0 0 0
SMALL
GASTEIGER

@<TRIPOS>ATOM
      1  N         38.7560   12.8380   60.8370 N.3   268  TYR268     -0.1241
      2  CA        40.2010   13.0920   60.8210 C.3   268  TYR268      0.1605
      3  C         40.5920   13.9520   59.5960 C.2   268  TYR268      0.2264
      4  O         41.4060   14.9110   59.7010 O.2   268  TYR268     -0.2867
      5  CB        40.9810   11.7760   60.7990 C.3   268  TYR268      0.0534
      6  CG        42.4970   11.9860   60.9490 C.ar  268  TYR268     -0.0201
      7  CD1       43.0480   12.1390   62.1910 C.ar  268  TYR268     -0.0009
      8  CD2       43.3370   12.0570   59.8510 C.ar  268  TYR268     -0.0009
      9  CE1       44.4100   12.2990   62.3380 C.ar  268  TYR268      0.0417
     10  CE2       44.6990   12.2880   59.9990 C.ar  268  TYR268      0.0417
     11  CZ        45.1960   12.4020   61.2400 C.ar  268  TYR268      0.1957
     12  OH        46.5730   12.6320   61.4670 O.3   268  TYR268     -0.2866
     13  N         42.7440   17.4390   59.9220 N.3   272  ARG272     -0.1245
     14  CA        44.1610   17.3590   59.5600 C.3   272  ARG272      0.1563
     15  C         44.4830   18.2480   58.3960 C.2   272  ARG272      0.2260
     16  O         43.8980   18.0720   57.3130 O.2   272  ARG272     -0.2867
     17  CB        44.4870   15.9120   59.1610 C.3   272  ARG272      0.0307
     18  CG        45.9650   15.6690   58.7740 C.3   272  ARG272      0.0489
     19  CD        46.8960   15.9560   59.9440 C.3   272  ARG272      0.2205
     20  NE        48.2510   15.4910   59.6970 N.pl3 272  ARG272     -0.0865
     21  CZ        49.2180   15.5400   60.5920 C.cat 272  ARG272      0.5346
     22  NH1       48.9920   16.0480   61.7800 N.pl3 272  ARG272      0.1354
     23  NH2       50.4120   15.0410   60.3000 N.pl3 272  ARG272      0.1354
     24  N         47.0460   19.4640   55.5280 N.3   274  VAL274     -0.1231
     25  CA        48.2370   19.1130   54.7330 C.3   274  VAL274      0.1692
     26  C         48.3800   20.1660   53.6400 C.2   274  VAL274      0.2592
     27  O         47.3980   20.5080   52.9630 O.2   274  VAL274     -0.2718
     28  CB        48.1380   17.6820   54.1420 C.3   274  VAL274      0.0266
     29  CG1       48.0520   16.6340   55.2580 C.3   274  VAL274      0.0020
     30  CG2       46.9520   17.5290   53.1920 C.3   274  VAL274      0.0020
     31  N         49.5870   20.7020   53.4690 N.am  275  PHE275     -0.1976
     32  CA        49.8470   21.7460   52.4530 C.3   275  PHE275      0.1639
     33  C         48.8200   22.8820   52.5370 C.2   275  PHE275      0.2290
     34  O         48.2640   23.3420   51.5320 O.2   275  PHE275     -0.2864
     35  CB        49.9020   21.1410   51.0400 C.3   275  PHE275      0.0560
     36  CG        50.9430   20.0710   50.8520 C.ar  275  PHE275     -0.0200
     37  CD1       52.2120   20.3940   50.3980 C.ar  275  PHE275     -0.0042
     38  CD2       50.6810   18.7360   51.1490 C.ar  275  PHE275     -0.0042
     39  CE1       53.1940   19.4000   50.2210 C.ar  275  PHE275     -0.0003
     40  CE2       51.6490   17.7410   50.9770 C.ar  275  PHE275     -0.0003
     41  CZ        52.9140   18.0900   50.4890 C.ar  275  PHE275     -0.0000
     42  N         42.7110   18.0320   54.7490 N.3   279  LEU279     -0.1245
     43  CA        42.9160   16.8590   53.9160 C.3   279  LEU279      0.1561
     44  C         41.6390   16.5030   53.1100 C.2   279  LEU279      0.2260
     45  O         41.6940   15.9910   51.9810 O.2   279  LEU279     -0.2867
     46  CB        43.3880   15.6980   54.8060 C.3   279  LEU279      0.0270
     47  CG        43.6250   14.3440   54.1470 C.3   279  LEU279      0.0019
     48  CD1       44.5960   14.4180   52.9850 C.3   279  LEU279      0.0001
     49  CD2       44.1480   13.3680   55.2010 C.3   279  LEU279      0.0001
     50  N         41.0000   17.6780   49.1800 N.3   282  TYR282     -0.1241
     51  CA        41.7430   17.1800   48.0240 C.3   282  TYR282      0.1605
     52  C         40.9920   16.1520   47.2450 C.2   282  TYR282      0.2264
     53  O         40.3060   15.3080   47.8350 O.2   282  TYR282     -0.2867
     54  CB        43.1260   16.6420   48.4530 C.3   282  TYR282      0.0534
     55  CG        44.0400   17.7130   48.9880 C.ar  282  TYR282     -0.0201
     56  CD1       44.8520   18.4350   48.1340 C.ar  282  TYR282     -0.0009
     57  CD2       44.0390   18.0450   50.3280 C.ar  282  TYR282     -0.0009
     58  CE1       45.6850   19.4380   48.6100 C.ar  282  TYR282      0.0417
     59  CE2       44.8480   19.0800   50.8160 C.ar  282  TYR282      0.0417
     60  CZ        45.6600   19.7570   49.9610 C.ar  282  TYR282      0.1957
     61  OH        46.5210   20.7780   50.4000 O.3   282  TYR282     -0.2866
     62  N         42.0500   13.4320   45.7550 N.3   284  LEU284     -0.1231
     63  CA        42.3790   12.0340   46.1050 C.3   284  LEU284      0.1693
     64  C         41.6540   11.5830   47.3620 C.2   284  LEU284      0.2592
     65  O         41.2500   10.4490   47.4860 O.2   284  LEU284     -0.2718
     66  CB        43.8780   11.8070   46.2390 C.3   284  LEU284      0.0284
     67  CG        44.7590   12.0670   45.0110 C.3   284  LEU284      0.0019
     68  CD1       46.2230   11.8300   45.3380 C.3   284  LEU284      0.0001
     69  CD2       44.3270   11.1860   43.8280 C.3   284  LEU284      0.0001
     70  N         41.4980   12.4880   48.3330 N.am  285  THR285     -0.1953
     71  CA        40.7830   12.1650   49.5740 C.3   285  THR285      0.1897
     72  C         39.3020   11.9340   49.2630 C.2   285  THR285      0.2313
     73  O         38.7180   10.9370   49.7020 O.2   285  THR285     -0.2863
     74  CB        40.8990   13.2750   50.6190 C.3   285  THR285      0.1794
     75  OG1       42.3030   13.5120   50.8440 O.3   285  THR285     -0.2208
     76  CG2       40.1530   12.9210   51.9120 C.3   285  THR285      0.0378
     77  N         38.4410    8.5750   47.6870 N.3   288  LYS288     -0.1245
     78  CA        38.3930    7.4850   48.6550 C.3   288  LYS288      0.1561
     79  C         37.1090    7.5590   49.4840 C.2   288  LYS288      0.2260
     80  O         36.4380    6.5490   49.6910 O.2   288  LYS288     -0.2867
     81  CB        39.6280    7.4880   49.5600 C.3   288  LYS288      0.0271
     82  CG        40.9450    7.1760   48.8460 C.3   288  LYS288      0.0035
     83  CD        42.1430    7.1910   49.7830 C.3   288  LYS288      0.0206
     84  CE        43.4030    6.8570   49.0450 C.3   288  LYS288      0.1093
     85  NZ        44.5940    6.8310   49.9740 N.3   288  LYS288     -0.1314
     86  N         44.9440    4.3400   55.3690 N.3   340  THR340     -0.1203
     87  CA        45.8790    5.1150   54.5190 C.3   340  THR340      0.1994
     88  C         45.7160    6.6030   54.7160 C.2   340  THR340      0.2618
     89  O         46.6900    7.3330   54.6840 O.2   340  THR340     -0.2717
     90  CB        45.8040    4.7680   53.0150 C.3   340  THR340      0.1784
     91  OG1       44.6150    5.2940   52.4370 O.3   340  THR340     -0.2211
     92  CG2       45.8690    3.2640   52.7850 C.3   340  THR340      0.0376
     93  N         44.4860    7.0540   54.9080 N.am  341  LEU341     -0.1965
     94  CA        44.1940    8.4620   55.1010 C.3   341  LEU341      0.1728
     95  C         44.6700    9.0060   56.4380 C.2   341  LEU341      0.2616
     96  O         44.8710   10.2250   56.5740 O.2   341  LEU341     -0.2715
     97  CB        42.6860    8.7450   54.9300 C.3   341  LEU341      0.0311
     98  CG        42.2270    8.7870   53.4690 C.3   341  LEU341      0.0022
     99  CD1       40.7330    8.5570   53.3640 C.3   341  LEU341      0.0001
    100  CD2       42.6590   10.0710   52.7980 C.3   341  LEU341      0.0001
    101  N         44.7990    8.1300   57.4320 N.am  342  LEU342     -0.1963
    102  CA        45.2600    8.5600   58.7580 C.3   342  LEU342      0.1728
    103  C         46.7880    8.7180   58.8090 C.2   342  LEU342      0.2617
    104  O         47.3010    9.3030   59.7520 O.2   342  LEU342     -0.2715
    105  CB        44.8220    7.5760   59.8390 C.3   342  LEU342      0.0311
    106  CG        43.3170    7.3050   59.9330 C.3   342  LEU342      0.0022
    107  CD1       43.0530    6.2280   61.0020 C.3   342  LEU342      0.0001
    108  CD2       42.5270    8.5560   60.2360 C.3   342  LEU342      0.0001
    109  N         47.5270    8.1950   57.8320 N.am  343  GLY343     -0.1940
    110  CA        48.9850    8.2770   57.8980 C.3   343  GLY343      0.2014
    111  C         49.5080    7.5390   59.1150 C.2   343  GLY343      0.2639
    112  O         48.9780    6.5040   59.5300 O.2   343  GLY343     -0.2714
    113  N         50.6150    8.0640   59.6400 N.am  344  GLY344     -0.1939
    114  CA        51.2730    7.4810   60.7740 C.3   344  GLY344      0.2014
    115  C         50.3760    7.2660   61.9650 C.2   344  GLY344      0.2639
    116  O         50.4140    6.2110   62.6280 O.2   344  GLY344     -0.2714
    117  N         49.5210    8.2460   62.2440 N.am  345  SER345     -0.1949
    118  CA        48.6270    8.1090   63.3970 C.3   345  SER345      0.1924
    119  C         47.7300    6.8880   63.3190 C.2   345  SER345      0.2314
    120  O         47.2340    6.4220   64.3290 O.2   345  SER345     -0.2863
    121  CB        47.7870    9.3650   63.5460 C.3   345  SER345      0.2116
    122  OG        48.6080   10.4520   63.9970 O.3   345  SER345     -0.2180
    123  N         48.5880    3.8320   62.6480 N.3   347  ILE347     -0.1245
    124  CA        49.2290    2.5470   62.9040 C.3   347  ILE347      0.1561
    125  C         49.0510    2.0450   64.3270 C.2   347  ILE347      0.2260
    126  O         49.4200    0.8960   64.6260 O.2   347  ILE347     -0.2867
    127  CB        50.7290    2.4910   62.5340 C.3   347  ILE347      0.0252
    128  CG1       51.6340    3.3080   63.4670 C.3   347  ILE347      0.0019
    129  CG2       50.9160    2.8910   61.0690 C.3   347  ILE347      0.0019
    130  CD1       53.0560    2.7350   63.5730 C.3   347  ILE347      0.0001
@<TRIPOS>BOND
     1    69    67    1
     2    67    68    1
     3    67    66    1
     4    62    63    1
     5    63    66    1
     6    63    64    1
     7    52    53    2
     8    52    51    1
     9    64    65    2
    10    64    70   am
    11    77    78    1
    12    51    54    1
    13    51    50    1
    14    56    58   ar
    15    56    55   ar
    16    70    71    1
    17    54    55    1
    18    58    60   ar
    19    78    79    1
    20    78    81    1
    21    82    81    1
    22    82    83    1
    23    55    57   ar
    24    84    83    1
    25    84    85    1
    26    72    71    1
    27    72    73    2
    28    79    80    2
    29    71    74    1
    30    60    61    1
    31    60    59   ar
    32    39    37   ar
    33    39    41   ar
    34    57    59   ar
    35    37    36   ar
    36    41    40   ar
    37    74    75    1
    38    74    76    1
    39    36    35    1
    40    36    38   ar
    41    40    38   ar
    42    35    32    1
    43    34    33    2
    44    45    44    2
    45    91    90    1
    46    32    33    1
    47    32    31    1
    48    92    90    1
    49   100    98    1
    50    27    26    2
    51    48    47    1
    52    90    87    1
    53    44    43    1
    54    30    28    1
    55    99    98    1
    56    98    97    1
    57    31    26   am
    58    26    25    1
    59    43    42    1
    60    43    46    1
    61    28    25    1
    62    28    29    1
    63    47    46    1
    64    47    49    1
    65    87    88    1
    66    87    86    1
    67    89    88    2
    68    88    93   am
    69    25    24    1
    70    93    94    1
    71    97    94    1
    72    94    95    1
    73    95    96    2
    74    95   101   am
    75    16    15    2
    76   101   102    1
    77   109   110    1
    78   109   103   am
    79   110   111    1
    80    15    14    1
    81   102   103    1
    82   102   105    1
    83    18    17    1
    84    18    19    1
    85   103   104    2
    86   111   112    2
    87   111   113   am
    88    17    14    1
    89    14    13    1
    90     3     4    2
    91     3     2    1
    92   113   114    1
    93    20    19    1
    94    20    21    2
    95   105   106    1
    96     8    10   ar
    97     8     6   ar
    98   106   108    1
    99   106   107    1
   100    10    11   ar
   101    23    21    1
   102    21    22    1
   103   114   115    1
   104     5     2    1
   105     5     6    1
   106     2     1    1
   107     6     7   ar
   108   129   127    1
   109    11    12    1
   110    11     9   ar
   111   115   117   am
   112   115   116    2
   113     7     9   ar
   114   117   118    1
   115   127   124    1
   116   127   128    1
   117   123   124    1
   118   124   125    1
   119   119   118    1
   120   119   120    2
   121   118   121    1
   122   128   130    1
   123   121   122    1
   124   125   126    2
