@<TRIPOS>MOLECULE
tmp/3swqA01.pdb
 99 94 0 0 0
SMALL
GASTEIGER

@<TRIPOS>ATOM
      1  N         99.8470   12.7390  114.8160 N.3    34  LEU34      -0.1245
      2  CA       100.8470   13.5240  115.5530 C.3    34  LEU34       0.1561
      3  C        102.2540   13.4090  114.9610 C.2    34  LEU34       0.2260
      4  O        103.1270   14.2460  115.2280 O.2    34  LEU34      -0.2867
      5  CB       100.8950   13.1480  117.0350 C.3    34  LEU34       0.0270
      6  CG        99.5970   13.2040  117.8460 C.3    34  LEU34       0.0019
      7  CD1       99.7630   12.3700  119.1150 C.3    34  LEU34       0.0001
      8  CD2       99.2740   14.6550  118.1880 C.3    34  LEU34       0.0001
      9  N        105.4090   13.6230  112.6290 N.3    36  GLU36      -0.1245
     10  CA       105.9580   14.4730  111.5690 C.3    36  GLU36       0.1567
     11  C        106.6860   13.6670  110.4920 C.2    36  GLU36       0.2260
     12  O        106.8990   14.1490  109.3770 O.2    36  GLU36      -0.2867
     13  CB       106.7850   15.6450  112.0750 C.3    36  GLU36       0.0388
     14  CG       106.0540   16.5700  113.0150 C.3    36  GLU36       0.1160
     15  CD       106.8580   17.8270  113.2810 C.2    36  GLU36       0.3649
     16  OE1      108.0850   17.7820  113.0870 O.co2  36  GLU36      -0.2457
     17  OE2      106.2740   18.8450  113.6850 O.co2  36  GLU36      -0.2457
     18  N         95.9820   19.2350  119.1310 N.3   101  ALA101     -0.1231
     19  CA        97.2980   19.2190  119.7680 C.3   101  ALA101      0.1694
     20  C         98.4190   19.5800  118.8070 C.2   101  ALA101      0.2592
     21  O         99.3650   20.2790  119.1830 O.2   101  ALA101     -0.2718
     22  CB        97.5780   17.8320  120.3820 C.3   101  ALA101      0.0304
     23  N         98.3180   19.1080  117.5680 N.am  102  ARG102     -0.1966
     24  CA        99.3540   19.3800  116.5690 C.3   102  ARG102      0.1729
     25  C         99.1310   20.6060  115.6960 C.2   102  ARG102      0.2616
     26  O        100.0690   21.3600  115.3920 O.2   102  ARG102     -0.2715
     27  CB        99.7000   18.1480  115.7380 C.3   102  ARG102      0.0348
     28  CG       100.8420   18.3520  114.7500 C.3   102  ARG102      0.0492
     29  CD       101.1170   17.0920  113.9410 C.3   102  ARG102      0.2205
     30  NE       102.0480   17.3730  112.8430 N.pl3 102  ARG102     -0.0865
     31  CZ       102.1170   16.6670  111.7200 C.cat 102  ARG102      0.5346
     32  NH1      101.3140   15.6250  111.5340 N.pl3 102  ARG102      0.1354
     33  NH2      102.9770   17.0200  110.7680 N.pl3 102  ARG102      0.1354
     34  N         97.8750   20.7940  115.2970 N.am  103  PHE103     -0.1960
     35  CA        97.4940   21.8660  114.3800 C.3   103  PHE103      0.1771
     36  C         96.7480   23.0610  114.9550 C.2   103  PHE103      0.2620
     37  O         96.5510   24.0690  114.2640 O.2   103  PHE103     -0.2715
     38  CB        96.8260   21.3150  113.1220 C.3   103  PHE103      0.0574
     39  CG        97.6250   20.2550  112.4200 C.ar  103  PHE103     -0.0200
     40  CD1       98.6400   20.6010  111.5280 C.ar  103  PHE103     -0.0042
     41  CD2       97.3610   18.9080  112.6400 C.ar  103  PHE103     -0.0042
     42  CE1       99.3750   19.6140  110.8690 C.ar  103  PHE103     -0.0003
     43  CE2       98.0840   17.9240  111.9910 C.ar  103  PHE103     -0.0003
     44  CZ        99.0950   18.2740  111.1020 C.ar  103  PHE103     -0.0000
     45  N         96.3060   22.9430  116.2050 N.am  104  GLY104     -0.1954
     46  CA        95.5880   24.0410  116.8250 C.3   104  GLY104      0.1869
     47  C         94.1120   24.0660  116.5090 C.2   104  GLY104      0.2309
     48  O         93.3920   24.9500  116.9760 O.2   104  GLY104     -0.2863
     49  N         98.3690   28.1840  119.8490 N.3   148  GLY148     -0.1210
     50  CA        99.6410   27.6930  120.3460 C.3   148  GLY148      0.1956
     51  C         99.4950   26.2720  120.8890 C.2   148  GLY148      0.2611
     52  O         98.6130   25.5230  120.4720 O.2   148  GLY148     -0.2717
     53  N        100.3590   25.8970  121.8240 N.am  149  ARG149     -0.1979
     54  CA       100.3290   24.5530  122.4150 C.3   149  ARG149      0.1597
     55  C         99.2960   24.3490  123.5220 C.2   149  ARG149      0.2287
     56  O         98.9070   25.2880  124.2150 O.2   149  ARG149     -0.2864
     57  CB       101.7150   24.0680  122.8770 C.3   149  ARG149      0.0334
     58  CG       102.7540   23.8710  121.7680 C.3   149  ARG149      0.0492
     59  CD       104.1710   23.6340  122.3090 C.3   149  ARG149      0.2205
     60  NE       104.3450   22.3850  123.0620 N.pl3 149  ARG149     -0.0865
     61  CZ       105.4540   22.0780  123.7450 C.cat 149  ARG149      0.5346
     62  NH1      105.5520   20.9260  124.4000 N.pl3 149  ARG149      0.1354
     63  NH2      106.4730   22.9380  123.7900 N.pl3 149  ARG149      0.1354
     64  N        101.9950   16.4730  123.1230 N.3   174  LEU174     -0.1245
     65  CA       102.4690   17.7230  122.5060 C.3   174  LEU174      0.1561
     66  C        102.1560   18.9730  123.3220 C.2   174  LEU174      0.2260
     67  O        102.3710   20.0880  122.8580 O.2   174  LEU174     -0.2867
     68  CB       102.0250   17.8910  121.0480 C.3   174  LEU174      0.0270
     69  CG       102.4240   16.8480  120.0050 C.3   174  LEU174      0.0019
     70  CD1      101.8250   17.2690  118.6450 C.3   174  LEU174      0.0001
     71  CD2      103.9390   16.7340  119.9120 C.3   174  LEU174      0.0001
     72  N        108.1520   18.7990  122.0020 N.3   218  GLU218     -0.1231
     73  CA       107.8530   19.6930  120.8950 C.3   218  GLU218      0.1699
     74  C        107.2990   19.0370  119.6470 C.2   218  GLU218      0.2592
     75  O        106.4210   19.5820  118.9820 O.2   218  GLU218     -0.2718
     76  CB       108.9250   20.7520  120.6320 C.3   218  GLU218      0.0402
     77  CG       109.1730   21.6730  121.8190 C.3   218  GLU218      0.1161
     78  CD       110.1820   22.7730  121.5110 C.2   218  GLU218      0.3649
     79  OE1      111.3090   22.4460  121.0670 O.co2 218  GLU218     -0.2457
     80  OE2      109.8500   23.9630  121.7200 O.co2 218  GLU218     -0.2457
     81  N        107.8050   17.8520  119.3520 N.am  219  ARG219     -0.1966
     82  CA       107.3810   17.1220  118.1690 C.3   219  ARG219      0.1729
     83  C        107.5630   15.6240  118.2920 C.2   219  ARG219      0.2616
     84  O        108.3960   15.1490  119.0590 O.2   219  ARG219     -0.2715
     85  CB       108.0450   17.6530  116.9020 C.3   219  ARG219      0.0348
     86  CG       109.5690   17.5280  116.9640 C.3   219  ARG219      0.0492
     87  CD       110.2680   18.0510  115.7080 C.3   219  ARG219      0.2205
     88  NE       110.0610   17.2050  114.5280 N.pl3 219  ARG219     -0.0865
     89  CZ       110.5620   15.9800  114.3610 C.cat 219  ARG219      0.5346
     90  NH1      111.3170   15.4200  115.3020 N.pl3 219  ARG219      0.1354
     91  NH2      110.3210   15.3160  113.2350 N.pl3 219  ARG219      0.1354
     92  N        106.7770   14.8890  117.5160 N.am  220  LEU220     -0.1977
     93  CA       106.8790   13.4370  117.4570 C.3   220  LEU220      0.1596
     94  C        107.4300   13.1140  116.0680 C.2   220  LEU220      0.2287
     95  O        107.0570   13.7700  115.0990 O.2   220  LEU220     -0.2864
     96  CB       105.5690   12.7180  117.7540 C.3   220  LEU220      0.0297
     97  CG       104.9830   12.9030  119.1610 C.3   220  LEU220      0.0022
     98  CD1      103.7810   11.9780  119.3370 C.3   220  LEU220      0.0001
     99  CD2      106.0440   12.5680  120.2150 C.3   220  LEU220      0.0001
@<TRIPOS>BOND
     1    12    11    2
     2    11    10    1
     3    33    31    1
     4    42    44   ar
     5    42    40   ar
     6    44    43   ar
     7    40    39   ar
     8    32    31    1
     9    10    13    1
    10    10     9    1
    11    31    30    2
    12    43    41   ar
    13    13    14    1
    14    39    41   ar
    15    39    38    1
    16    30    29    1
    17    14    15    1
    18    16    15   ar
    19    38    35    1
    20    91    89    1
    21    15    17   ar
    22    29    28    1
    23    37    36    2
    24    89    88    2
    25    89    90    1
    26    35    36    1
    27    35    34    1
    28    88    87    1
    29    28    27    1
    30     1     2    1
    31    36    45   am
    32     3     4    2
    33     3     2    1
    34    95    94    2
    35    34    25   am
    36    26    25    2
    37     2     5    1
    38    25    24    1
    39    87    86    1
    40    27    24    1
    41    94    93    1
    42    45    46    1
    43    47    46    1
    44    47    48    2
    45    24    23    1
    46    85    86    1
    47    85    82    1
    48     5     6    1
    49    93    92    1
    50    93    96    1
    51    92    83   am
    52    23    20   am
    53    96    97    1
    54     6     8    1
    55     6     7    1
    56    82    83    1
    57    82    81    1
    58    83    84    2
    59    70    69    1
    60    20    21    2
    61    20    19    1
    62    75    74    2
    63    18    19    1
    64    97    98    1
    65    97    99    1
    66    81    74   am
    67    74    73    1
    68    19    22    1
    69    49    50    1
    70    71    69    1
    71    69    68    1
    72    50    51    1
    73    52    51    2
    74    76    73    1
    75    76    77    1
    76    51    53   am
    77    73    72    1
    78    68    65    1
    79    79    78   ar
    80    78    80   ar
    81    78    77    1
    82    58    59    1
    83    58    57    1
    84    53    54    1
    85    59    60    1
    86    54    57    1
    87    54    55    1
    88    65    64    1
    89    65    66    1
    90    67    66    2
    91    60    61    2
    92    55    56    2
    93    61    63    1
    94    61    62    1
