@<TRIPOS>MOLECULE
tmp/3swrA00.pdb
 174 167 0 0 0
SMALL
GASTEIGER

@<TRIPOS>ATOM
      1  N        -13.9210   -3.0270   38.6620 N.3    87  ASP87      -0.1239
      2  CA       -14.5040   -3.9760   37.7130 C.3    87  ASP87       0.1674
      3  C        -15.4850   -4.8730   38.4620 C.2    87  ASP87       0.2266
      4  O        -15.3760   -6.1050   38.4500 O.2    87  ASP87      -0.2867
      5  CB       -13.4110   -4.8210   37.0270 C.3    87  ASP87       0.1410
      6  CG       -12.6550   -5.7270   37.9970 C.2    87  ASP87       0.3668
      7  OD1      -11.8350   -6.5500   37.5290 O.co2  87  ASP87      -0.2456
      8  OD2      -12.8750   -5.6220   39.2220 O.co2  87  ASP87      -0.2456
      9  N         -2.9520    1.9510   22.6480 N.3   508  ASP508     -0.1239
     10  CA        -3.8410    1.3150   23.6190 C.3   508  ASP508      0.1674
     11  C         -3.3950    1.6020   25.0540 C.2   508  ASP508      0.2266
     12  O         -2.3790    1.0730   25.4910 O.2   508  ASP508     -0.2867
     13  CB        -3.8410   -0.1990   23.3820 C.3   508  ASP508      0.1410
     14  CG        -4.9140   -0.9220   24.1820 C.2   508  ASP508      0.3668
     15  OD1       -5.4100   -0.3530   25.1810 O.co2 508  ASP508     -0.2456
     16  OD2       -5.2530   -2.0700   23.8200 O.co2 508  ASP508     -0.2456
     17  N         -3.7750    1.4870   29.2570 N.3   510  PHE510     -0.1227
     18  CA        -4.3070    0.5600   30.2540 C.3   510  PHE510      0.1736
     19  C         -4.5720   -0.6860   29.4120 C.2   510  PHE510      0.2596
     20  O         -5.6650   -1.2460   29.4290 O.2   510  PHE510     -0.2718
     21  CB        -5.6320    1.0480   30.8410 C.3   510  PHE510      0.0547
     22  CG        -5.6660    2.5100   31.1270 C.ar  510  PHE510     -0.0202
     23  CD1       -4.8000    3.0720   32.0530 C.ar  510  PHE510     -0.0042
     24  CD2       -6.5560    3.3370   30.4500 C.ar  510  PHE510     -0.0042
     25  CE1       -4.8200    4.4400   32.2970 C.ar  510  PHE510     -0.0003
     26  CE2       -6.5810    4.7110   30.6930 C.ar  510  PHE510     -0.0003
     27  CZ        -5.7130    5.2610   31.6150 C.ar  510  PHE510     -0.0000
     28  N         -3.5570   -1.1030   28.6640 N.am  511  SER511     -0.1938
     29  CA        -3.6570   -2.2440   27.7690 C.3   511  SER511      0.2055
     30  C         -3.8440   -3.6160   28.3920 C.2   511  SER511      0.2644
     31  O         -4.3320   -4.5180   27.7210 O.2   511  SER511     -0.2714
     32  CB        -2.4210   -2.3120   26.8840 C.3   511  SER511      0.2130
     33  OG        -1.3110   -2.7290   27.6560 O.3   511  SER511     -0.2179
     34  N         -3.4540   -3.7980   29.6500 N.am  512  GLY512     -0.1939
     35  CA        -3.5830   -5.1170   30.2490 C.3   512  GLY512      0.2014
     36  C         -2.7870   -6.0600   29.3610 C.2   512  GLY512      0.2639
     37  O         -1.8990   -5.6020   28.6490 O.2   512  GLY512     -0.2714
     38  N         -3.0950   -7.3540   29.3640 N.am  513  CYS513     -0.1953
     39  CA        -2.3530   -8.2860   28.5220 C.3   513  CYS513      0.1843
     40  C         -2.6810   -8.1510   27.0390 C.2   513  CYS513      0.2626
     41  O         -2.0240   -8.7700   26.2090 O.2   513  CYS513     -0.2714
     42  CB        -2.5870   -9.7350   28.9630 C.3   513  CYS513      0.0997
     43  SG        -4.2520  -10.3790   28.6930 S.3   513  CYS513     -0.0797
     44  N         -3.7060   -7.3710   26.6980 N.am  514  GLY514     -0.1940
     45  CA        -4.0270   -7.1760   25.2890 C.3   514  GLY514      0.2014
     46  C         -5.3410   -7.6270   24.6550 C.2   514  GLY514      0.2639
     47  O         -5.5040   -7.4960   23.4390 O.2   514  GLY514     -0.2714
     48  N         -6.2780   -8.1480   25.4380 N.am  515  GLY515     -0.1939
     49  CA        -7.5470   -8.5930   24.8730 C.3   515  GLY515      0.2014
     50  C         -8.1450   -7.6650   23.8260 C.2   515  GLY515      0.2638
     51  O         -8.4130   -8.0830   22.6910 O.2   515  GLY515     -0.2714
     52  N         -8.3430   -6.4020   24.2030 N.am  516  LEU516     -0.1977
     53  CA        -8.9200   -5.3960   23.3200 C.3   516  LEU516      0.1596
     54  C         -8.1650   -5.2490   22.0040 C.2   516  LEU516      0.2287
     55  O         -8.7820   -5.2010   20.9300 O.2   516  LEU516     -0.2864
     56  CB        -8.9820   -4.0450   24.0450 C.3   516  LEU516      0.0297
     57  CG        -9.6280   -2.8760   23.2910 C.3   516  LEU516      0.0022
     58  CD1      -11.0590   -3.2220   22.9770 C.3   516  LEU516      0.0001
     59  CD2       -9.5540   -1.6050   24.1110 C.3   516  LEU516      0.0001
     60  N          0.2940    1.2070   26.9070 N.3   532  ILE532     -0.1231
     61  CA         0.6800    1.6590   28.2300 C.3   532  ILE532      0.1692
     62  C          0.0500    0.7530   29.2840 C.2   532  ILE532      0.2592
     63  O         -1.1680    0.6480   29.3780 O.2   532  ILE532     -0.2718
     64  CB         0.2540    3.1210   28.4660 C.3   532  ILE532      0.0266
     65  CG1        0.9100    4.0300   27.4220 C.3   532  ILE532      0.0019
     66  CG2        0.6730    3.5650   29.8540 C.3   532  ILE532      0.0020
     67  CD1        0.5990    5.4970   27.6080 C.3   532  ILE532      0.0001
     68  N          0.8930    0.0890   30.0650 N.am  533  GLU533     -0.1966
     69  CA         0.4280   -0.8200   31.1030 C.3   533  GLU533      0.1733
     70  C          1.3720   -0.7580   32.2990 C.2   533  GLU533      0.2616
     71  O          2.4630   -1.3270   32.2760 O.2   533  GLU533     -0.2715
     72  CB         0.3650   -2.2460   30.5450 C.3   533  GLU533      0.0429
     73  CG        -0.0170   -3.3040   31.5670 C.3   533  GLU533      0.1163
     74  CD        -1.2030   -2.8800   32.4150 C.2   533  GLU533      0.3649
     75  OE1       -2.2350   -2.4810   31.8340 O.co2 533  GLU533     -0.2457
     76  OE2       -1.1070   -2.9470   33.6590 O.co2 533  GLU533     -0.2457
     77  N          0.9420   -0.0770   33.3510 N.am  534  MET534     -0.1963
     78  CA         1.7720    0.0800   34.5390 C.3   534  MET534      0.1736
     79  C          2.0950   -1.2080   35.3050 C.2   534  MET534      0.2616
     80  O          3.1260   -1.2870   35.9720 O.2   534  MET534     -0.2715
     81  CB         1.1290    1.1020   35.4810 C.3   534  MET534      0.0427
     82  CG         1.9930    1.4760   36.6710 C.3   534  MET534      0.0599
     83  SD         1.4080    2.9520   37.5130 S.3   534  MET534     -0.1393
     84  CE         0.2730    2.2250   38.7210 C.3   534  MET534      0.0692
     85  N          1.2200   -2.2070   35.2200 N.am  535  TRP535     -0.1974
     86  CA         1.4410   -3.4810   35.9010 C.3   535  TRP535      0.1640
     87  C          2.3540   -4.3220   35.0200 C.2   535  TRP535      0.2290
     88  O          1.9680   -4.7280   33.9260 O.2   535  TRP535     -0.2864
     89  CB         0.1080   -4.1960   36.1330 C.3   535  TRP535      0.0576
     90  CG         0.2320   -5.4870   36.8750 C.ar  535  TRP535      0.0006
     91  CD1        1.0390   -5.7430   37.9460 C.ar  535  TRP535      0.0946
     92  CD2       -0.4870   -6.6960   36.6160 C.ar  535  TRP535      0.0152
     93  NE1        0.8710   -7.0400   38.3670 N.ar  535  TRP535     -0.2442
     94  CE2       -0.0620   -7.6470   37.5700 C.ar  535  TRP535      0.0810
     95  CE3       -1.4490   -7.0700   35.6710 C.ar  535  TRP535      0.0012
     96  CZ2       -0.5660   -8.9490   37.6040 C.ar  535  TRP535      0.0191
     97  CZ3       -1.9510   -8.3720   35.7050 C.ar  535  TRP535      0.0001
     98  CH2       -1.5070   -9.2930   36.6650 C.ar  535  TRP535      0.0015
     99  N          1.4080   -8.0060   33.1410 N.3   538  ALA538     -0.1245
    100  CA         0.4980   -7.8050   32.0230 C.3   538  ALA538      0.1562
    101  C          1.2120   -7.0810   30.8840 C.2   538  ALA538      0.2260
    102  O          0.9580   -7.3470   29.7120 O.2   538  ALA538     -0.2867
    103  CB        -0.7260   -7.0160   32.4750 C.3   538  ALA538      0.0290
    104  N          4.6830    2.2870   32.6850 N.3   554  GLU554     -0.1231
    105  CA         4.6920    3.4130   33.6140 C.3   554  GLU554      0.1699
    106  C          3.3380    4.1260   33.6580 C.2   554  GLU554      0.2592
    107  O          2.5220    3.9980   32.7470 O.2   554  GLU554     -0.2718
    108  CB         5.7530    4.4040   33.1540 C.3   554  GLU554      0.0402
    109  CG         5.6980    4.5740   31.6510 C.3   554  GLU554      0.1161
    110  CD         6.6090    5.6490   31.1140 C.2   554  GLU554      0.3649
    111  OE1        7.8110    5.6540   31.4700 O.co2 554  GLU554     -0.2457
    112  OE2        6.1160    6.4800   30.3140 O.co2 554  GLU554     -0.2457
    113  N          3.1100    4.8900   34.7170 N.am  555  ASP555     -0.1960
    114  CA         1.8710    5.6440   34.8650 C.3   555  ASP555      0.1840
    115  C          1.6130    6.4030   33.5550 C.2   555  ASP555      0.2622
    116  O          2.4800    7.1290   33.0770 O.2   555  ASP555     -0.2715
    117  CB         2.0150    6.6220   36.0350 C.3   555  ASP555      0.1450
    118  CG         0.7260    7.3310   36.3670 C.2   555  ASP555      0.3671
    119  OD1        0.2300    8.0880   35.5120 O.co2 555  ASP555     -0.2456
    120  OD2        0.2060    7.1290   37.4850 O.co2 555  ASP555     -0.2456
    121  N          0.4280    6.2290   32.9750 N.am  556  CYS556     -0.1968
    122  CA         0.0900    6.8900   31.7090 C.3   556  CYS556      0.1712
    123  C          0.2300    8.4110   31.7740 C.2   556  CYS556      0.2296
    124  O          0.2880    9.0880   30.7460 O.2   556  CYS556     -0.2864
    125  CB        -1.3380    6.5430   31.2990 C.3   556  CYS556      0.0983
    126  SG        -2.5650    7.1450   32.4670 S.3   556  CYS556     -0.0798
    127  N         -9.2000    1.1650   28.6070 N.3   588  GLY588     -0.1225
    128  CA       -10.1660    0.9630   29.6660 C.3   588  GLY588      0.1811
    129  C         -9.6150    1.4740   30.9900 C.2   588  GLY588      0.2280
    130  O         -9.0490    0.7080   31.7730 O.2   588  GLY588     -0.2866
    131  N         -9.2870    2.4640   34.8530 N.3   590  PRO590     -0.2116
    132  CA        -9.8960    2.0090   36.1060 C.3   590  PRO590      0.1372
    133  C        -10.6740    3.1520   36.7700 C.2   590  PRO590      0.2244
    134  O        -10.2890    4.3200   36.6680 O.2   590  PRO590     -0.2868
    135  CB        -8.6910    1.5870   36.9430 C.3   590  PRO590      0.0268
    136  CG        -7.6900    1.1790   35.9220 C.3   590  PRO590      0.0207
    137  CD        -7.8290    2.2630   34.8890 C.3   590  PRO590      0.0892
    138  N         -7.8390    8.5050   36.2930 N.3   612  LEU612     -0.1245
    139  CA        -7.3390    8.0210   35.0160 C.3   612  LEU612      0.1561
    140  C         -8.3210    8.2700   33.8740 C.2   612  LEU612      0.2260
    141  O         -7.9440    8.2150   32.7070 O.2   612  LEU612     -0.2867
    142  CB        -7.0070    6.5350   35.1170 C.3   612  LEU612      0.0270
    143  CG        -5.8660    6.2240   36.0930 C.3   612  LEU612      0.0019
    144  CD1       -5.7150    4.7220   36.2200 C.3   612  LEU612      0.0001
    145  CD2       -4.5650    6.8610   35.6020 C.3   612  LEU612      0.0001
    146  N        -13.6200    1.5870   26.9420 N.3   631  GLU631     -0.1245
    147  CA       -14.3990    0.4640   27.4620 C.3   631  GLU631      0.1567
    148  C        -14.3170    0.4670   28.9780 C.2   631  GLU631      0.2260
    149  O        -13.3480    0.9590   29.5590 O.2   631  GLU631     -0.2867
    150  CB       -13.8750   -0.8710   26.9180 C.3   631  GLU631      0.0388
    151  CG       -12.4790   -1.2700   27.3920 C.3   631  GLU631      0.1160
    152  CD       -12.4760   -2.1030   28.6790 C.2   631  GLU631      0.3649
    153  OE1      -11.3720   -2.4780   29.1370 O.co2 631  GLU631     -0.2457
    154  OE2      -13.5630   -2.3890   29.2300 O.co2 631  GLU631     -0.2457
    155  N         -9.0680   -9.5370   33.7080 N.3   943  ASN943     -0.1225
    156  CA        -9.2810   -8.1020   33.5510 C.3   943  ASN943      0.1785
    157  C         -9.4590   -7.7090   32.0980 C.2   943  ASN943      0.2597
    158  O         -9.9550   -6.6290   31.7960 O.2   943  ASN943     -0.2718
    159  CB        -8.1100   -7.2870   34.1150 C.3   943  ASN943      0.1169
    160  CG        -7.9080   -7.4860   35.6070 C.2   943  ASN943      0.2627
    161  OD1       -8.8720   -7.5910   36.3860 O.2   943  ASN943     -0.2716
    162  ND2       -6.6390   -7.5170   36.0210 N.am  943  ASN943     -0.0877
    163  N         -9.0570   -8.5870   31.1930 N.am  944  ALA944     -0.1966
    164  CA        -9.1440   -8.2780   29.7800 C.3   944  ALA944      0.1728
    165  C        -10.5460   -8.1800   29.1760 C.2   944  ALA944      0.2616
    166  O        -11.5460   -8.6290   29.7520 O.2   944  ALA944     -0.2715
    167  CB        -8.3050   -9.2890   28.9810 C.3   944  ALA944      0.0334
    168  N        -10.5950   -7.5570   28.0030 N.am  945  VAL945     -0.1977
    169  CA       -11.8150   -7.4260   27.2340 C.3   945  VAL945      0.1596
    170  C        -11.7650   -8.6540   26.3330 C.2   945  VAL945      0.2287
    171  O        -10.7290   -8.9370   25.7360 O.2   945  VAL945     -0.2864
    172  CB       -11.7810   -6.1760   26.3460 C.3   945  VAL945      0.0276
    173  CG1      -12.9090   -6.2260   25.3480 C.3   945  VAL945      0.0022
    174  CG2      -11.9060   -4.9400   27.1860 C.3   945  VAL945      0.0022
@<TRIPOS>BOND
     1    55    54    2
     2    54    53    1
     3     9    10    1
     4    51    50    2
     5    58    57    1
     6    57    56    1
     7    57    59    1
     8    53    56    1
     9    53    52    1
    10    13    10    1
    11    13    14    1
    12    47    46    2
    13    10    11    1
    14    16    14   ar
    15    50    52   am
    16    50    49    1
    17    14    15   ar
    18    46    45    1
    19    46    48   am
    20    49    48    1
    21    11    12    2
    22    45    44    1
    23   173   172    1
    24   171   170    2
    25    41    40    2
    26   170   169    1
    27   172   174    1
    28   172   169    1
    29    44    40   am
    30    32    33    1
    31    32    29    1
    32    60    61    1
    33   150   151    1
    34   150   147    1
    35   146   147    1
    36    40    39    1
    37   169   168    1
    38   151   152    1
    39    65    67    1
    40    65    64    1
    41   147   148    1
    42    31    30    2
    43    29    30    1
    44    29    28    1
    45   168   165   am
    46    61    64    1
    47    61    62    1
    48    30    34   am
    49    64    66    1
    50    39    42    1
    51    39    38    1
    52   127   128    1
    53    37    36    2
    54    28    19   am
    55   152   153   ar
    56   152   154   ar
    57    43    42    1
    58   148   149    2
    59   167   164    1
    60   165   166    2
    61   165   164    1
    62    17    18    1
    63    62    63    2
    64    62    68   am
    65    36    38   am
    66    36    35    1
    67    19    20    2
    68    19    18    1
    69    34    35    1
    70   128   129    1
    71   102   101    2
    72   164   163    1
    73    68    69    1
    74    18    21    1
    75   112   110   ar
    76    24    26   ar
    77    24    22   ar
    78    72    69    1
    79    72    73    1
    80    26    27   ar
    81   124   123    2
    82    21    22    1
    83   101   100    1
    84   129   130    2
    85    69    70    1
    86   110   111   ar
    87   110   109    1
    88    22    23   ar
    89   163   157   am
    90   125   122    1
    91   125   126    1
    92    73    74    1
    93    27    25   ar
    94   109   108    1
    95   122   123    1
    96   122   121    1
    97   158   157    2
    98    75    74   ar
    99   100   103    1
   100   100    99    1
   101    23    25   ar
   102   157   156    1
   103    71    70    2
   104    70    77   am
   105    74    76   ar
   106   104   105    1
   107   141   140    2
   108   107   106    2
   109   121   115   am
   110   116   115    2
   111   108   105    1
   112    77    78    1
   113   156   155    1
   114   156   159    1
   115   115   114    1
   116   105   106    1
   117   106   113   am
   118   140   139    1
   119    88    87    2
   120   159   160    1
   121    78    79    1
   122    78    81    1
   123   113   114    1
   124   131   137    1
   125   131   132    1
   126   114   117    1
   127   137   136    1
   128   139   142    1
   129   139   138    1
   130    87    86    1
   131   142   143    1
   132    85    79   am
   133    85    86    1
   134    79    80    2
   135    81    82    1
   136   119   118   ar
   137   145   143    1
   138   160   162   am
   139   160   161    2
   140    95    97   ar
   141    95    92   ar
   142    97    98   ar
   143    86    89    1
   144   136   135    1
   145   117   118    1
   146   143   144    1
   147   132   133    1
   148   132   135    1
   149    89    90    1
   150   118   120   ar
   151    92    90   ar
   152    92    94   ar
   153    98    96   ar
   154   134   133    2
   155    82    83    1
   156    90    91   ar
   157     5     2    1
   158     5     6    1
   159    83    84    1
   160     7     6   ar
   161    94    96   ar
   162    94    93   ar
   163     2     3    1
   164     2     1    1
   165    91    93   ar
   166     6     8   ar
   167     4     3    2
