@<TRIPOS>MOLECULE
tmp/3swsD00.pdb
 63 60 0 0 0
SMALL
GASTEIGER

@<TRIPOS>ATOM
      1  N         12.1200    5.5680  -33.4850 N.3   177  THR177     -0.1203
      2  CA        11.8750    4.0880  -33.4660 C.3   177  THR177      0.1994
      3  C         12.9920    3.3960  -32.6630 C.2   177  THR177      0.2617
      4  O         12.8700    2.1740  -32.4030 O.2   177  THR177     -0.2717
      5  CB        11.8570    3.5370  -34.8990 C.3   177  THR177      0.1784
      6  OG1       12.9890    4.0860  -35.5980 O.3   177  THR177     -0.2211
      7  CG2       10.5650    3.9960  -35.6770 C.3   177  THR177      0.0376
      8  N         14.0550    4.1430  -32.2840 N.am  178  ALA178     -0.1979
      9  CA        15.2160    3.4940  -31.6030 C.3   178  ALA178      0.1597
     10  C         15.9280    4.6440  -30.9140 C.2   178  ALA178      0.2287
     11  O         15.6450    5.8050  -31.2370 O.2   178  ALA178     -0.2864
     12  CB        16.1260    2.8040  -32.6190 C.3   178  ALA178      0.0319
     13  N          4.9240    4.2280  -30.0390 N.3   225  GLN225     -0.1231
     14  CA         6.3370    3.8780  -30.1430 C.3   225  GLN225      0.1698
     15  C          6.6000    2.4490  -29.6910 C.2   225  GLN225      0.2592
     16  O          7.4190    1.7660  -30.3100 O.2   225  GLN225     -0.2718
     17  CB         7.1500    4.8970  -29.2990 C.3   225  GLN225      0.0381
     18  CG         8.6390    4.7510  -29.2890 C.3   225  GLN225      0.0905
     19  CD         9.2590    6.0230  -28.6520 C.2   225  GLN225      0.2608
     20  OE1        9.1600    6.2690  -27.4300 O.2   225  GLN225     -0.2717
     21  NE2        9.7480    6.8790  -29.4920 N.am  225  GLN225     -0.0878
     22  N          5.9030    2.0010  -28.6780 N.am  226  LYS226     -0.1966
     23  CA         6.1070    0.6190  -28.1580 C.3   226  LYS226      0.1728
     24  C          5.6280   -0.3800  -29.2330 C.2   226  LYS226      0.2616
     25  O          6.2350   -1.4050  -29.3590 O.2   226  LYS226     -0.2715
     26  CB         5.4460    0.3740  -26.7790 C.3   226  LYS226      0.0311
     27  CG         6.4100    0.6590  -25.5980 C.3   226  LYS226      0.0038
     28  CD         5.6810    0.5930  -24.2470 C.3   226  LYS226      0.0206
     29  CE         6.6180    0.9730  -23.1380 C.3   226  LYS226      0.1093
     30  NZ         5.9800    1.0680  -21.7340 N.3   226  LYS226     -0.1314
     31  N          4.5490   -0.1040  -29.9350 N.am  227  ALA227     -0.1963
     32  CA         4.1040   -1.0390  -31.0240 C.3   227  ALA227      0.1728
     33  C          4.8450   -0.8420  -32.3560 C.2   227  ALA227      0.2616
     34  O          4.7330   -1.6790  -33.2390 O.2   227  ALA227     -0.2715
     35  CB         2.5760   -0.8980  -31.2570 C.3   227  ALA227      0.0334
     36  N          5.6030    0.2380  -32.4870 N.am  228  GLY228     -0.1955
     37  CA         6.0760    0.7430  -33.7980 C.3   228  GLY228      0.1869
     38  C          4.9460    0.9320  -34.8260 C.2   228  GLY228      0.2309
     39  O          5.1710    0.6910  -35.9980 O.2   228  GLY228     -0.2863
     40  N          6.4480   -0.0590  -38.2350 N.3   244  LEU244     -0.1231
     41  CA         7.8740    0.2710  -38.1430 C.3   244  LEU244      0.1693
     42  C          8.5610   -0.6510  -37.1620 C.2   244  LEU244      0.2593
     43  O          9.7300   -0.4090  -36.8100 O.2   244  LEU244     -0.2718
     44  CB         8.0470    1.7440  -37.6530 C.3   244  LEU244      0.0284
     45  CG         7.3270    2.7970  -38.4950 C.3   244  LEU244      0.0019
     46  CD1        7.2750    4.0550  -37.7320 C.3   244  LEU244      0.0001
     47  CD2        8.2160    2.9640  -39.7460 C.3   244  LEU244      0.0001
     48  N          7.8730   -1.7310  -36.7660 N.am  245  SER245     -0.1938
     49  CA         8.4110   -2.5950  -35.7140 C.3   245  SER245      0.2055
     50  C          9.6830   -3.3610  -36.1130 C.2   245  SER245      0.2644
     51  O         10.4530   -3.7680  -35.2160 O.2   245  SER245     -0.2714
     52  CB         7.3630   -3.6020  -35.2340 C.3   245  SER245      0.2130
     53  OG         6.9590   -4.4650  -36.2960 O.3   245  SER245     -0.2179
     54  N          9.9280   -3.5950  -37.4020 N.am  246  SER246     -0.1935
     55  CA        11.1700   -4.3260  -37.7590 C.3   246  SER246      0.2055
     56  C         12.3370   -3.3250  -37.7470 C.2   246  SER246      0.2643
     57  O         13.5010   -3.7380  -37.9500 O.2   246  SER246     -0.2714
     58  CB        11.1320   -4.8990  -39.1750 C.3   246  SER246      0.2130
     59  OG        11.0020   -3.7890  -40.1090 O.3   246  SER246     -0.2179
     60  N         12.0500   -2.0200  -37.5960 N.am  247  GLY247     -0.1954
     61  CA        13.1330   -1.0180  -37.7210 C.3   247  GLY247      0.1869
     62  C         13.0390   -0.3780  -39.1200 C.2   247  GLY247      0.2309
     63  O         13.6310    0.6660  -39.3520 O.2   247  GLY247     -0.2863
@<TRIPOS>BOND
     1    59    58    1
     2    47    45    1
     3    63    62    2
     4    58    55    1
     5    62    61    1
     6    45    46    1
     7    45    44    1
     8    40    41    1
     9    41    44    1
    10    41    42    1
    11    57    56    2
    12    55    56    1
    13    55    54    1
    14    56    60   am
    15    61    60    1
    16    54    50   am
    17    42    43    2
    18    42    48   am
    19    48    49    1
    20    53    52    1
    21    50    49    1
    22    50    51    2
    23    39    38    2
    24    49    52    1
    25     7     5    1
    26     6     5    1
    27     5     2    1
    28    38    37    1
    29    37    36    1
    30     1     2    1
    31     2     3    1
    32    34    33    2
    33     3     4    2
    34     3     8   am
    35    12     9    1
    36    36    33   am
    37    33    32    1
    38     8     9    1
    39     9    10    1
    40    35    32    1
    41    11    10    2
    42    32    31    1
    43    16    15    2
    44    14    13    1
    45    14    15    1
    46    14    17    1
    47    31    24   am
    48    15    22   am
    49    21    19   am
    50    25    24    2
    51    17    18    1
    52    18    19    1
    53    24    23    1
    54    22    23    1
    55    19    20    2
    56    23    26    1
    57    26    27    1
    58    27    28    1
    59    28    29    1
    60    29    30    1
