@<TRIPOS>MOLECULE
tmp/3swwB05.pdb
 174 172 0 0 0
SMALL
GASTEIGER

@<TRIPOS>ATOM
      1  N         56.2300   68.8420   72.3050 N.3    86  ARG86      -0.1231
      2  CA        57.1550   68.4020   73.3600 C.3    86  ARG86       0.1694
      3  C         56.5430   68.5390   74.7560 C.2    86  ARG86       0.2592
      4  O         56.7280   67.6710   75.6070 O.2    86  ARG86      -0.2718
      5  CB        58.4890   69.1610   73.3200 C.3    86  ARG86       0.0321
      6  CG        59.5490   68.5550   74.2640 C.3    86  ARG86       0.0489
      7  CD        60.8310   69.3690   74.3260 C.3    86  ARG86       0.2205
      8  NE        61.4270   69.5540   73.0050 N.pl3  86  ARG86      -0.0865
      9  CZ        62.2850   68.7080   72.4370 C.cat  86  ARG86       0.5346
     10  NH1       62.6600   67.6070   73.0820 N.pl3  86  ARG86       0.1354
     11  NH2       62.7660   68.9590   71.2180 N.pl3  86  ARG86       0.1354
     12  N         55.8270   69.6330   74.9950 N.am   87  HIS87      -0.1976
     13  CA        55.2110   69.8660   76.3090 C.3    87  HIS87       0.1656
     14  C         53.6850   69.8590   76.3260 C.2    87  HIS87       0.2291
     15  O         53.0790   69.5200   77.3390 O.2    87  HIS87      -0.2864
     16  CB        55.7200   71.1750   76.9110 C.3    87  HIS87       0.0771
     17  CG        57.2140   71.2820   76.9260 C.ar   87  HIS87       0.0820
     18  ND1       58.0060   70.5280   77.7690 N.ar   87  HIS87      -0.2267
     19  CD2       58.0620   72.0410   76.1890 C.ar   87  HIS87       0.1154
     20  CE1       59.2750   70.8300   77.5590 C.ar   87  HIS87       0.1986
     21  NE2       59.3370   71.7380   76.5990 N.ar   87  HIS87      -0.2212
     22  N         58.3210   75.3470   72.3050 N.3   166  GLU166     -0.1231
     23  CA        59.5730   74.6340   72.0140 C.3   166  GLU166      0.1699
     24  C         60.8430   75.4130   72.3570 C.2   166  GLU166      0.2592
     25  O         61.7610   74.8520   72.9560 O.2   166  GLU166     -0.2718
     26  CB        59.6270   74.2060   70.5350 C.3   166  GLU166      0.0402
     27  CG        60.9660   73.6210   70.0890 C.3   166  GLU166      0.1161
     28  CD        61.2310   72.2280   70.6480 C.2   166  GLU166      0.3649
     29  OE1       60.3700   71.6850   71.3920 O.co2 166  GLU166     -0.2457
     30  OE2       62.3070   71.6720   70.3350 O.co2 166  GLU166     -0.2457
     31  N         60.8910   76.6980   72.0020 N.am  167  GLU167     -0.1979
     32  CA        62.1350   77.4630   72.0740 C.3   167  GLU167      0.1602
     33  C         62.2080   78.5840   73.1370 C.2   167  GLU167      0.2287
     34  O         63.2960   79.0600   73.4560 O.2   167  GLU167     -0.2864
     35  CB        62.4450   78.0770   70.6960 C.3   167  GLU167      0.0415
     36  CG        62.3800   77.0800   69.5210 C.3   167  GLU167      0.1163
     37  CD        63.5300   76.0920   69.4960 C.2   167  GLU167      0.3649
     38  OE1       64.3400   76.0640   70.4500 O.co2 167  GLU167     -0.2457
     39  OE2       63.6180   75.3170   68.5110 O.co2 167  GLU167     -0.2457
     40  N         59.7360   76.5500   77.1060 N.3   170  SER170     -0.1217
     41  CA        59.8840   75.1170   77.4050 C.3   170  SER170      0.1889
     42  C         58.6860   74.6030   78.1880 C.2   170  SER170      0.2288
     43  O         58.8320   73.8310   79.1560 O.2   170  SER170     -0.2866
     44  CB        61.1610   74.8460   78.1990 C.3   170  SER170      0.2089
     45  OG        62.3090   75.2730   77.4880 O.3   170  SER170     -0.2183
     46  N         68.8800   81.5890   76.3530 N.3   319  ARG319     -0.1245
     47  CA        68.0030   82.7430   76.5100 C.3   319  ARG319      0.1563
     48  C         68.4600   83.5160   77.7440 C.2   319  ARG319      0.2260
     49  O         69.2540   83.0010   78.5320 O.2   319  ARG319     -0.2867
     50  CB        66.5600   82.2830   76.7040 C.3   319  ARG319      0.0307
     51  CG        66.3250   81.4710   77.9850 C.3   319  ARG319      0.0489
     52  CD        64.9630   80.8000   77.9260 C.3   319  ARG319      0.2205
     53  NE        64.8800   80.0360   76.6850 N.pl3 319  ARG319     -0.0865
     54  CZ        65.1640   78.7440   76.5910 C.cat 319  ARG319      0.5346
     55  NH1       65.0890   78.1310   75.4100 N.pl3 319  ARG319      0.1354
     56  NH2       65.5220   78.0720   77.6790 N.pl3 319  ARG319      0.1354
     57  N         76.6480   65.4300   69.0080 N.3   508  TYR508     -0.1241
     58  CA        75.5580   66.3860   68.9920 C.3   508  TYR508      0.1605
     59  C         76.1360   67.7340   68.5360 C.2   508  TYR508      0.2264
     60  O         75.8630   68.1900   67.4260 O.2   508  TYR508     -0.2867
     61  CB        74.8320   66.4640   70.3460 C.3   508  TYR508      0.0534
     62  CG        73.6480   67.3820   70.2530 C.ar  508  TYR508     -0.0201
     63  CD1       72.4880   66.9880   69.5890 C.ar  508  TYR508     -0.0009
     64  CD2       73.7060   68.6640   70.7700 C.ar  508  TYR508     -0.0009
     65  CE1       71.4100   67.8530   69.4610 C.ar  508  TYR508      0.0417
     66  CE2       72.6390   69.5340   70.6480 C.ar  508  TYR508      0.0417
     67  CZ        71.5010   69.1280   70.0020 C.ar  508  TYR508      0.1957
     68  OH        70.4580   70.0110   69.8990 O.3   508  TYR508     -0.2866
     69  N         71.8660   62.6670   66.0050 N.3   590  TRP590     -0.1227
     70  CA        70.4370   62.8750   65.8750 C.3   590  TRP590      0.1737
     71  C         70.1910   64.3750   65.9420 C.2   590  TRP590      0.2596
     72  O         70.8370   65.0770   66.7220 O.2   590  TRP590     -0.2718
     73  CB        69.7550   62.2170   67.0740 C.3   590  TRP590      0.0564
     74  CG        68.2990   61.9200   66.9170 C.ar  590  TRP590      0.0003
     75  CD1       67.3090   62.7950   66.5830 C.ar  590  TRP590      0.0946
     76  CD2       67.6600   60.6550   67.1460 C.ar  590  TRP590      0.0152
     77  NE1       66.0930   62.1490   66.5860 N.ar  590  TRP590     -0.2442
     78  CE2       66.2880   60.8320   66.9190 C.ar  590  TRP590      0.0810
     79  CE3       68.1230   59.3870   67.5170 C.ar  590  TRP590      0.0012
     80  CZ2       65.3690   59.7880   67.0450 C.ar  590  TRP590      0.0191
     81  CZ3       67.2040   58.3510   67.6360 C.ar  590  TRP590      0.0001
     82  CH2       65.8450   58.5640   67.4120 C.ar  590  TRP590      0.0015
     83  N         69.2650   64.8780   65.1430 N.am  591  SER591     -0.1938
     84  CA        68.8820   66.2800   65.2630 C.3   591  SER591      0.2055
     85  C         70.0380   67.2210   64.9010 C.2   591  SER591      0.2643
     86  O         70.5560   67.1520   63.7910 O.2   591  SER591     -0.2714
     87  CB        68.3820   66.5390   66.6810 C.3   591  SER591      0.2130
     88  OG        67.7760   67.7980   66.7390 O.3   591  SER591     -0.2179
     89  N         70.4570   68.1140   65.7950 N.am  592  TYR592     -0.1973
     90  CA        71.6450   68.9000   65.4510 C.3   592  TYR592      0.1639
     91  C         72.7950   67.9390   65.1220 C.2   592  TYR592      0.2290
     92  O         73.6060   68.2050   64.2420 O.2   592  TYR592     -0.2864
     93  CB        72.0520   69.8820   66.5560 C.3   592  TYR592      0.0560
     94  CG        73.0010   70.9670   66.0780 C.ar  592  TYR592     -0.0198
     95  CD1       74.3470   70.6980   65.8700 C.ar  592  TYR592     -0.0009
     96  CD2       72.5510   72.2590   65.8310 C.ar  592  TYR592     -0.0009
     97  CE1       75.2220   71.6830   65.4180 C.ar  592  TYR592      0.0417
     98  CE2       73.4180   73.2530   65.3900 C.ar  592  TYR592      0.0417
     99  CZ        74.7550   72.9560   65.1870 C.ar  592  TYR592      0.1957
    100  OH        75.6350   73.9300   64.7470 O.3   592  TYR592     -0.2866
    101  N         68.8840   68.4200   60.5340 N.3   617  VAL617     -0.1245
    102  CA        68.6730   69.6710   59.8150 C.3   617  VAL617      0.1561
    103  C         69.5500   69.5970   58.5510 C.2   617  VAL617      0.2260
    104  O         70.6530   69.0360   58.5980 O.2   617  VAL617     -0.2867
    105  CB        69.0860   70.8960   60.6560 C.3   617  VAL617      0.0252
    106  CG1       69.3820   72.0980   59.7430 C.3   617  VAL617      0.0019
    107  CG2       67.9940   71.2480   61.6550 C.3   617  VAL617      0.0019
    108  N         69.5020   75.7590   57.1430 N.3   620  TRP620     -0.1241
    109  CA        68.9930   76.5410   58.2870 C.3   620  TRP620      0.1605
    110  C         67.7050   77.3030   57.9810 C.2   620  TRP620      0.2264
    111  O         66.8780   77.5230   58.8660 O.2   620  TRP620     -0.2867
    112  CB        70.0920   77.4220   58.9300 C.3   620  TRP620      0.0550
    113  CG        71.0510   76.5470   59.6530 C.ar  620  TRP620      0.0003
    114  CD1       72.3430   76.2590   59.3020 C.ar  620  TRP620      0.0946
    115  CD2       70.7550   75.7510   60.7980 C.ar  620  TRP620      0.0152
    116  NE1       72.8830   75.3550   60.1920 N.ar  620  TRP620     -0.2442
    117  CE2       71.9240   75.0300   61.1200 C.ar  620  TRP620      0.0810
    118  CE3       69.6230   75.6010   61.6080 C.ar  620  TRP620      0.0012
    119  CZ2       71.9820   74.1640   62.2020 C.ar  620  TRP620      0.0191
    120  CZ3       69.6870   74.7430   62.6920 C.ar  620  TRP620      0.0001
    121  CH2       70.8550   74.0290   62.9740 C.ar  620  TRP620      0.0015
    122  N         64.6210   75.4270   59.4430 N.3   623  TYR623     -0.1241
    123  CA        64.3850   75.2850   60.8750 C.3   623  TYR623      0.1605
    124  C         63.7360   76.5370   61.4740 C.2   623  TYR623      0.2264
    125  O         63.6100   77.5610   60.8030 O.2   623  TYR623     -0.2867
    126  CB        65.6680   74.8990   61.6290 C.3   623  TYR623      0.0534
    127  CG        65.3350   74.2740   62.9710 C.ar  623  TYR623     -0.0201
    128  CD1       64.4500   73.2040   63.0470 C.ar  623  TYR623     -0.0009
    129  CD2       65.8550   74.7870   64.1640 C.ar  623  TYR623     -0.0009
    130  CE1       64.1050   72.6370   64.2610 C.ar  623  TYR623      0.0417
    131  CE2       65.5250   74.2190   65.3910 C.ar  623  TYR623      0.0417
    132  CZ        64.6430   73.1550   65.4280 C.ar  623  TYR623      0.1957
    133  OH        64.2890   72.5990   66.6260 O.3   623  TYR623     -0.2866
    134  N         65.2180   79.5360   67.3350 N.3   627  TYR627     -0.1241
    135  CA        66.4700   78.8150   67.5030 C.3   627  TYR627      0.1605
    136  C         67.4930   79.2610   66.4790 C.2   627  TYR627      0.2264
    137  O         68.6280   79.5910   66.8110 O.2   627  TYR627     -0.2867
    138  CB        66.2520   77.3170   67.3430 C.3   627  TYR627      0.0534
    139  CG        67.4970   76.5010   67.6020 C.ar  627  TYR627     -0.0201
    140  CD1       68.3990   76.2230   66.5830 C.ar  627  TYR627     -0.0009
    141  CD2       67.7660   76.0050   68.8680 C.ar  627  TYR627     -0.0009
    142  CE1       69.5420   75.4760   66.8270 C.ar  627  TYR627      0.0417
    143  CE2       68.8970   75.2520   69.1200 C.ar  627  TYR627      0.0417
    144  CZ        69.7790   74.9870   68.1010 C.ar  627  TYR627      0.1957
    145  OH        70.9080   74.2420   68.3670 O.3   627  TYR627     -0.2866
    146  N         58.9640   69.0720   64.0970 N.3   671  ASN671     -0.1225
    147  CA        60.0690   69.8790   64.6360 C.3   671  ASN671      0.1785
    148  C         61.1690   70.1250   63.5840 C.2   671  ASN671      0.2597
    149  O         61.3380   71.2410   63.0770 O.2   671  ASN671     -0.2718
    150  CB        60.6480   69.1840   65.8800 C.3   671  ASN671      0.1169
    151  CG        61.5190   70.1150   66.7290 C.2   671  ASN671      0.2627
    152  OD1       62.1600   71.0400   66.2120 O.2   671  ASN671     -0.2716
    153  ND2       61.5460   69.8660   68.0340 N.am  671  ASN671     -0.0877
    154  N         61.9100   69.0760   63.2540 N.am  672  VAL672     -0.1980
    155  CA        62.7920   69.1170   62.0860 C.3   672  VAL672      0.1595
    156  C         61.9970   68.4190   60.9960 C.2   672  VAL672      0.2287
    157  O         61.8110   67.2090   61.0210 O.2   672  VAL672     -0.2864
    158  CB        64.1240   68.3820   62.3400 C.3   672  VAL672      0.0276
    159  CG1       65.0090   68.3760   61.0760 C.3   672  VAL672      0.0022
    160  CG2       64.8670   69.0200   63.5100 C.3   672  VAL672      0.0022
    161  N         59.9190   63.8320   65.9310 N.3   701  HIS701     -0.1226
    162  CA        61.3580   64.0170   66.1140 C.3   701  HIS701      0.1752
    163  C         62.0070   62.9750   67.0080 C.2   701  HIS701      0.2596
    164  O         63.2070   62.7190   66.8930 O.2   701  HIS701     -0.2718
    165  CB        61.6850   65.4020   66.6860 C.3   701  HIS701      0.0759
    166  CG        63.0940   65.8230   66.4170 C.ar  701  HIS701      0.0818
    167  ND1       63.6140   65.8750   65.1440 N.ar  701  HIS701     -0.2268
    168  CD2       64.1010   66.1770   67.2490 C.ar  701  HIS701      0.1154
    169  CE1       64.8810   66.2420   65.2000 C.ar  701  HIS701      0.1986
    170  NE2       65.2000   66.4390   66.4660 N.ar  701  HIS701     -0.2212
    171  N         61.2320   62.4040   67.9240 N.am  702  GLY702     -0.1957
    172  CA        61.7870   61.4890   68.9060 C.3   702  GLY702      0.1869
    173  C         61.8330   60.0460   68.4440 C.2   702  GLY702      0.2309
    174  O         62.5300   59.2360   69.0440 O.2   702  GLY702     -0.2863
@<TRIPOS>BOND
     1   108   109    1
     2   110   109    1
     3   110   111    2
     4   109   112    1
     5   103   104    2
     6   103   102    1
     7   112   113    1
     8   114   113   ar
     9   114   116   ar
    10   122   123    1
    11   113   115   ar
    12   106   105    1
    13   102   101    1
    14   102   105    1
    15   116   117   ar
    16   105   107    1
    17   115   117   ar
    18   115   118   ar
    19   125   124    2
    20   123   124    1
    21   123   126    1
    22   156   157    2
    23   156   155    1
    24   159   158    1
    25   117   119   ar
    26   118   120   ar
    27   126   127    1
    28   155   158    1
    29   155   154    1
    30   119   121   ar
    31   158   160    1
    32   120   121   ar
    33   127   128   ar
    34   127   129   ar
    35   128   130   ar
    36   149   148    2
    37   154   148   am
    38   148   147    1
    39    86    85    2
    40   146   147    1
    41   129   131   ar
    42    92    91    2
    43   130   132   ar
    44   147   150    1
    45   100    99    1
    46    85    84    1
    47    85    89   am
    48    91    90    1
    49    83    84    1
    50    83    71   am
    51   167   169   ar
    52   167   166   ar
    53    99    98   ar
    54    99    97   ar
    55   169   170   ar
    56    84    87    1
    57    98    96   ar
    58   131   132   ar
    59    97    95   ar
    60   132   133    1
    61    90    89    1
    62    90    93    1
    63    96    94   ar
    64    95    94   ar
    65    70    71    1
    66    70    69    1
    67    70    73    1
    68   150   151    1
    69   161   162    1
    70    71    72    2
    71    94    93    1
    72   162   165    1
    73   162   163    1
    74   152   151    2
    75   166   165    1
    76   166   168   ar
    77   170   168   ar
    78   136   137    2
    79   136   135    1
    80   140   142   ar
    81   140   139   ar
    82    75    77   ar
    83    75    74   ar
    84    77    78   ar
    85    87    88    1
    86   151   153   am
    87   142   144   ar
    88   164   163    2
    89    74    73    1
    90    74    76   ar
    91    78    80   ar
    92    78    76   ar
    93   163   171   am
    94    80    82   ar
    95    76    79   ar
    96   134   135    1
    97   138   135    1
    98   138   139    1
    99    82    81   ar
   100    60    59    2
   101    79    81   ar
   102   139   141   ar
   103   171   172    1
   104   144   145    1
   105   144   143   ar
   106   173   172    1
   107   173   174    2
   108    39    37   ar
   109    59    58    1
   110   141   143   ar
   111    58    57    1
   112    58    61    1
   113    65    63   ar
   114    65    67   ar
   115    37    36    1
   116    37    38   ar
   117    36    35    1
   118    63    62   ar
   119    68    67    1
   120    67    66   ar
   121    27    26    1
   122    27    28    1
   123    62    61    1
   124    62    64   ar
   125    30    28   ar
   126    26    23    1
   127    28    29   ar
   128    66    64   ar
   129    35    32    1
   130    11     9    1
   131    31    32    1
   132    31    24   am
   133    23    22    1
   134    23    24    1
   135    32    33    1
   136     1     2    1
   137    24    25    2
   138     9     8    2
   139     9    10    1
   140     8     7    1
   141    33    34    2
   142     5     2    1
   143     5     6    1
   144     2     3    1
   145     6     7    1
   146     3    12   am
   147     3     4    2
   148    12    13    1
   149    55    54    1
   150    19    21   ar
   151    19    17   ar
   152    13    14    1
   153    13    16    1
   154    14    15    2
   155    46    47    1
   156    47    50    1
   157    47    48    1
   158    54    53    2
   159    54    56    1
   160    21    20   ar
   161    53    52    1
   162    50    51    1
   163    16    17    1
   164    17    18   ar
   165    40    41    1
   166    41    42    1
   167    41    44    1
   168    45    44    1
   169    20    18   ar
   170    48    49    2
   171    52    51    1
   172    42    43    2
