@<TRIPOS>MOLECULE
tmp/3swzA01.pdb
 153 142 0 0 0
SMALL
GASTEIGER

@<TRIPOS>ATOM
      1  N         16.5970   -0.9800   25.2680 N.3    76  ALA76      -0.1245
      2  CA        15.8920   -0.8230   26.5470 C.3    76  ALA76       0.1562
      3  C         14.7660    0.2180   26.4790 C.2    76  ALA76       0.2260
      4  O         13.8130    0.1500   27.2440 O.2    76  ALA76      -0.2867
      5  CB        16.8700   -0.5050   27.6810 C.3    76  ALA76       0.0290
      6  N         13.9340    8.8470   29.9980 N.3    84  ALA84      -0.1231
      7  CA        15.3860    8.9120   30.2410 C.3    84  ALA84       0.1694
      8  C         16.2960    8.9290   29.0200 C.2    84  ALA84       0.2592
      9  O         17.2530    9.6980   28.9630 O.2    84  ALA84      -0.2718
     10  CB        15.8090    7.7700   31.1840 C.3    84  ALA84       0.0304
     11  N         15.9870    8.0710   28.0620 N.am   85  PHE85      -0.1976
     12  CA        16.8870    7.7900   26.9630 C.3    85  PHE85       0.1639
     13  C         16.3370    8.3200   25.6580 C.2    85  PHE85       0.2290
     14  O         16.9210    8.1030   24.5900 O.2    85  PHE85      -0.2864
     15  CB        17.1750    6.2850   26.8980 C.3    85  PHE85       0.0560
     16  CG        17.8560    5.7520   28.1370 C.ar   85  PHE85      -0.0200
     17  CD1       18.8790    6.4880   28.7620 C.ar   85  PHE85      -0.0042
     18  CD2       17.4660    4.5370   28.6950 C.ar   85  PHE85      -0.0042
     19  CE1       19.4910    6.0120   29.9090 C.ar   85  PHE85      -0.0003
     20  CE2       18.0790    4.0410   29.8340 C.ar   85  PHE85      -0.0003
     21  CZ        19.0970    4.7820   30.4460 C.ar   85  PHE85      -0.0000
     22  N         14.8550  -10.1040   35.3510 N.3   172  TYR172     -0.1227
     23  CA        15.0350   -9.2690   34.1800 C.3   172  TYR172      0.1736
     24  C         15.6230   -7.9170   34.5460 C.2   172  TYR172      0.2595
     25  O         16.3130   -7.3150   33.7340 O.2   172  TYR172     -0.2718
     26  CB        13.8080   -9.1960   33.2430 C.3   172  TYR172      0.0548
     27  CG        12.5960   -8.3720   33.6930 C.ar  172  TYR172     -0.0200
     28  CD1       12.7010   -7.0200   33.9380 C.ar  172  TYR172     -0.0009
     29  CD2       11.3300   -8.9620   33.7930 C.ar  172  TYR172     -0.0009
     30  CE1       11.6430   -6.2810   34.3270 C.ar  172  TYR172      0.0417
     31  CE2       10.2120   -8.2030   34.1810 C.ar  172  TYR172      0.0417
     32  CZ        10.3870   -6.8630   34.4460 C.ar  172  TYR172      0.1957
     33  OH         9.3310   -6.0910   34.8420 O.3   172  TYR172     -0.2866
     34  N         15.3930   -7.4610   35.7710 N.am  173  ASN173     -0.1974
     35  CA        16.0890   -6.2990   36.2130 C.3   173  ASN173      0.1688
     36  C         17.6020   -6.4850   36.2570 C.2   173  ASN173      0.2292
     37  O         18.3290   -5.6220   35.7740 O.2   173  ASN173     -0.2864
     38  CB        15.5600   -5.7590   37.5110 C.3   173  ASN173      0.1181
     39  CG        14.3270   -4.8940   37.3250 C.2   173  ASN173      0.2629
     40  OD1       13.7640   -4.7660   36.2270 O.2   173  ASN173     -0.2716
     41  ND2       13.8980   -4.2880   38.4080 N.am  173  ASN173     -0.0877
     42  N         19.0360   -6.7540   32.5370 N.3   176  ILE176     -0.1231
     43  CA        19.0940   -5.5110   31.7720 C.3   176  ILE176      0.1692
     44  C         20.2130   -4.6110   32.2740 C.2   176  ILE176      0.2591
     45  O         21.0630   -4.1740   31.4970 O.2   176  ILE176     -0.2718
     46  CB        17.7400   -4.8010   31.7550 C.3   176  ILE176      0.0266
     47  CG1       16.7630   -5.6160   30.8900 C.3   176  ILE176      0.0019
     48  CG2       17.8800   -3.3580   31.2340 C.3   176  ILE176      0.0020
     49  CD1       15.2980   -5.3630   31.1680 C.3   176  ILE176      0.0001
     50  N         20.2220   -4.3720   33.5730 N.am  177  ILE177     -0.1980
     51  CA        21.3330   -3.7000   34.2070 C.3   177  ILE177      0.1595
     52  C         22.6590   -4.3270   33.8130 C.2   177  ILE177      0.2287
     53  O         23.5190   -3.6230   33.3420 O.2   177  ILE177     -0.2864
     54  CB        21.1690   -3.5900   35.7320 C.3   177  ILE177      0.0276
     55  CG1       20.0260   -2.5960   36.0570 C.3   177  ILE177      0.0022
     56  CG2       22.4590   -3.0910   36.3440 C.3   177  ILE177      0.0022
     57  CD1       19.4170   -2.7450   37.5060 C.3   177  ILE177      0.0001
     58  N         23.2820   -3.6420   29.8590 N.3   180  LEU180     -0.1245
     59  CA        23.0410   -2.3280   29.3130 C.3   180  LEU180      0.1561
     60  C         24.3620   -1.6170   29.0140 C.2   180  LEU180      0.2260
     61  O         24.5060   -0.9110   28.0190 O.2   180  LEU180     -0.2867
     62  CB        22.1770   -1.5180   30.2820 C.3   180  LEU180      0.0270
     63  CG        21.5510   -0.2150   29.7620 C.3   180  LEU180      0.0019
     64  CD1       20.8340   -0.4420   28.4050 C.3   180  LEU180      0.0001
     65  CD2       20.5820    0.3700   30.7910 C.3   180  LEU180      0.0001
     66  N         10.4340   -8.0830   29.9460 N.3   210  ARG210     -0.1245
     67  CA         9.8920   -6.8750   30.5780 C.3   210  ARG210      0.1563
     68  C          8.6960   -6.3220   29.7640 C.2   210  ARG210      0.2260
     69  O          7.6470   -6.0550   30.3150 O.2   210  ARG210     -0.2867
     70  CB        11.0070   -5.8210   30.7090 C.3   210  ARG210      0.0307
     71  CG        10.7130   -4.6090   31.5900 C.3   210  ARG210      0.0489
     72  CD         9.8050   -3.5460   30.9630 C.3   210  ARG210      0.2205
     73  NE        10.2730   -2.9800   29.6840 N.pl3 210  ARG210     -0.0865
     74  CZ        11.1250   -1.9550   29.5420 C.cat 210  ARG210      0.5346
     75  NH1       11.6910   -1.3730   30.5780 N.pl3 210  ARG210      0.1354
     76  NH2       11.4400   -1.5260   28.3530 N.pl3 210  ARG210      0.1354
     77  N          7.6490    1.8260   32.0100 N.3   264  GLY264     -0.1210
     78  CA         8.8640    1.0500   32.1580 C.3   264  GLY264      0.1956
     79  C          9.9480    1.8520   32.8460 C.2   264  GLY264      0.2611
     80  O         10.5050    1.4160   33.8650 O.2   264  GLY264     -0.2717
     81  N         10.2110    3.0440   32.3100 N.am  265  ASP265     -0.1973
     82  CA        11.1900    3.9640   32.8640 C.3   265  ASP265      0.1709
     83  C         10.9220    4.2890   34.3310 C.2   265  ASP265      0.2293
     84  O         11.8580    4.3610   35.1290 O.2   265  ASP265     -0.2864
     85  CB        11.2580    5.2570   32.0490 C.3   265  ASP265      0.1436
     86  CG        12.1930    5.1660   30.8200 C.2   265  ASP265      0.3671
     87  OD1       12.4360    4.0550   30.2880 O.co2 265  ASP265     -0.2456
     88  OD2       12.6890    6.2310   30.3740 O.co2 265  ASP265     -0.2456
     89  N         11.2390    0.9020   36.5040 N.3   268  GLY268     -0.1210
     90  CA        12.6490    0.6910   36.6850 C.3   268  GLY268      0.1956
     91  C         13.3390    1.6830   37.5930 C.2   268  GLY268      0.2611
     92  O         13.9680    1.3020   38.6030 O.2   268  GLY268     -0.2717
     93  N         13.2470    2.9570   37.2220 N.am  269  ALA269     -0.1979
     94  CA        13.8750    4.0370   37.9850 C.3   269  ALA269      0.1597
     95  C         13.4230    3.9950   39.4240 C.2   269  ALA269      0.2287
     96  O         14.1910    4.2740   40.3470 O.2   269  ALA269     -0.2864
     97  CB        13.5660    5.3850   37.3580 C.3   269  ALA269      0.0319
     98  N         15.2910    0.4290   41.2790 N.3   272  GLU272     -0.1231
     99  CA        16.6740    0.0510   41.2850 C.3   272  GLU272      0.1699
    100  C         17.5370    1.1170   41.9740 C.2   272  GLU272      0.2592
    101  O         18.3910    0.7720   42.7940 O.2   272  GLU272     -0.2718
    102  CB        17.1490   -0.2780   39.8630 C.3   272  GLU272      0.0402
    103  CG        16.6530   -1.6400   39.3410 C.3   272  GLU272      0.1161
    104  CD        17.0530   -2.8290   40.2350 C.2   272  GLU272      0.3649
    105  OE1       18.2000   -2.8970   40.7370 O.co2 272  GLU272     -0.2457
    106  OE2       16.2090   -3.7030   40.4450 O.co2 272  GLU272     -0.2457
    107  N         17.2590    2.3870   41.6770 N.am  273  THR273     -0.1953
    108  CA        17.9030    3.5140   42.3240 C.3   273  THR273      0.1897
    109  C         17.7800    3.4480   43.8260 C.2   273  THR273      0.2313
    110  O         18.7930    3.4130   44.5070 O.2   273  THR273     -0.2863
    111  CB        17.3690    4.8900   41.8370 C.3   273  THR273      0.1794
    112  OG1       16.0110    5.0630   42.2470 O.3   273  THR273     -0.2208
    113  CG2       17.4770    5.0200   40.3500 C.3   273  THR273      0.0378
    114  N         24.2800    7.8600   42.9530 N.3   333  VAL333     -0.1231
    115  CA        23.6450    6.8610   42.1400 C.3   333  VAL333      0.1692
    116  C         24.0700    6.9170   40.6450 C.2   333  VAL333      0.2591
    117  O         24.3370    5.8750   40.0430 O.2   333  VAL333     -0.2718
    118  CB        22.1130    6.9020   42.2620 C.3   333  VAL333      0.0266
    119  CG1       21.5720    5.6850   41.6270 C.3   333  VAL333      0.0020
    120  CG2       21.6960    6.9530   43.7010 C.3   333  VAL333      0.0020
    121  N         24.0980    8.1140   40.0670 N.am  334  ALA334     -0.1980
    122  CA        24.6880    8.2970   38.7710 C.3   334  ALA334      0.1597
    123  C         25.9350    9.2050   38.8180 C.2   334  ALA334      0.2287
    124  O         25.8440   10.4170   38.6850 O.2   334  ALA334     -0.2864
    125  CB        23.6600    8.7780   37.7600 C.3   334  ALA334      0.0319
    126  N         23.3260   11.0170   33.4350 N.3   338  ILE338     -0.1245
    127  CA        23.0890   10.2640   32.2080 C.3   338  ILE338      0.1561
    128  C         23.6220   11.2340   31.1570 C.2   338  ILE338      0.2260
    129  O         23.6070   12.4330   31.4080 O.2   338  ILE338     -0.2867
    130  CB        21.5680   10.0190   32.0280 C.3   338  ILE338      0.0252
    131  CG1       20.9950    9.2650   33.2450 C.3   338  ILE338      0.0019
    132  CG2       21.2730    9.3610   30.6910 C.3   338  ILE338      0.0019
    133  CD1       19.5030    8.9210   33.1840 C.3   338  ILE338      0.0001
    134  N         16.2060   14.8600   37.7060 N.3   409  CYS409     -0.1235
    135  CA        15.3960   13.7380   38.1370 C.3   409  CYS409      0.1677
    136  C         13.9630   14.1780   38.4430 C.2   409  CYS409      0.2270
    137  O         13.7310   15.1400   39.1590 O.2   409  CYS409     -0.2867
    138  CB        16.0350   13.1270   39.3930 C.3   409  CYS409      0.0956
    139  SG        15.1400   11.8260   40.2470 S.3   409  CYS409     -0.0801
    140  N         24.5130    1.3590   34.9350 N.3   449  VAL449     -0.1231
    141  CA        23.6290    2.5500   34.8230 C.3   449  VAL449      0.1692
    142  C         23.4280    3.1810   36.1800 C.2   449  VAL449      0.2591
    143  O         23.3010    4.3740   36.3090 O.2   449  VAL449     -0.2718
    144  CB        22.2220    2.2980   34.2610 C.3   449  VAL449      0.0266
    145  CG1       22.0910    2.9260   32.9860 C.3   449  VAL449      0.0020
    146  CG2       21.8440    0.8520   34.2310 C.3   449  VAL449      0.0020
    147  N         23.3930    2.3490   37.1940 N.am  450  VAL450     -0.1980
    148  CA        23.3040    2.8060   38.5270 C.3   450  VAL450      0.1595
    149  C         24.6150    2.3840   39.1420 C.2   450  VAL450      0.2287
    150  O         25.1530    1.3530   38.7980 O.2   450  VAL450     -0.2864
    151  CB        22.1000    2.1300   39.2330 C.3   450  VAL450      0.0276
    152  CG1       22.0050    2.5440   40.7140 C.3   450  VAL450      0.0022
    153  CG2       20.7850    2.4250   38.4510 C.3   450  VAL450      0.0022
@<TRIPOS>BOND
     1    14    13    2
     2     1     2    1
     3    13    12    1
     4     3     2    1
     5     3     4    2
     6     2     5    1
     7    15    12    1
     8    15    16    1
     9    12    11    1
    10    61    60    2
    11    11     8   am
    12    16    18   ar
    13    16    17   ar
    14    76    74    1
    15    64    63    1
    16    18    20   ar
    17    17    19   ar
    18     9     8    2
    19    60    59    1
    20     8     7    1
    21    59    58    1
    22    59    62    1
    23    74    73    2
    24    74    75    1
    25    73    72    1
    26    63    62    1
    27    63    65    1
    28    68    69    2
    29    68    67    1
    30    20    21   ar
    31    19    21   ar
    32    66    67    1
    33     6     7    1
    34     7    10    1
    35    87    86   ar
    36    88    86   ar
    37    67    70    1
    38   132   130    1
    39    70    71    1
    40    86    85    1
    41    47    49    1
    42    47    46    1
    43    72    71    1
    44   128   129    2
    45   128   127    1
    46    48    46    1
    47    45    44    2
    48    46    43    1
    49    43    44    1
    50    43    42    1
    51    77    78    1
    52   130   127    1
    53   130   131    1
    54    85    82    1
    55    78    79    1
    56   127   126    1
    57    44    50   am
    58    81    79   am
    59    81    82    1
    60    79    80    2
    61    82    83    1
    62   145   144    1
    63   133   131    1
    64    26    27    1
    65    26    23    1
    66    53    52    2
    67    50    51    1
    68    27    29   ar
    69    27    28   ar
    70    25    24    2
    71    29    31   ar
    72    52    51    1
    73    28    30   ar
    74    23    24    1
    75    23    22    1
    76    31    32   ar
    77    51    54    1
    78   146   144    1
    79   144   141    1
    80    30    32   ar
    81    83    84    2
    82    32    33    1
    83    24    34   am
    84   141   140    1
    85   141   142    1
    86    54    55    1
    87    54    56    1
    88    34    35    1
    89    37    36    2
    90    55    57    1
    91   142   143    2
    92   142   147   am
    93    35    36    1
    94    35    38    1
    95    40    39    2
    96    89    90    1
    97    90    91    1
    98   147   148    1
    99    93    91   am
   100    93    94    1
   101    39    38    1
   102    39    41   am
   103    97    94    1
   104    91    92    2
   105   134   135    1
   106   125   122    1
   107    94    95    1
   108   135   136    1
   109   135   138    1
   110   136   137    2
   111   153   151    1
   112   148   149    1
   113   148   151    1
   114   124   123    2
   115   122   123    1
   116   122   121    1
   117   150   149    2
   118   151   152    1
   119   103   102    1
   120   103   104    1
   121   138   139    1
   122    95    96    2
   123   102    99    1
   124   117   116    2
   125   121   116   am
   126   104   106   ar
   127   104   105   ar
   128   113   111    1
   129   116   115    1
   130    98    99    1
   131    99   100    1
   132   119   118    1
   133   107   100   am
   134   107   108    1
   135   111   112    1
   136   111   108    1
   137   100   101    2
   138   115   118    1
   139   115   114    1
   140   118   120    1
   141   108   109    1
   142   109   110    2
