@<TRIPOS>MOLECULE
tmp/3sx0A00.pdb
 206 202 0 0 0
SMALL
GASTEIGER

@<TRIPOS>ATOM
      1  N         17.5270   69.4710  -13.4710 N.3   125  PRO125     -0.2102
      2  CA        17.4920   68.6330  -12.2640 C.3   125  PRO125      0.1504
      3  C         18.6100   67.5690  -12.1740 C.2   125  PRO125      0.2576
      4  O         18.8030   66.9720  -11.1220 O.2   125  PRO125     -0.2718
      5  CB        16.1020   67.9830  -12.3350 C.3   125  PRO125      0.0282
      6  CG        15.2900   68.9180  -13.1830 C.3   125  PRO125      0.0208
      7  CD        16.2490   69.4230  -14.2120 C.3   125  PRO125      0.0893
      8  N         19.3650   67.3650  -13.2510 N.am  126  GLU126     -0.1966
      9  CA        20.4780   66.3960  -13.2440 C.3   126  GLU126      0.1733
     10  C         21.8070   66.9630  -12.7020 C.2   126  GLU126      0.2616
     11  O         22.8350   66.2770  -12.7640 O.2   126  GLU126     -0.2715
     12  CB        20.7220   65.8540  -14.6660 C.3   126  GLU126      0.0429
     13  CG        19.6760   64.8440  -15.1500 C.3   126  GLU126      0.1163
     14  CD        18.2840   65.4440  -15.3020 C.2   126  GLU126      0.3649
     15  OE1       18.1310   66.4070  -16.0900 O.co2 126  GLU126     -0.2457
     16  OE2       17.3490   64.9540  -14.6250 O.co2 126  GLU126     -0.2457
     17  N         21.8040   68.1980  -12.1940 N.am  127  VAL127     -0.1963
     18  CA        23.0480   68.8130  -11.7200 C.3   127  VAL127      0.1727
     19  C         23.6260   67.9320  -10.6150 C.2   127  VAL127      0.2616
     20  O         22.9160   67.4940   -9.7170 O.2   127  VAL127     -0.2715
     21  CB        22.8700   70.2870  -11.2250 C.3   127  VAL127      0.0290
     22  CG1       24.0500   70.7120  -10.2830 C.3   127  VAL127      0.0023
     23  CG2       22.6920   71.2530  -12.4270 C.3   127  VAL127      0.0023
     24  N         24.9200   67.6430  -10.7370 N.am  128  TYR128     -0.1960
     25  CA        25.6050   66.8010   -9.7980 C.3   128  TYR128      0.1771
     26  C         26.4060   67.6330   -8.7920 C.2   128  TYR128      0.2620
     27  O         27.1120   68.5500   -9.1580 O.2   128  TYR128     -0.2715
     28  CB        26.5290   65.8650  -10.5650 C.3   128  TYR128      0.0574
     29  CG        27.3820   64.9800   -9.6910 C.ar  128  TYR128     -0.0198
     30  CD1       26.8610   63.8120   -9.1610 C.ar  128  TYR128     -0.0009
     31  CD2       28.7000   65.2980   -9.4090 C.ar  128  TYR128     -0.0009
     32  CE1       27.6170   62.9810   -8.3770 C.ar  128  TYR128      0.0417
     33  CE2       29.4950   64.4500   -8.5820 C.ar  128  TYR128      0.0417
     34  CZ        28.9340   63.2890   -8.0810 C.ar  128  TYR128      0.1957
     35  OH        29.6310   62.4000   -7.2680 O.3   128  TYR128     -0.2866
     36  N         26.3030   67.2700   -7.5200 N.am  129  GLY129     -0.1940
     37  CA        27.1140   67.8640   -6.4560 C.3   129  GLY129      0.2014
     38  C         27.2190   66.8390   -5.3480 C.2   129  GLY129      0.2639
     39  O         26.2510   66.1210   -5.0750 O.2   129  GLY129     -0.2714
     40  N         28.3850   66.7500   -4.7240 N.am  130  GLU130     -0.1963
     41  CA        28.6230   65.7840   -3.6700 C.3   130  GLU130      0.1733
     42  C         28.4270   66.4180   -2.2800 C.2   130  GLU130      0.2617
     43  O         28.9560   67.4660   -2.0070 O.2   130  GLU130     -0.2715
     44  CB        30.0470   65.2200   -3.7750 C.3   130  GLU130      0.0429
     45  CG        30.2760   64.4860   -5.0840 C.3   130  GLU130      0.1163
     46  CD        31.6680   63.8770   -5.2150 C.2   130  GLU130      0.3649
     47  OE1       32.4660   64.0010   -4.2460 O.co2 130  GLU130     -0.2457
     48  OE2       31.9350   63.2750   -6.2890 O.co2 130  GLU130     -0.2457
     49  N         27.6660   65.7480   -1.4220 N.am  131  THR131     -0.1951
     50  CA        27.5880   66.0680    0.0030 C.3   131  THR131      0.1897
     51  C         28.9020   65.6160    0.6930 C.2   131  THR131      0.2313
     52  O         29.3750   64.5320    0.4420 O.2   131  THR131     -0.2863
     53  CB        26.4430   65.2810    0.5910 C.3   131  THR131      0.1794
     54  OG1       25.2650   65.4890   -0.2070 O.3   131  THR131     -0.2208
     55  CG2       26.2110   65.6360    2.0930 C.3   131  THR131      0.0378
     56  N         19.0840   57.0680   -0.2090 N.3   153  ASP153     -0.1225
     57  CA        19.5730   58.3150   -0.7960 C.3   153  ASP153      0.1805
     58  C         18.9310   58.4680   -2.1710 C.2   153  ASP153      0.2598
     59  O         19.2740   57.7260   -3.0880 O.2   153  ASP153     -0.2718
     60  CB        21.1040   58.2890   -0.9080 C.3   153  ASP153      0.1424
     61  CG        21.6720   59.5500   -1.5400 C.2   153  ASP153      0.3668
     62  OD1       20.8670   60.4020   -1.9850 O.co2 153  ASP153     -0.2456
     63  OD2       22.9210   59.6730   -1.6400 O.co2 153  ASP153     -0.2456
     64  N         18.0110   59.4290   -2.3220 N.am  154  LEU154     -0.1966
     65  CA        17.3540   59.6820   -3.6110 C.3   154  LEU154      0.1728
     66  C         18.2410   60.5020   -4.5470 C.2   154  LEU154      0.2617
     67  O         18.5050   61.6820   -4.2920 O.2   154  LEU154     -0.2715
     68  CB        16.0290   60.4140   -3.4060 C.3   154  LEU154      0.0311
     69  CG        14.9140   59.7120   -2.6160 C.3   154  LEU154      0.0022
     70  CD1       13.6800   60.6320   -2.5210 C.3   154  LEU154      0.0001
     71  CD2       14.5550   58.3620   -3.2210 C.3   154  LEU154      0.0001
     72  N         18.6910   59.8900   -5.6390 N.am  155  GLY155     -0.1940
     73  CA        19.6710   60.5290   -6.4840 C.3   155  GLY155      0.2014
     74  C         21.0420   60.3720   -5.8690 C.2   155  GLY155      0.2640
     75  O         21.6910   61.3460   -5.4710 O.2   155  GLY155     -0.2714
     76  N         21.4800   59.1190   -5.8200 N.am  156  SER156     -0.1935
     77  CA        22.6070   58.7110   -4.9920 C.3   156  SER156      0.2055
     78  C         23.9850   58.9970   -5.6200 C.2   156  SER156      0.2643
     79  O         25.0090   58.8820   -4.9550 O.2   156  SER156     -0.2714
     80  CB        22.4540   57.2310   -4.6730 C.3   156  SER156      0.2130
     81  OG        22.2600   56.4900   -5.8590 O.3   156  SER156     -0.2179
     82  N         24.0070   59.3870   -6.8880 N.am  157  GLY157     -0.1954
     83  CA        25.2690   59.7820   -7.5170 C.3   157  GLY157      0.1869
     84  C         26.1660   58.5730   -7.6800 C.2   157  GLY157      0.2309
     85  O         25.7140   57.5400   -8.1990 O.2   157  GLY157     -0.2863
     86  N         28.4920   57.3590   -2.5880 N.3   160  GLN160     -0.1231
     87  CA        29.3410   57.4680   -1.3830 C.3   160  GLN160      0.1698
     88  C         28.5730   57.8080   -0.0900 C.2   160  GLN160      0.2592
     89  O         29.0550   57.5090    1.0140 O.2   160  GLN160     -0.2718
     90  CB        30.5210   58.4380   -1.6090 C.3   160  GLN160      0.0381
     91  CG        30.2730   59.9310   -1.3490 C.3   160  GLN160      0.0905
     92  CD        29.2930   60.5620   -2.2980 C.2   160  GLN160      0.2608
     93  OE1       28.9620   59.9960   -3.3380 O.2   160  GLN160     -0.2717
     94  NE2       28.8390   61.7590   -1.9640 N.am  160  GLN160     -0.0878
     95  N         27.3840   58.3960   -0.2110 N.am  161  VAL161     -0.1980
     96  CA        26.5760   58.6530    0.9860 C.3   161  VAL161      0.1595
     97  C         26.0550   57.3360    1.5340 C.2   161  VAL161      0.2287
     98  O         26.0990   57.0850    2.7400 O.2   161  VAL161     -0.2864
     99  CB        25.4050   59.6140    0.7470 C.3   161  VAL161      0.0276
    100  CG1       24.5540   59.7410    2.0230 C.3   161  VAL161      0.0022
    101  CG2       25.9170   61.0070    0.2910 C.3   161  VAL161      0.0022
    102  N         19.5540   55.1760   -5.2700 N.3   177  VAL177     -0.1231
    103  CA        19.0150   55.1040   -6.6250 C.3   177  VAL177      0.1692
    104  C         19.4800   56.3520   -7.3610 C.2   177  VAL177      0.2592
    105  O         19.3920   57.4780   -6.8380 O.2   177  VAL177     -0.2718
    106  CB        17.4670   55.0100   -6.6370 C.3   177  VAL177      0.0266
    107  CG1       16.8220   56.2000   -5.8870 C.3   177  VAL177      0.0020
    108  CG2       16.9220   54.8920   -8.0660 C.3   177  VAL177      0.0020
    109  N         20.0140   56.1340   -8.5580 N.am  178  GLU178     -0.1966
    110  CA        20.5800   57.1820   -9.3890 C.3   178  GLU178      0.1733
    111  C         20.1570   56.9300  -10.8130 C.2   178  GLU178      0.2616
    112  O         20.2300   55.7960  -11.2780 O.2   178  GLU178     -0.2715
    113  CB        22.1130   57.1570   -9.3120 C.3   178  GLU178      0.0429
    114  CG        22.8080   58.0490  -10.3340 C.3   178  GLU178      0.1163
    115  CD        22.3330   59.4910  -10.2800 C.2   178  GLU178      0.3649
    116  OE1       22.4200   60.0930   -9.2060 O.co2 178  GLU178     -0.2457
    117  OE2       21.8780   60.0260  -11.3210 O.co2 178  GLU178     -0.2457
    118  N         19.7610   58.0040  -11.4990 N.am  179  LYS179     -0.1963
    119  CA        19.2230   57.9650  -12.8620 C.3   179  LYS179      0.1728
    120  C         20.2550   58.1270  -13.9940 C.2   179  LYS179      0.2616
    121  O         20.1130   57.4890  -15.0140 O.2   179  LYS179     -0.2715
    122  CB        18.1700   59.0780  -12.9840 C.3   179  LYS179      0.0311
    123  CG        17.5290   59.2230  -14.3160 C.3   179  LYS179      0.0038
    124  CD        16.3610   60.2390  -14.2840 C.3   179  LYS179      0.0206
    125  CE        16.8510   61.6970  -14.0900 C.3   179  LYS179      0.1093
    126  NZ        15.9770   62.7020  -14.7880 N.3   179  LYS179     -0.1314
    127  N         21.2660   58.9850  -13.8340 N.am  180  ALA180     -0.1977
    128  CA        22.2090   59.2770  -14.9340 C.3   180  ALA180      0.1597
    129  C         23.2630   58.1590  -15.1170 C.2   180  ALA180      0.2287
    130  O         23.7440   57.5800  -14.1360 O.2   180  ALA180     -0.2864
    131  CB        22.8780   60.6300  -14.7160 C.3   180  ALA180      0.0319
    132  N         27.2410   58.6740  -13.4710 N.3   183  PRO183     -0.2116
    133  CA        27.4170   58.3180  -12.0500 C.3   183  PRO183      0.1372
    134  C         26.9950   56.8820  -11.6590 C.2   183  PRO183      0.2244
    135  O         27.6560   56.2690  -10.7910 O.2   183  PRO183     -0.2868
    136  CB        26.5690   59.3510  -11.3110 C.3   183  PRO183      0.0268
    137  CG        25.6920   59.9980  -12.3730 C.3   183  PRO183      0.0207
    138  CD        26.4710   59.9170  -13.6370 C.3   183  PRO183      0.0892
    139  N         18.0390   53.7540  -11.4140 N.3   213  GLY213     -0.1210
    140  CA        16.6120   53.9170  -11.5370 C.3   213  GLY213      0.1956
    141  C         16.2140   55.3720  -11.4540 C.2   213  GLY213      0.2612
    142  O         17.0480   56.2600  -11.2390 O.2   213  GLY213     -0.2717
    143  N         14.9200   55.5990  -11.6380 N.am  214  ASP214     -0.1959
    144  CA        14.3410   56.9090  -11.5650 C.3   214  ASP214      0.1840
    145  C         13.3990   56.9210  -10.3550 C.2   214  ASP214      0.2622
    146  O         12.4060   56.1770  -10.3410 O.2   214  ASP214     -0.2715
    147  CB        13.6000   57.1840  -12.8700 C.3   214  ASP214      0.1450
    148  CG        12.8530   58.5010  -12.8640 C.2   214  ASP214      0.3671
    149  OD1       12.6490   59.0930  -11.7800 O.co2 214  ASP214     -0.2456
    150  OD2       12.4430   58.9320  -13.9660 O.co2 214  ASP214     -0.2456
    151  N         13.6850   57.7660   -9.3580 N.am  215  PHE215     -0.1960
    152  CA        12.9330   57.7040   -8.1110 C.3   215  PHE215      0.1771
    153  C         11.5540   58.3320   -8.1970 C.2   215  PHE215      0.2619
    154  O         10.8870   58.4480   -7.1720 O.2   215  PHE215     -0.2715
    155  CB        13.7040   58.2880   -6.9210 C.3   215  PHE215      0.0574
    156  CG        14.0870   59.7390   -7.0710 C.ar  215  PHE215     -0.0200
    157  CD1       13.1240   60.7320   -7.2240 C.ar  215  PHE215     -0.0042
    158  CD2       15.4290   60.1150   -7.0280 C.ar  215  PHE215     -0.0042
    159  CE1       13.4890   62.0870   -7.3500 C.ar  215  PHE215     -0.0003
    160  CE2       15.8050   61.4660   -7.1430 C.ar  215  PHE215     -0.0003
    161  CZ        14.8250   62.4480   -7.3220 C.ar  215  PHE215     -0.0000
    162  N         11.1390   58.7480   -9.3980 N.am  216  LEU216     -0.1977
    163  CA         9.7890   59.2730   -9.6250 C.3   216  LEU216      0.1596
    164  C          8.9080   58.2390  -10.3080 C.2   216  LEU216      0.2287
    165  O          7.7310   58.4990  -10.5660 O.2   216  LEU216     -0.2864
    166  CB         9.8170   60.5470  -10.4710 C.3   216  LEU216      0.0297
    167  CG        10.5520   61.7420   -9.8660 C.3   216  LEU216      0.0022
    168  CD1       10.5450   62.8630  -10.8780 C.3   216  LEU216      0.0001
    169  CD2        9.9240   62.1560   -8.5420 C.3   216  LEU216      0.0001
    170  N         17.5470   60.4100    2.5920 N.3   231  PHE231     -0.1241
    171  CA        18.4760   61.4770    2.3530 C.3   231  PHE231      0.1605
    172  C         18.3350   61.9410    0.9030 C.2   231  PHE231      0.2264
    173  O         18.3040   61.1150    0.0080 O.2   231  PHE231     -0.2867
    174  CB        19.9240   61.0520    2.5720 C.3   231  PHE231      0.0534
    175  CG        20.8810   62.1420    2.2310 C.ar  231  PHE231     -0.0203
    176  CD1       21.1120   63.1660    3.1260 C.ar  231  PHE231     -0.0042
    177  CD2       21.4540   62.2130    0.9820 C.ar  231  PHE231     -0.0042
    178  CE1       21.9330   64.2190    2.7990 C.ar  231  PHE231     -0.0003
    179  CE2       22.2910   63.2620    0.6490 C.ar  231  PHE231     -0.0003
    180  CZ        22.5240   64.2690    1.5590 C.ar  231  PHE231     -0.0000
    181  N         19.6990   65.2220   -1.7050 N.3   233  ASN233     -0.1240
    182  CA        20.3830   66.4670   -2.0290 C.3   233  ASN233      0.1653
    183  C         19.6290   67.1280   -3.1610 C.2   233  ASN233      0.2266
    184  O         20.0520   67.0760   -4.3230 O.2   233  ASN233     -0.2867
    185  CB        21.8350   66.1700   -2.4440 C.3   233  ASN233      0.1155
    186  CG        22.6680   67.4210   -2.6870 C.2   233  ASN233      0.2627
    187  OD1       22.2250   68.5550   -2.5080 O.2   233  ASN233     -0.2716
    188  ND2       23.9090   67.2030   -3.0760 N.am  233  ASN233     -0.0877
    189  N         17.2540   70.3450   -7.7560 N.3   237  PHE237     -0.1241
    190  CA        16.1590   69.6010   -8.3790 C.3   237  PHE237      0.1605
    191  C         15.1380   70.5230   -9.0360 C.2   237  PHE237      0.2264
    192  O         14.6880   70.2350  -10.1390 O.2   237  PHE237     -0.2867
    193  CB        15.4530   68.6920   -7.3630 C.3   237  PHE237      0.0534
    194  CG        16.1860   67.4370   -7.0490 C.ar  237  PHE237     -0.0203
    195  CD1       17.4600   67.1680   -7.5850 C.ar  237  PHE237     -0.0042
    196  CD2       15.6420   66.5400   -6.1570 C.ar  237  PHE237     -0.0042
    197  CE1       18.1270   65.9940   -7.2590 C.ar  237  PHE237     -0.0003
    198  CE2       16.3030   65.3690   -5.8250 C.ar  237  PHE237     -0.0003
    199  CZ        17.5500   65.0910   -6.3620 C.ar  237  PHE237     -0.0000
    200  N         10.2020   68.9200   -9.6500 N.3   241  VAL241     -0.1245
    201  CA        10.6840   67.7010   -9.0290 C.3   241  VAL241      0.1561
    202  C         10.3860   67.6960   -7.5170 C.2   241  VAL241      0.2260
    203  O          9.9370   66.6810   -6.9990 O.2   241  VAL241     -0.2867
    204  CB        12.2130   67.4410   -9.2980 C.3   241  VAL241      0.0252
    205  CG1       12.7120   66.2710   -8.4300 C.3   241  VAL241      0.0019
    206  CG2       12.4860   67.1720  -10.8130 C.3   241  VAL241      0.0019
@<TRIPOS>BOND
     1    15    14   ar
     2    14    13    1
     3    14    16   ar
     4    13    12    1
     5   129   128    1
     6   129   130    2
     7   121   120    2
     8   128   131    1
     9   128   127    1
    10   126   125    1
    11    12     9    1
    12   123   124    1
    13   123   122    1
    14   124   125    1
    15     7     1    1
    16     7     6    1
    17   120   127   am
    18   120   119    1
    19   150   148   ar
    20   138   132    1
    21   138   137    1
    22   132   133    1
    23     1     2    1
    24     8     9    1
    25     8     3   am
    26     9    10    1
    27     6     5    1
    28   122   119    1
    29   147   148    1
    30   147   144    1
    31   148   149   ar
    32   119   118    1
    33    11    10    2
    34    10    17   am
    35    23    21    1
    36   137   136    1
    37     5     2    1
    38     2     3    1
    39    17    18    1
    40     3     4    2
    41   133   134    1
    42   133   136    1
    43    18    21    1
    44    18    19    1
    45   134   135    2
    46   143   144    1
    47   143   141   am
    48   144   145    1
    49   140   141    1
    50   140   139    1
    51   118   111   am
    52   141   142    2
    53   117   115   ar
    54   112   111    2
    55    21    22    1
    56   168   167    1
    57   206   204    1
    58   111   110    1
    59    24    19   am
    60    24    25    1
    61    19    20    2
    62   165   164    2
    63    28    25    1
    64    28    29    1
    65   166   167    1
    66   166   163    1
    67   145   146    2
    68   145   151   am
    69   114   115    1
    70   114   113    1
    71   164   163    1
    72   115   116   ar
    73   192   191    2
    74   167   169    1
    75    25    26    1
    76    29    31   ar
    77    29    30   ar
    78   200   201    1
    79   163   162    1
    80    31    33   ar
    81   162   153   am
    82   110   113    1
    83   110   109    1
    84   151   152    1
    85   204   201    1
    86   204   205    1
    87    30    32   ar
    88    27    26    2
    89   191   190    1
    90   201   202    1
    91    26    36   am
    92    33    34   ar
    93   109   104   am
    94   190   189    1
    95   190   193    1
    96    32    34   ar
    97    85    84    2
    98   153   152    1
    99   153   154    2
   100   152   155    1
   101    34    35    1
   102   108   106    1
   103    84    83    1
   104   195   197   ar
   105   195   194   ar
   106    36    37    1
   107   202   203    2
   108    83    82    1
   109   193   194    1
   110   104   105    2
   111   104   103    1
   112   159   161   ar
   113   159   157   ar
   114   161   160   ar
   115   197   199   ar
   116   157   156   ar
   117   160   158   ar
   118   156   158   ar
   119   156   155    1
   120   194   196   ar
   121    82    78   am
   122   106   103    1
   123   106   107    1
   124   103   102    1
   125    73    74    1
   126    73    72    1
   127    37    38    1
   128   199   198   ar
   129    48    46   ar
   130   196   198   ar
   131    74    76   am
   132    74    75    2
   133    81    80    1
   134    76    77    1
   135    72    66   am
   136    78    77    1
   137    78    79    2
   138    38    39    2
   139    38    40   am
   140    46    45    1
   141    46    47   ar
   142    45    44    1
   143    77    80    1
   144    40    41    1
   145    66    67    2
   146    66    65    1
   147   184   183    2
   148    44    41    1
   149    41    42    1
   150    65    68    1
   151    65    64    1
   152    68    69    1
   153    93    92    2
   154    71    69    1
   155   183   182    1
   156    59    58    2
   157   188   186   am
   158   186   187    2
   159   186   185    1
   160    69    70    1
   161    86    87    1
   162   185   182    1
   163    64    58   am
   164    92    94   am
   165    92    91    1
   166    42    43    2
   167    42    49   am
   168    58    57    1
   169   182   181    1
   170    62    61   ar
   171    63    61   ar
   172    90    87    1
   173    90    91    1
   174    61    60    1
   175    49    50    1
   176    87    88    1
   177    60    57    1
   178    57    56    1
   179    95    88   am
   180    95    96    1
   181    54    53    1
   182    88    89    2
   183    50    53    1
   184    50    51    1
   185   173   172    2
   186   101    99    1
   187    52    51    2
   188    53    55    1
   189   179   177   ar
   190   179   180   ar
   191    99    96    1
   192    99   100    1
   193   172   171    1
   194   177   175   ar
   195    96    97    1
   196    97    98    2
   197   180   178   ar
   198   175   174    1
   199   175   176   ar
   200   171   174    1
   201   171   170    1
   202   178   176   ar
