@<TRIPOS>MOLECULE
tmp/3sx2F01.pdb
 105 100 0 0 0
SMALL
GASTEIGER

@<TRIPOS>ATOM
      1  N        -58.3120  104.1280   41.7130 N.3   109  ALA109     -0.1231
      2  CA       -58.1270  102.8660   42.4470 C.3   109  ALA109      0.1679
      3  C        -59.3190  101.9520   42.1230 C.2   109  ALA109      0.2434
      4  O        -60.2190  101.7790   42.9470 O.2   109  ALA109     -0.2733
      5  CB       -57.9650  103.0940   43.9480 C.3   109  ALA109      0.0304
      6  N        -59.3410  101.3850   40.9080 N.am  110  PRO110     -0.2718
      7  CA       -60.5120  100.5220   40.5470 C.3   110  PRO110      0.1535
      8  C        -60.4830   99.2170   41.3020 C.2   110  PRO110      0.2598
      9  O        -59.4360   98.7500   41.7310 O.2   110  PRO110     -0.2715
     10  CB       -60.3470  100.2940   39.0550 C.3   110  PRO110      0.0310
     11  CG       -58.9630  100.6280   38.7300 C.3   110  PRO110      0.0237
     12  CD       -58.3720  101.4920   39.7980 C.3   110  PRO110      0.0939
     13  N        -61.6530   98.6260   41.5050 N.am  111  MET111     -0.1978
     14  CA       -61.7280   97.2780   42.0810 C.3   111  MET111      0.1605
     15  C        -63.0640   96.6780   41.7700 C.2   111  MET111      0.2287
     16  O        -64.0070   97.3870   41.4310 O.2   111  MET111     -0.2864
     17  CB       -61.4090   97.2150   43.5920 C.3   111  MET111      0.0413
     18  CG       -62.2300   98.1340   44.4790 C.3   111  MET111      0.0598
     19  SD       -61.3970   98.7390   46.0600 S.3   111  MET111     -0.1393
     20  CE       -61.5450  100.5630   45.7160 C.3   111  MET111      0.0692
     21  N        -47.3570  101.5860   47.3120 N.3   156  ALA156     -0.1245
     22  CA       -47.5010  100.5030   46.3760 C.3   156  ALA156      0.1562
     23  C        -46.6220  100.6420   45.1330 C.2   156  ALA156      0.2260
     24  O        -46.6170   99.7480   44.2980 O.2   156  ALA156     -0.2867
     25  CB       -49.0040  100.3610   45.9610 C.3   156  ALA156      0.0290
     26  N        -47.9450   95.9630   47.9620 N.3   161  VAL161     -0.1245
     27  CA       -49.1310   96.1920   48.8140 C.3   161  VAL161      0.1561
     28  C        -50.3840   96.1240   47.9850 C.2   161  VAL161      0.2260
     29  O        -50.9540   97.1690   47.6180 O.2   161  VAL161     -0.2867
     30  CB       -49.1550   97.6280   49.4350 C.3   161  VAL161      0.0252
     31  CG1      -50.2030   97.6760   50.5860 C.3   161  VAL161      0.0019
     32  CG2      -47.7730   98.0620   49.9070 C.3   161  VAL161      0.0019
     33  N        -57.5080   95.2870   39.4520 N.3   167  GLY167     -0.1210
     34  CA       -57.3310   96.7120   39.6870 C.3   167  GLY167      0.1956
     35  C        -56.2810   97.0220   40.7610 C.2   167  GLY167      0.2612
     36  O        -55.6570   98.0830   40.7230 O.2   167  GLY167     -0.2717
     37  N        -56.1060   96.1030   41.7070 N.am  168  SER168     -0.1952
     38  CA       -55.1590   96.2540   42.8060 C.3   168  SER168      0.1924
     39  C        -53.7520   95.8440   42.3500 C.2   168  SER168      0.2314
     40  O        -52.7650   96.5650   42.5790 O.2   168  SER168     -0.2863
     41  CB       -55.6300   95.4700   44.0240 C.3   168  SER168      0.2116
     42  OG       -54.7320   95.6760   45.1030 O.3   168  SER168     -0.2180
     43  N        -52.7160   98.6000   40.2290 N.3   171  TYR171     -0.1241
     44  CA       -52.3200   99.7590   41.0160 C.3   171  TYR171      0.1605
     45  C        -50.8280   99.6400   41.4070 C.2   171  TYR171      0.2264
     46  O        -50.0630  100.6000   41.2660 O.2   171  TYR171     -0.2867
     47  CB       -53.2610   99.9890   42.2140 C.3   171  TYR171      0.0534
     48  CG       -53.1360  101.2990   42.9400 C.ar  171  TYR171     -0.0201
     49  CD1      -52.2380  101.4330   43.9770 C.ar  171  TYR171     -0.0009
     50  CD2      -53.8830  102.4090   42.5530 C.ar  171  TYR171     -0.0009
     51  CE1      -52.1290  102.6260   44.6580 C.ar  171  TYR171      0.0417
     52  CE2      -53.7840  103.6050   43.2220 C.ar  171  TYR171      0.0417
     53  CZ       -52.8680  103.7270   44.2480 C.ar  171  TYR171      0.1957
     54  OH       -52.7920  104.9410   44.9390 O.3   171  TYR171     -0.2866
     55  N        -48.7230  106.9060   52.0190 N.3   202  SER202     -0.1217
     56  CA       -49.3240  105.6260   52.4600 C.3   202  SER202      0.1889
     57  C        -50.8590  105.6550   52.3400 C.2   202  SER202      0.2288
     58  O        -51.4200  105.1490   51.3650 O.2   202  SER202     -0.2866
     59  CB       -48.8240  105.2570   53.8640 C.3   202  SER202      0.2089
     60  OG       -48.8920  106.3470   54.7600 O.3   202  SER202     -0.2183
     61  N        -60.5340  108.5030   47.8220 N.3   208  MET208     -0.1230
     62  CA       -59.8970  107.2810   47.3980 C.3   208  MET208      0.1702
     63  C        -59.7250  106.3070   48.5680 C.2   208  MET208      0.2592
     64  O        -59.7820  105.0940   48.3640 O.2   208  MET208     -0.2718
     65  CB       -58.5410  107.5550   46.7190 C.3   208  MET208      0.0401
     66  CG       -57.8960  106.2800   46.2030 C.3   208  MET208      0.0596
     67  SD       -56.2810  106.4940   45.3890 S.3   208  MET208     -0.1393
     68  CE       -56.8220  107.1920   43.8360 C.3   208  MET208      0.0692
     69  N        -59.4550  106.7900   49.7850 N.am  209  ILE209     -0.1980
     70  CA       -59.2020  105.9150   50.9410 C.3   209  ILE209      0.1595
     71  C        -60.4650  105.6540   51.7630 C.2   209  ILE209      0.2287
     72  O        -60.5100  104.6280   52.4460 O.2   209  ILE209     -0.2864
     73  CB       -58.0800  106.5190   51.8510 C.3   209  ILE209      0.0276
     74  CG1      -57.2610  105.4150   52.5530 C.3   209  ILE209      0.0022
     75  CG2      -58.6530  107.4460   52.9230 C.3   209  ILE209      0.0022
     76  CD1      -56.3860  104.6240   51.6300 C.3   209  ILE209      0.0001
     77  N        -62.7040  100.7630   49.1810 N.3   214  THR214     -0.1218
     78  CA       -61.3730  100.7870   49.7790 C.3   214  THR214      0.1862
     79  C        -61.3650  100.3170   51.2480 C.2   214  THR214      0.2287
     80  O        -60.4730   99.6080   51.7110 O.2   214  THR214     -0.2866
     81  CB       -60.7340  102.1360   49.6350 C.3   214  THR214      0.1770
     82  OG1      -60.6700  102.4710   48.2360 O.3   214  THR214     -0.2211
     83  CG2      -59.3170  102.1170   50.2680 C.3   214  THR214      0.0375
     84  N        -61.4640   96.6300   51.2500 N.3   217  TRP217     -0.1227
     85  CA       -60.1620   96.1640   50.7690 C.3   217  TRP217      0.1737
     86  C        -59.1330   96.2180   51.8850 C.2   217  TRP217      0.2595
     87  O        -58.4020   95.2320   52.1210 O.2   217  TRP217     -0.2718
     88  CB       -59.7250   96.9980   49.5710 C.3   217  TRP217      0.0564
     89  CG       -58.3740   96.6460   48.9880 C.ar  217  TRP217      0.0003
     90  CD1      -58.1760   95.8070   47.9610 C.ar  217  TRP217      0.0946
     91  CD2      -57.0880   97.1280   49.3930 C.ar  217  TRP217      0.0152
     92  NE1      -56.8580   95.7370   47.6840 N.ar  217  TRP217     -0.2442
     93  CE2      -56.1570   96.5380   48.5390 C.ar  217  TRP217      0.0810
     94  CE3      -56.6370   98.0170   50.3750 C.ar  217  TRP217      0.0012
     95  CZ2      -54.7950   96.7820   48.6530 C.ar  217  TRP217      0.0191
     96  CZ3      -55.2730   98.2680   50.4850 C.ar  217  TRP217      0.0001
     97  CH2      -54.3810   97.6580   49.6140 C.ar  217  TRP217      0.0015
     98  N        -59.0950   97.3280   52.6150 N.am  218  LEU218     -0.1980
     99  CA       -58.1500   97.4710   53.7400 C.3   218  LEU218      0.1596
    100  C        -58.3960   96.4410   54.8230 C.2   218  LEU218      0.2287
    101  O        -57.4540   95.8700   55.3770 O.2   218  LEU218     -0.2864
    102  CB       -58.2060   98.8780   54.3530 C.3   218  LEU218      0.0297
    103  CG       -57.6760  100.0600   53.5300 C.3   218  LEU218      0.0022
    104  CD1      -58.1320  101.4000   54.0960 C.3   218  LEU218      0.0001
    105  CD2      -56.1330  100.0210   53.5060 C.3   218  LEU218      0.0001
@<TRIPOS>BOND
     1    11    10    1
     2    11    12    1
     3    10     7    1
     4    33    34    1
     5    34    35    1
     6    12     6    1
     7    43    44    1
     8     7     6    1
     9     7     8    1
    10    36    35    2
    11    35    37   am
    12     6     3   am
    13    44    45    1
    14    44    47    1
    15    46    45    2
    16     8    13   am
    17     8     9    2
    18    16    15    2
    19    13    14    1
    20    37    38    1
    21     1     2    1
    22    15    14    1
    23    14    17    1
    24     3     2    1
    25     3     4    2
    26    47    48    1
    27    39    40    2
    28    39    38    1
    29     2     5    1
    30    50    48   ar
    31    50    52   ar
    32    38    41    1
    33    48    49   ar
    34    52    53   ar
    35    17    18    1
    36    68    67    1
    37    49    51   ar
    38    41    42    1
    39    53    51   ar
    40    53    54    1
    41    24    23    2
    42    18    19    1
    43    23    22    1
    44    67    66    1
    45    20    19    1
    46    25    22    1
    47    66    65    1
    48    22    21    1
    49    65    62    1
    50    62    61    1
    51    62    63    1
    52    29    28    2
    53    92    90   ar
    54    92    93   ar
    55    90    89   ar
    56    26    27    1
    57    28    27    1
    58    82    81    1
    59    64    63    2
    60    93    95   ar
    61    93    91   ar
    62    63    69   am
    63    95    97   ar
    64    27    30    1
    65    89    91   ar
    66    89    88    1
    67    77    78    1
    68    91    94   ar
    69    30    32    1
    70    30    31    1
    71    88    85    1
    72    97    96   ar
    73    81    78    1
    74    81    83    1
    75    78    79    1
    76    69    70    1
    77    94    96   ar
    78    85    84    1
    79    85    86    1
    80    70    71    1
    81    70    73    1
    82    79    80    2
    83    58    57    2
    84    76    74    1
    85    71    72    2
    86    73    74    1
    87    73    75    1
    88    86    87    2
    89    86    98   am
    90    55    56    1
    91    57    56    1
    92    56    59    1
    93    98    99    1
    94   105   103    1
    95   103   104    1
    96   103   102    1
    97    99   102    1
    98    99   100    1
    99    59    60    1
   100   100   101    2
