@<TRIPOS>MOLECULE
tmp/3sx4A06.pdb
 174 171 0 0 0
SMALL
GASTEIGER

@<TRIPOS>ATOM
      1  N         48.9490   60.9060   33.3120 N.3    86  ARG86      -0.1231
      2  CA        49.4560   59.9830   32.3010 C.3    86  ARG86       0.1694
      3  C         49.2550   60.4600   30.8620 C.2    86  ARG86       0.2592
      4  O         50.0650   60.1420   30.0100 O.2    86  ARG86      -0.2718
      5  CB        48.9040   58.5650   32.4510 C.3    86  ARG86       0.0321
      6  CG        49.4130   57.6390   31.3300 C.3    86  ARG86       0.0489
      7  CD        48.7510   56.2930   31.3450 C.3    86  ARG86       0.2205
      8  NE        48.7050   55.7310   32.6890 N.pl3  86  ARG86      -0.0865
      9  CZ        49.6250   54.9280   33.2010 C.cat  86  ARG86       0.5346
     10  NH1       50.6860   54.5930   32.4870 N.pl3  86  ARG86       0.1354
     11  NH2       49.4870   54.4730   34.4390 N.pl3  86  ARG86       0.1354
     12  N         48.1820   61.2070   30.6000 N.am   87  HIS87      -0.1976
     13  CA        47.8900   61.7280   29.2550 C.3    87  HIS87       0.1656
     14  C         47.7240   63.2750   29.1910 C.2    87  HIS87       0.2291
     15  O         47.8570   63.8840   28.1400 O.2    87  HIS87      -0.2864
     16  CB        46.6240   61.0580   28.6700 C.3    87  HIS87       0.0771
     17  CG        46.5740   59.5680   28.8390 C.ar   87  HIS87       0.0820
     18  ND1       47.2140   58.6960   27.9860 N.ar   87  HIS87      -0.2267
     19  CD2       45.9430   58.7960   29.7580 C.ar   87  HIS87       0.1154
     20  CE1       46.9860   57.4540   28.3760 C.ar   87  HIS87       0.1986
     21  NE2       46.2170   57.4850   29.4480 N.ar   87  HIS87      -0.2212
     22  N         42.6230   58.2870   33.5190 N.3   166  GLU166     -0.1231
     23  CA        43.4150   57.0790   33.7090 C.3   166  GLU166      0.1699
     24  C         42.6630   55.8040   33.4020 C.2   166  GLU166      0.2592
     25  O         43.1840   54.9160   32.7570 O.2   166  GLU166     -0.2718
     26  CB        43.9340   56.9990   35.1410 C.3   166  GLU166      0.0402
     27  CG        44.5750   55.6760   35.5070 C.3   166  GLU166      0.1161
     28  CD        46.0250   55.5550   35.0650 C.2   166  GLU166      0.3649
     29  OE1       46.5660   56.5110   34.4420 O.co2 166  GLU166     -0.2457
     30  OE2       46.6250   54.4960   35.3530 O.co2 166  GLU166     -0.2457
     31  N         41.4350   55.7040   33.8750 N.am  167  GLU167     -0.1979
     32  CA        40.7790   54.4150   33.8830 C.3   167  GLU167      0.1602
     33  C         39.7380   54.2500   32.8100 C.2   167  GLU167      0.2287
     34  O         39.3690   53.1210   32.4910 O.2   167  GLU167     -0.2864
     35  CB        40.1640   54.1110   35.2600 C.3   167  GLU167      0.0415
     36  CG        41.1680   54.0770   36.3850 C.3   167  GLU167      0.1163
     37  CD        42.3210   53.0890   36.1710 C.2   167  GLU167      0.3649
     38  OE1       42.3990   52.4040   35.1110 O.co2 167  GLU167     -0.2457
     39  OE2       43.1640   53.0050   37.0950 O.co2 167  GLU167     -0.2457
     40  N         41.6610   56.7330   28.7880 N.3   170  SER170     -0.1217
     41  CA        43.0880   56.7070   28.4830 C.3   170  SER170      0.1889
     42  C         43.4210   57.9120   27.6340 C.2   170  SER170      0.2288
     43  O         44.1030   57.8060   26.6350 O.2   170  SER170     -0.2866
     44  CB        43.4730   55.4290   27.7370 C.3   170  SER170      0.2089
     45  OG        42.7380   54.3270   28.2320 O.3   170  SER170     -0.2183
     46  N         54.1250   40.8270   36.9110 N.3   508  TYR508     -0.1241
     47  CA        53.1090   41.8500   36.8600 C.3   508  TYR508      0.1605
     48  C         51.7910   41.1930   37.2620 C.2   508  TYR508      0.2264
     49  O         51.3220   41.3750   38.3790 O.2   508  TYR508     -0.2867
     50  CB        53.0260   42.5210   35.4940 C.3   508  TYR508      0.0534
     51  CG        52.0050   43.6300   35.5020 C.ar  508  TYR508     -0.0201
     52  CD1       52.3490   44.9190   35.9000 C.ar  508  TYR508     -0.0009
     53  CD2       50.6730   43.3760   35.1640 C.ar  508  TYR508     -0.0009
     54  CE1       51.3860   45.9300   35.9360 C.ar  508  TYR508      0.0417
     55  CE2       49.7130   44.3700   35.1990 C.ar  508  TYR508      0.0417
     56  CZ        50.0680   45.6440   35.5850 C.ar  508  TYR508      0.1957
     57  OH        49.1020   46.6270   35.6190 O.3   508  TYR508     -0.2866
     58  N         46.6790   40.5790   31.9950 N.3   513  SER513     -0.1217
     59  CA        48.0630   40.9000   31.7000 C.3   513  SER513      0.1889
     60  C         48.7210   39.7670   30.9310 C.2   513  SER513      0.2288
     61  O         48.1750   38.6810   30.7760 O.2   513  SER513     -0.2866
     62  CB        48.8320   41.1150   32.9940 C.3   513  SER513      0.2089
     63  OG        48.9720   39.8840   33.6930 O.3   513  SER513     -0.2183
     64  N         52.7840   38.4290   30.4580 N.3   515  LYS515     -0.1245
     65  CA        54.2100   38.6580   30.5960 C.3   515  LYS515      0.1561
     66  C         55.0460   37.6970   29.7540 C.2   515  LYS515      0.2260
     67  O         56.2450   37.8920   29.5990 O.2   515  LYS515     -0.2867
     68  CB        54.6030   38.6300   32.0680 C.3   515  LYS515      0.0271
     69  CG        54.0520   39.8230   32.8080 C.3   515  LYS515      0.0035
     70  CD        54.9170   41.0450   32.6020 C.3   515  LYS515      0.0206
     71  CE        56.2910   40.8020   33.2320 C.3   515  LYS515      0.1093
     72  NZ        57.0510   42.0550   33.5060 N.3   515  LYS515     -0.1314
     73  N         56.3300   45.7860   39.6930 N.3   590  TRP590     -0.1227
     74  CA        56.0830   47.2020   39.8410 C.3   590  TRP590      0.1737
     75  C         54.5650   47.3960   39.7530 C.2   590  TRP590      0.2596
     76  O         53.8720   46.6100   39.1130 O.2   590  TRP590     -0.2718
     77  CB        56.8340   47.9150   38.7190 C.3   590  TRP590      0.0564
     78  CG        56.9780   49.3800   38.8240 C.ar  590  TRP590      0.0003
     79  CD1       56.0050   50.2760   39.1210 C.ar  590  TRP590      0.0946
     80  CD2       58.1650   50.1470   38.5700 C.ar  590  TRP590      0.0152
     81  NE1       56.5100   51.5540   39.0990 N.ar  590  TRP590     -0.2442
     82  CE2       57.8340   51.5040   38.7530 C.ar  590  TRP590      0.0810
     83  CE3       59.4760   49.8160   38.2120 C.ar  590  TRP590      0.0012
     84  CZ2       58.7590   52.5340   38.5850 C.ar  590  TRP590      0.0191
     85  CZ3       60.3940   50.8390   38.0520 C.ar  590  TRP590      0.0001
     86  CH2       60.0300   52.1850   38.2430 C.ar  590  TRP590      0.0015
     87  N         54.0370   48.4110   40.4300 N.am  591  SER591     -0.1938
     88  CA        52.5970   48.6590   40.4410 C.3   591  SER591      0.2055
     89  C         51.8400   47.4210   40.9160 C.2   591  SER591      0.2643
     90  O         52.1950   46.8440   41.9430 O.2   591  SER591     -0.2714
     91  CB        52.1290   49.0520   39.0520 C.3   591  SER591      0.2130
     92  OG        50.8020   49.5160   39.1080 O.3   591  SER591     -0.2179
     93  N         50.8160   47.0010   40.1710 N.am  592  TYR592     -0.1973
     94  CA        50.1280   45.7450   40.4810 C.3   592  TYR592      0.1639
     95  C         51.1450   44.6180   40.6950 C.2   592  TYR592      0.2290
     96  O         50.9660   43.7400   41.5410 O.2   592  TYR592     -0.2864
     97  CB        49.1200   45.3580   39.3900 C.3   592  TYR592      0.0560
     98  CG        48.1790   44.2590   39.8310 C.ar  592  TYR592     -0.0198
     99  CD1       48.6580   42.9730   40.1050 C.ar  592  TYR592     -0.0009
    100  CD2       46.8190   44.5020   40.0080 C.ar  592  TYR592     -0.0009
    101  CE1       47.8150   41.9580   40.5350 C.ar  592  TYR592      0.0417
    102  CE2       45.9560   43.4860   40.4350 C.ar  592  TYR592      0.0417
    103  CZ        46.4670   42.2190   40.6980 C.ar  592  TYR592      0.1957
    104  OH        45.6420   41.2090   41.1240 O.3   592  TYR592     -0.2866
    105  N         50.5310   48.1670   45.4600 N.3   617  VAL617     -0.1245
    106  CA        49.3090   48.4090   46.2070 C.3   617  VAL617      0.1561
    107  C         49.4080   47.5780   47.4990 C.2   617  VAL617      0.2260
    108  O         50.0950   46.5600   47.5180 O.2   617  VAL617     -0.2867
    109  CB        48.0680   48.0760   45.3530 C.3   617  VAL617      0.0252
    110  CG1       46.9010   47.6280   46.2210 C.3   617  VAL617      0.0019
    111  CG2       47.6930   49.2770   44.5170 C.3   617  VAL617      0.0019
    112  N         43.2270   47.2270   48.8850 N.3   620  TRP620     -0.1241
    113  CA        42.5330   47.6520   47.6910 C.3   620  TRP620      0.1605
    114  C         41.6440   48.8720   47.8580 C.2   620  TRP620      0.2264
    115  O         41.1730   49.4140   46.8670 O.2   620  TRP620     -0.2867
    116  CB        41.7690   46.4780   47.0880 C.3   620  TRP620      0.0550
    117  CG        42.6660   45.6070   46.2940 C.ar  620  TRP620      0.0003
    118  CD1       42.9920   44.3200   46.5570 C.ar  620  TRP620      0.0946
    119  CD2       43.3750   45.9710   45.0950 C.ar  620  TRP620      0.0152
    120  NE1       43.8580   43.8510   45.6030 N.ar  620  TRP620     -0.2442
    121  CE2       44.1080   44.8420   44.6910 C.ar  620  TRP620      0.0810
    122  CE3       43.4520   47.1390   44.3250 C.ar  620  TRP620      0.0012
    123  CZ2       44.9180   44.8420   43.5540 C.ar  620  TRP620      0.0191
    124  CZ3       44.2530   47.1380   43.1920 C.ar  620  TRP620      0.0001
    125  CH2       44.9760   45.9950   42.8180 C.ar  620  TRP620      0.0015
    126  N         43.2140   52.0630   46.4840 N.3   623  TYR623     -0.1241
    127  CA        43.3110   52.2900   45.0520 C.3   623  TYR623      0.1605
    128  C         42.0210   52.8720   44.4520 C.2   623  TYR623      0.2264
    129  O         41.0090   52.9500   45.1540 O.2   623  TYR623     -0.2867
    130  CB        43.7780   51.0420   44.3130 C.3   623  TYR623      0.0534
    131  CG        44.2960   51.4300   42.9570 C.ar  623  TYR623     -0.0201
    132  CD1       45.3790   52.2970   42.8380 C.ar  623  TYR623     -0.0009
    133  CD2       43.6730   51.0000   41.8010 C.ar  623  TYR623     -0.0009
    134  CE1       45.8410   52.6960   41.6170 C.ar  623  TYR623      0.0417
    135  CE2       44.1380   51.3970   40.5580 C.ar  623  TYR623      0.0417
    136  CZ        45.2240   52.2470   40.4740 C.ar  623  TYR623      0.1957
    137  OH        45.6970   52.6500   39.2480 O.3   623  TYR623     -0.2866
    138  N         39.0880   51.1660   38.5230 N.3   627  TYR627     -0.1241
    139  CA        39.9330   49.9920   38.3720 C.3   627  TYR627      0.1605
    140  C         39.5810   48.9090   39.3850 C.2   627  TYR627      0.2264
    141  O         39.4040   47.7500   39.0300 O.2   627  TYR627     -0.2867
    142  CB        41.4140   50.3390   38.5130 C.3   627  TYR627      0.0534
    143  CG        42.2790   49.1370   38.2240 C.ar  627  TYR627     -0.0201
    144  CD1       42.5490   48.1960   39.2140 C.ar  627  TYR627     -0.0009
    145  CD2       42.7970   48.9170   36.9440 C.ar  627  TYR627     -0.0009
    146  CE1       43.3280   47.0790   38.9490 C.ar  627  TYR627      0.0417
    147  CE2       43.5780   47.8040   36.6690 C.ar  627  TYR627      0.0417
    148  CZ        43.8430   46.8830   37.6800 C.ar  627  TYR627      0.1957
    149  OH        44.6230   45.7720   37.4160 O.3   627  TYR627     -0.2866
    150  N         49.1230   58.0940   41.5580 N.3   671  ASN671     -0.1225
    151  CA        48.3650   56.9240   41.0950 C.3   671  ASN671      0.1785
    152  C         48.2700   55.8480   42.1820 C.2   671  ASN671      0.2597
    153  O         47.2010   55.6040   42.7310 O.2   671  ASN671     -0.2718
    154  CB        49.0170   56.3620   39.8290 C.3   671  ASN671      0.1169
    155  CG        48.0610   55.5390   38.9680 C.2   671  ASN671      0.2627
    156  OD1       47.1110   54.9290   39.4570 O.2   671  ASN671     -0.2716
    157  ND2       48.3380   55.5030   37.6720 N.am  671  ASN671     -0.0877
    158  N         49.3860   55.2030   42.4950 N.am  672  VAL672     -0.1980
    159  CA        49.4450   54.3670   43.6920 C.3   672  VAL672      0.1595
    160  C         50.0810   55.2040   44.8010 C.2   672  VAL672      0.2287
    161  O         51.2860   55.4550   44.8110 O.2   672  VAL672     -0.2864
    162  CB        50.2050   53.0720   43.4370 C.3   672  VAL672      0.0276
    163  CG1       50.1310   52.1490   44.6280 C.3   672  VAL672      0.0022
    164  CG2       49.6150   52.4010   42.2180 C.3   672  VAL672      0.0022
    165  N         54.2260   57.4940   39.8300 N.3   701  HIS701     -0.1241
    166  CA        54.1540   56.0370   39.6760 C.3   701  HIS701      0.1621
    167  C         55.2090   55.4680   38.7570 C.2   701  HIS701      0.2264
    168  O         55.5500   54.2920   38.8430 O.2   701  HIS701     -0.2867
    169  CB        52.7950   55.5960   39.1540 C.3   701  HIS701      0.0745
    170  CG        52.5110   54.1470   39.3870 C.ar  701  HIS701      0.0817
    171  ND1       52.6950   53.5410   40.6120 N.ar  701  HIS701     -0.2268
    172  CD2       52.0520   53.1810   38.5590 C.ar  701  HIS701      0.1154
    173  CE1       52.3550   52.2680   40.5330 C.ar  701  HIS701      0.1986
    174  NE2       51.9630   52.0230   39.2970 N.ar  701  HIS701     -0.2212
@<TRIPOS>BOND
     1    43    42    2
     2    42    41    1
     3    44    45    1
     4    44    41    1
     5    18    20   ar
     6    18    17   ar
     7    15    14    2
     8    20    21   ar
     9    41    40    1
    10    16    17    1
    11    16    13    1
    12    17    19   ar
    13    14    13    1
    14    13    12    1
    15    21    19   ar
    16    67    66    2
    17    66    65    1
    18     4     3    2
    19    64    65    1
    20    65    68    1
    21    12     3   am
    22    61    60    2
    23     3     2    1
    24    60    59    1
    25     6     7    1
    26     6     5    1
    27     7     8    1
    28    59    58    1
    29    59    62    1
    30    68    69    1
    31     2     5    1
    32     2     1    1
    33    10     9    1
    34    34    33    2
    35    70    69    1
    36    70    71    1
    37     8     9    2
    38    25    24    2
    39    33    32    1
    40    62    63    1
    41     9    11    1
    42    71    72    1
    43    24    23    1
    44    24    31   am
    45    22    23    1
    46    23    26    1
    47    31    32    1
    48    32    35    1
    49    29    28   ar
    50    28    30   ar
    51    28    27    1
    52    38    37   ar
    53    26    27    1
    54    53    55   ar
    55    53    51   ar
    56    55    56   ar
    57    35    36    1
    58    50    51    1
    59    50    47    1
    60    51    52   ar
    61    56    57    1
    62    56    54   ar
    63    52    54   ar
    64    37    36    1
    65    37    39   ar
    66   147   145   ar
    67   147   148   ar
    68    47    46    1
    69    47    48    1
    70   145   143   ar
    71    48    49    2
    72   149   148    1
    73   157   155   am
    74   148   146   ar
    75    85    83   ar
    76    85    86   ar
    77    83    80   ar
    78   143   142    1
    79   143   144   ar
    80    86    84   ar
    81   139   142    1
    82   139   138    1
    83   139   140    1
    84   172   174   ar
    85   172   170   ar
    86    80    82   ar
    87    80    78   ar
    88    84    82   ar
    89    77    78    1
    90    77    74    1
    91    82    81   ar
    92   167   168    2
    93   167   166    1
    94    78    79   ar
    95   146   144   ar
    96   155   156    2
    97   155   154    1
    98   141   140    2
    99    91    92    1
   100    91    88    1
   101    81    79   ar
   102    76    75    2
   103   169   170    1
   104   169   166    1
   105   137   136    1
   106   174   173   ar
   107   170   171   ar
   108    97    98    1
   109    97    94    1
   110   166   165    1
   111    73    74    1
   112    75    74    1
   113    75    87   am
   114   154   151    1
   115    98   100   ar
   116    98    99   ar
   117   100   102   ar
   118    99   101   ar
   119    93    94    1
   120    93    89   am
   121    87    88    1
   122   102   103   ar
   123    88    89    1
   124   136   135   ar
   125   136   134   ar
   126    94    95    1
   127   173   171   ar
   128   101   103   ar
   129   135   133   ar
   130    95    96    2
   131   103   104    1
   132    89    90    2
   133   151   150    1
   134   151   152    1
   135   134   132   ar
   136   133   131   ar
   137   152   158   am
   138   152   153    2
   139   164   162    1
   140   158   159    1
   141   125   124   ar
   142   125   123   ar
   143   132   131   ar
   144   131   130    1
   145   124   122   ar
   146   162   159    1
   147   162   163    1
   148   123   121   ar
   149   159   160    1
   150   130   127    1
   151   122   119   ar
   152   128   127    1
   153   128   129    2
   154   111   109    1
   155   121   119   ar
   156   121   120   ar
   157   160   161    2
   158   127   126    1
   159   119   117   ar
   160   109   106    1
   161   109   110    1
   162   105   106    1
   163   120   118   ar
   164   106   107    1
   165   117   118   ar
   166   117   116    1
   167   115   114    2
   168   116   113    1
   169   107   108    2
   170   113   114    1
   171   113   112    1
