@<TRIPOS>MOLECULE
tmp/3sxcA02.pdb
 82 79 0 0 0
SMALL
GASTEIGER

@<TRIPOS>ATOM
      1  N         32.8140   24.9240   -9.1460 N.3   181  GLN181     -0.1231
      2  CA        32.8670   25.3350   -7.7390 C.3   181  GLN181      0.1698
      3  C         32.4170   24.2500   -6.7490 C.2   181  GLN181      0.2592
      4  O         32.8650   24.2190   -5.6060 O.2   181  GLN181     -0.2718
      5  CB        32.0310   26.5990   -7.5380 C.3   181  GLN181      0.0381
      6  CG        32.6090   27.8870   -8.1650 C.3   181  GLN181      0.0905
      7  CD        34.1150   27.9400   -8.0810 C.2   181  GLN181      0.2608
      8  OE1       34.6710   28.2130   -7.0150 O.2   181  GLN181     -0.2717
      9  NE2       34.7920   27.6680   -9.2170 N.am  181  GLN181     -0.0878
     10  N         31.5350   23.3630   -7.2040 N.am  182  ALA182     -0.1980
     11  CA        30.8990   22.3240   -6.3620 C.3   182  ALA182      0.1597
     12  C         31.7720   21.0660   -6.3610 C.2   182  ALA182      0.2287
     13  O         31.4780   20.0490   -5.7050 O.2   182  ALA182     -0.2864
     14  CB        29.5150   22.0100   -6.9090 C.3   182  ALA182      0.0319
     15  N         26.6610   31.8380   -0.0120 N.3   211  ALA211     -0.1231
     16  CA        27.7530   31.0420   -0.6330 C.3   211  ALA211      0.1694
     17  C         27.3210   30.1770   -1.8340 C.2   211  ALA211      0.2592
     18  O         28.0370   30.1870   -2.8960 O.2   211  ALA211     -0.2718
     19  CB        28.5420   30.1820    0.4090 C.3   211  ALA211      0.0304
     20  N         26.2210   29.4180   -1.7230 N.am  212  CYS212     -0.1970
     21  CA        25.7940   28.5650   -2.8660 C.3   212  CYS212      0.1712
     22  C         25.4070   29.4240   -4.0760 C.2   212  CYS212      0.2296
     23  O         25.7000   29.0640   -5.2220 O.2   212  CYS212     -0.2864
     24  CB        24.6170   27.6630   -2.4770 C.3   212  CYS212      0.0983
     25  SG        25.1820   26.4280   -1.2920 S.3   212  CYS212     -0.0798
     26  N         28.6940   30.6860   -5.6710 N.3   215  ALA215     -0.1245
     27  CA        29.2810   29.5670   -6.4020 C.3   215  ALA215      0.1562
     28  C         28.5170   29.1860   -7.6900 C.2   215  ALA215      0.2260
     29  O         29.1390   28.8550   -8.7060 O.2   215  ALA215     -0.2867
     30  CB        29.4190   28.3220   -5.5140 C.3   215  ALA215      0.0290
     31  N         26.0750   21.9880   -4.8260 N.3   233  HIS233     -0.1241
     32  CA        26.6820   23.1160   -4.0970 C.3   233  HIS233      0.1621
     33  C         26.4570   23.0350   -2.5990 C.2   233  HIS233      0.2264
     34  O         27.3610   23.3700   -1.8300 O.2   233  HIS233     -0.2867
     35  CB        26.1120   24.4470   -4.6350 C.3   233  HIS233      0.0745
     36  CG        26.6260   24.7580   -6.0280 C.ar  233  HIS233      0.0817
     37  ND1       25.8770   24.5230   -7.1660 N.ar  233  HIS233     -0.2268
     38  CD2       27.8390   25.1840   -6.4640 C.ar  233  HIS233      0.1154
     39  CE1       26.5980   24.8170   -8.2400 C.ar  233  HIS233      0.1986
     40  NE2       27.7940   25.2050   -7.8390 N.ar  233  HIS233     -0.2212
     41  N         29.0120   20.6310   -1.3370 N.3   236  LYS236     -0.1231
     42  CA        30.3510   21.2520   -1.2230 C.3   236  LYS236      0.1693
     43  C         30.4080   22.1820    0.0120 C.2   236  LYS236      0.2592
     44  O         31.4020   22.1960    0.7520 O.2   236  LYS236     -0.2718
     45  CB        30.6850   22.0290   -2.5000 C.3   236  LYS236      0.0285
     46  CG        32.0410   22.8130   -2.4430 C.3   236  LYS236      0.0035
     47  CD        33.1960   21.7770   -2.5380 C.3   236  LYS236      0.0206
     48  CE        34.5850   22.4500   -2.8120 C.3   236  LYS236      0.1093
     49  NZ        34.6290   22.7750   -4.3320 N.3   236  LYS236     -0.1314
     50  N         29.3430   22.9470    0.2420 N.am  237  TYR237     -0.1976
     51  CA        29.3300   23.8500    1.4140 C.3   237  TYR237      0.1639
     52  C         29.4070   23.1010    2.7090 C.2   237  TYR237      0.2290
     53  O         30.2170   23.4370    3.5420 O.2   237  TYR237     -0.2864
     54  CB        28.0760   24.7620    1.3850 C.3   237  TYR237      0.0560
     55  CG        28.1190   25.8500    2.4090 C.ar  237  TYR237     -0.0198
     56  CD1       28.7770   27.0520    2.1570 C.ar  237  TYR237     -0.0009
     57  CD2       27.4990   25.6740    3.6660 C.ar  237  TYR237     -0.0009
     58  CE1       28.8180   28.0790    3.1410 C.ar  237  TYR237      0.0417
     59  CE2       27.5720   26.6450    4.6490 C.ar  237  TYR237      0.0417
     60  CZ        28.2510   27.8580    4.3850 C.ar  237  TYR237      0.1957
     61  OH        28.2670   28.8130    5.4100 O.3   237  TYR237     -0.2866
     62  N         32.8670   21.6080    3.4660 N.3   240  ARG240     -0.1231
     63  CA        33.8080   22.6510    3.9930 C.3   240  ARG240      0.1694
     64  C         33.3770   23.4270    5.2700 C.2   240  ARG240      0.2592
     65  O         34.2270   24.0800    5.9070 O.2   240  ARG240     -0.2718
     66  CB        34.0810   23.6860    2.8730 C.3   240  ARG240      0.0321
     67  CG        34.8330   23.1200    1.6280 C.3   240  ARG240      0.0489
     68  CD        35.9820   22.1410    1.9570 C.3   240  ARG240      0.2205
     69  NE        36.6310   21.8010    0.7220 N.pl3 240  ARG240     -0.0865
     70  CZ        37.5590   22.5540    0.1450 C.cat 240  ARG240      0.5346
     71  NH1       38.0300   22.1870   -1.0330 N.pl3 240  ARG240      0.1354
     72  NH2       38.0150   23.6570    0.7310 N.pl3 240  ARG240      0.1354
     73  N         32.0850   23.3650    5.6420 N.am  241  HIS241     -0.1976
     74  CA        31.5100   24.0290    6.8490 C.3   241  HIS241      0.1656
     75  C         30.6160   22.9540    7.4920 C.2   241  HIS241      0.2291
     76  O         29.5050   22.7390    7.0280 O.2   241  HIS241     -0.2864
     77  CB        30.6350   25.2970    6.5130 C.3   241  HIS241      0.0771
     78  CG        31.3210   26.2920    5.6170 C.ar  241  HIS241      0.0820
     79  ND1       31.4330   26.0990    4.2510 N.ar  241  HIS241     -0.2267
     80  CD2       31.9370   27.4770    5.8860 C.ar  241  HIS241      0.1154
     81  CE1       32.0920   27.1210    3.7220 C.ar  241  HIS241      0.1986
     82  NE2       32.3880   27.9730    4.6830 N.ar  241  HIS241     -0.2212
@<TRIPOS>BOND
     1     9     7   am
     2     1     2    1
     3    29    28    2
     4    39    40   ar
     5    39    37   ar
     6     6     7    1
     7     6     5    1
     8     7     8    2
     9    40    38   ar
    10     2     5    1
    11     2     3    1
    12    28    27    1
    13    10     3   am
    14    10    11    1
    15    37    36   ar
    16    14    11    1
    17     3     4    2
    18    38    36   ar
    19    27    26    1
    20    27    30    1
    21    11    12    1
    22    12    13    2
    23    36    35    1
    24    23    22    2
    25    31    32    1
    26    35    32    1
    27    49    48    1
    28    32    33    1
    29    22    21    1
    30    18    17    2
    31    21    24    1
    32    21    20    1
    33    48    47    1
    34    33    34    2
    35    47    46    1
    36    45    46    1
    37    45    42    1
    38    24    25    1
    39    17    20   am
    40    17    16    1
    41    41    42    1
    42    42    43    1
    43    71    70    1
    44    16    15    1
    45    16    19    1
    46    43    50   am
    47    43    44    2
    48    70    69    2
    49    70    72    1
    50    50    51    1
    51    69    68    1
    52    54    51    1
    53    54    55    1
    54    51    52    1
    55    67    68    1
    56    67    66    1
    57    56    55   ar
    58    56    58   ar
    59    55    57   ar
    60    52    53    2
    61    66    63    1
    62    58    60   ar
    63    62    63    1
    64    57    59   ar
    65    81    79   ar
    66    81    82   ar
    67    63    64    1
    68    79    78   ar
    69    60    59   ar
    70    60    61    1
    71    82    80   ar
    72    64    73   am
    73    64    65    2
    74    78    80   ar
    75    78    77    1
    76    73    74    1
    77    77    74    1
    78    74    75    1
    79    76    75    2
