@<TRIPOS>MOLECULE
tmp/3sxiA02.pdb
 159 153 0 0 0
SMALL
GASTEIGER

@<TRIPOS>ATOM
      1  N         38.4950  -20.4440    9.4730 N.3    14  THR14      -0.1218
      2  CA        38.3420  -19.0590    9.0120 C.3    14  THR14       0.1862
      3  C         37.1300  -18.8670    8.0780 C.2    14  THR14       0.2287
      4  O         36.4370  -17.8560    8.1570 O.2    14  THR14      -0.2866
      5  CB        39.6440  -18.5340    8.3500 C.3    14  THR14       0.1770
      6  OG1       40.7210  -18.6440    9.2830 O.3    14  THR14      -0.2211
      7  CG2       39.5170  -17.0710    7.9350 C.3    14  THR14       0.0375
      8  N         42.5170  -18.9160   15.8440 N.3    44  PHE44      -0.1241
      9  CA        42.8970  -17.8540   14.9200 C.3    44  PHE44       0.1605
     10  C         44.2600  -18.1470   14.2880 C.2    44  PHE44       0.2264
     11  O         45.3090  -17.8210   14.8470 O.2    44  PHE44      -0.2867
     12  CB        42.9250  -16.4910   15.6140 C.3    44  PHE44       0.0534
     13  CG        43.0940  -15.3500   14.6580 C.ar   44  PHE44      -0.0203
     14  CD1       42.0930  -15.0490   13.7490 C.ar   44  PHE44      -0.0042
     15  CD2       44.2620  -14.5920   14.6480 C.ar   44  PHE44      -0.0042
     16  CE1       42.2390  -13.9930   12.8510 C.ar   44  PHE44      -0.0003
     17  CE2       44.4220  -13.5430   13.7490 C.ar   44  PHE44      -0.0003
     18  CZ        43.4070  -13.2420   12.8500 C.ar   44  PHE44      -0.0000
     19  N         46.4000  -17.1400   11.9090 N.3    46  PRO46      -0.2116
     20  CA        47.5420  -16.2390   11.6810 C.3    46  PRO46       0.1372
     21  C         48.3620  -15.9500   12.9380 C.2    46  PRO46       0.2244
     22  O         49.4370  -15.3610   12.8390 O.2    46  PRO46      -0.2868
     23  CB        46.8760  -14.9500   11.1820 C.3    46  PRO46       0.0268
     24  CG        45.5630  -15.4100   10.5820 C.3    46  PRO46       0.0207
     25  CD        45.1220  -16.5360   11.4840 C.3    46  PRO46       0.0892
     26  N         42.5690  -14.5360    3.7020 N.3   325  GLY325     -0.1210
     27  CA        41.3620  -14.2920    4.4630 C.3   325  GLY325      0.1956
     28  C         40.2700  -13.4920    3.7880 C.2   325  GLY325      0.2611
     29  O         39.1000  -13.8650    3.8540 O.2   325  GLY325     -0.2717
     30  N         40.6190  -12.3840    3.1570 N.am  326  TYR326     -0.1976
     31  CA        39.5770  -11.5860    2.5370 C.3   326  TYR326      0.1639
     32  C         38.9020  -12.3270    1.3640 C.2   326  TYR326      0.2290
     33  O         37.6900  -12.2820    1.2150 O.2   326  TYR326     -0.2864
     34  CB        40.0640  -10.2000    2.1100 C.3   326  TYR326      0.0560
     35  CG        39.0060   -9.5330    1.2750 C.ar  326  TYR326     -0.0198
     36  CD1       37.8550   -9.0350    1.8630 C.ar  326  TYR326     -0.0009
     37  CD2       39.1110   -9.4920   -0.1060 C.ar  326  TYR326     -0.0009
     38  CE1       36.8560   -8.4640    1.1040 C.ar  326  TYR326      0.0417
     39  CE2       38.1230   -8.9270   -0.8780 C.ar  326  TYR326      0.0417
     40  CZ        36.9920   -8.4100   -0.2690 C.ar  326  TYR326      0.1957
     41  OH        35.9960   -7.8430   -1.0340 O.3   326  TYR326     -0.2866
     42  N         42.4660  -12.0020   -4.9990 N.3   356  ASN356     -0.1240
     43  CA        43.4180  -11.1400   -4.3040 C.3   356  ASN356      0.1653
     44  C         44.1720  -11.9280   -3.2490 C.2   356  ASN356      0.2266
     45  O         43.7350  -13.0040   -2.8240 O.2   356  ASN356     -0.2867
     46  CB        42.7120   -9.9430   -3.6680 C.3   356  ASN356      0.1155
     47  CG        41.6700  -10.3620   -2.6650 C.2   356  ASN356      0.2627
     48  OD1       41.9610  -10.5230   -1.4800 O.2   356  ASN356     -0.2716
     49  ND2       40.4460  -10.5810   -3.1450 N.am  356  ASN356     -0.0877
     50  N         46.0910  -11.0340    0.5150 N.3   358  VAL358     -0.1231
     51  CA        46.3740  -10.0690    1.5550 C.3   358  VAL358      0.1692
     52  C         47.0250  -10.8380    2.6900 C.2   358  VAL358      0.2592
     53  O         46.5900  -11.9370    3.0290 O.2   358  VAL358     -0.2718
     54  CB        45.0740   -9.4140    2.0610 C.3   358  VAL358      0.0266
     55  CG1       45.3610   -8.4640    3.1990 C.3   358  VAL358      0.0020
     56  CG2       44.3660   -8.6800    0.9290 C.3   358  VAL358      0.0020
     57  N         48.0730  -10.2750    3.2750 N.am  359  CYS359     -0.1956
     58  CA        48.7790  -10.9640    4.3500 C.3   359  CYS359      0.1843
     59  C         49.4200   -9.9650    5.3000 C.2   359  CYS359      0.2625
     60  O         49.9310   -8.9370    4.8700 O.2   359  CYS359     -0.2714
     61  CB        49.8590  -11.8930    3.7780 C.3   359  CYS359      0.0997
     62  SG        50.5430  -13.0820    4.9650 S.3   359  CYS359     -0.0797
     63  N         49.3930  -10.2870    6.5880 N.am  360  PHE360     -0.1974
     64  CA        49.9730   -9.4540    7.6310 C.3   360  PHE360      0.1639
     65  C         50.9080  -10.3140    8.4680 C.2   360  PHE360      0.2290
     66  O         50.5780  -11.4470    8.8110 O.2   360  PHE360     -0.2864
     67  CB        48.8710   -8.8470    8.5090 C.3   360  PHE360      0.0560
     68  CG        48.2200   -7.6280    7.9120 C.ar  360  PHE360     -0.0200
     69  CD1       48.3510   -6.3860    8.5180 C.ar  360  PHE360     -0.0042
     70  CD2       47.4920   -7.7150    6.7330 C.ar  360  PHE360     -0.0042
     71  CE1       47.7560   -5.2530    7.9630 C.ar  360  PHE360     -0.0003
     72  CE2       46.8970   -6.5840    6.1690 C.ar  360  PHE360     -0.0003
     73  CZ        47.0320   -5.3510    6.7850 C.ar  360  PHE360     -0.0000
     74  N         49.3320   -6.4910   -0.2540 N.3   371  ILE371     -0.1245
     75  CA        48.0800   -6.6550   -0.9340 C.3   371  ILE371      0.1561
     76  C         48.3870   -6.7630   -2.4080 C.2   371  ILE371      0.2260
     77  O         49.0900   -5.9330   -2.9550 O.2   371  ILE371     -0.2867
     78  CB        47.1300   -5.4640   -0.6940 C.3   371  ILE371      0.0252
     79  CG1       46.7610   -5.3880    0.7860 C.3   371  ILE371      0.0019
     80  CG2       45.8790   -5.6300   -1.5330 C.3   371  ILE371      0.0019
     81  CD1       45.8980   -4.2230    1.1400 C.3   371  ILE371      0.0001
     82  N         46.4320   -7.6630   -6.2120 N.3   373  LEU373     -0.1245
     83  CA        45.3050   -8.0680   -7.0650 C.3   373  LEU373      0.1561
     84  C         45.3250   -7.4220   -8.4420 C.2   373  LEU373      0.2260
     85  O         45.7970   -6.2990   -8.5850 O.2   373  LEU373     -0.2867
     86  CB        43.9470   -7.8720   -6.3780 C.3   373  LEU373      0.0270
     87  CG        43.2080   -6.5640   -6.0820 C.3   373  LEU373      0.0019
     88  CD1       44.0090   -5.7320   -5.1320 C.3   373  LEU373      0.0001
     89  CD2       42.8020   -5.7760   -7.3340 C.3   373  LEU373      0.0001
     90  N         47.4260   -5.6710   12.9550 N.3   394  LYS394     -0.1245
     91  CA        47.3120   -7.1130   13.1390 C.3   394  LYS394      0.1561
     92  C         46.6820   -7.3710   14.4890 C.2   394  LYS394      0.2260
     93  O         45.7530   -8.1600   14.6230 O.2   394  LYS394     -0.2867
     94  CB        48.6940   -7.7620   13.0940 C.3   394  LYS394      0.0271
     95  CG        48.6870   -9.2680   13.2630 C.3   394  LYS394      0.0035
     96  CD        48.5740   -9.9570   11.9180 C.3   394  LYS394      0.0206
     97  CE        48.9750  -11.4220   11.9900 C.3   394  LYS394      0.1093
     98  NZ        48.6930  -12.0860   10.6900 N.3   394  LYS394     -0.1314
     99  N         43.0320   -6.3930   14.2660 N.3   397  PHE397     -0.1241
    100  CA        42.2190   -7.3110   13.4960 C.3   397  PHE397      0.1605
    101  C         41.9650   -8.6130   14.2380 C.2   397  PHE397      0.2264
    102  O         40.8640   -9.1510   14.1980 O.2   397  PHE397     -0.2867
    103  CB        42.8370   -7.5990   12.1320 C.3   397  PHE397      0.0534
    104  CG        41.9200   -8.3460   11.2290 C.ar  397  PHE397     -0.0203
    105  CD1       40.9100   -7.6800   10.5550 C.ar  397  PHE397     -0.0042
    106  CD2       42.0280   -9.7230   11.0880 C.ar  397  PHE397     -0.0042
    107  CE1       40.0360   -8.3690    9.7330 C.ar  397  PHE397     -0.0003
    108  CE2       41.1560  -10.4180   10.2690 C.ar  397  PHE397     -0.0003
    109  CZ        40.1580   -9.7390    9.5920 C.ar  397  PHE397     -0.0000
    110  N         38.2830  -10.0530   14.8940 N.3   401  PHE401     -0.1241
    111  CA        37.8180  -11.2990   14.2950 C.3   401  PHE401      0.1605
    112  C         37.3750  -12.2800   15.3630 C.2   401  PHE401      0.2264
    113  O         36.3360  -12.9160   15.2460 O.2   401  PHE401     -0.2867
    114  CB        38.8920  -11.9310   13.4210 C.3   401  PHE401      0.0534
    115  CG        38.3600  -12.9600   12.4660 C.ar  401  PHE401     -0.0203
    116  CD1       38.2810  -14.2950   12.8310 C.ar  401  PHE401     -0.0042
    117  CD2       37.9380  -12.5930   11.1980 C.ar  401  PHE401     -0.0042
    118  CE1       37.7920  -15.2450   11.9460 C.ar  401  PHE401     -0.0003
    119  CE2       37.4460  -13.5430   10.3060 C.ar  401  PHE401     -0.0003
    120  CZ        37.3750  -14.8650   10.6800 C.ar  401  PHE401     -0.0000
    121  N         33.4150   -7.5570    5.6560 N.3   414  TYR414     -0.1241
    122  CA        34.3640   -6.4520    5.7040 C.3   414  TYR414      0.1605
    123  C         33.7170   -5.1060    5.4700 C.2   414  TYR414      0.2264
    124  O         33.6790   -4.5760    4.3520 O.2   414  TYR414     -0.2867
    125  CB        35.5610   -6.6780    4.7920 C.3   414  TYR414      0.0534
    126  CG        36.3990   -7.8170    5.2880 C.ar  414  TYR414     -0.0201
    127  CD1       36.0090   -9.1270    5.0590 C.ar  414  TYR414     -0.0009
    128  CD2       37.5520   -7.5920    6.0160 C.ar  414  TYR414     -0.0009
    129  CE1       36.7540  -10.1860    5.5180 C.ar  414  TYR414      0.0417
    130  CE2       38.3120   -8.6500    6.4810 C.ar  414  TYR414      0.0417
    131  CZ        37.9050   -9.9490    6.2280 C.ar  414  TYR414      0.1957
    132  OH        38.6390  -11.0250    6.6820 O.3   414  TYR414     -0.2866
    133  N         34.9800   -3.3890    7.8500 N.3   416  LYS416     -0.1231
    134  CA        36.1860   -2.8640    8.4890 C.3   416  LYS416      0.1693
    135  C         36.8740   -2.0230    7.4330 C.2   416  LYS416      0.2591
    136  O         38.0600   -2.1910    7.1310 O.2   416  LYS416     -0.2718
    137  CB        37.1170   -3.9780    8.9660 C.3   416  LYS416      0.0285
    138  CG        38.2520   -3.4740    9.8530 C.3   416  LYS416      0.0035
    139  CD        39.0960   -4.6160   10.4050 C.3   416  LYS416      0.0206
    140  CE        39.8460   -4.2150   11.6820 C.3   416  LYS416      0.1093
    141  NZ        40.9220   -3.2070   11.4540 N.3   416  LYS416     -0.1314
    142  N         36.0770   -1.1320    6.8590 N.am  417  VAL417     -0.1980
    143  CA        36.4720   -0.2800    5.7600 C.3   417  VAL417      0.1595
    144  C         35.8410    1.0860    6.0190 C.2   417  VAL417      0.2287
    145  O         36.2070    2.0820    5.3970 O.2   417  VAL417     -0.2864
    146  CB        35.9680   -0.8560    4.4280 C.3   417  VAL417      0.0276
    147  CG1       36.5100   -0.0510    3.2570 C.3   417  VAL417      0.0022
    148  CG2       36.3690   -2.3240    4.3090 C.3   417  VAL417      0.0022
    149  N         36.4620    2.6870    8.4770 N.3   419  PHE419     -0.1241
    150  CA        37.4800    3.4930    9.1520 C.3   419  PHE419      0.1605
    151  C         37.7570    4.7200    8.2850 C.2   419  PHE419      0.2264
    152  O         38.6180    5.5500    8.5950 O.2   419  PHE419     -0.2867
    153  CB        38.7580    2.6900    9.4740 C.3   419  PHE419      0.0534
    154  CG        39.5620    2.2540    8.2640 C.ar  419  PHE419     -0.0203
    155  CD1       39.0720    2.3900    6.9780 C.ar  419  PHE419     -0.0042
    156  CD2       40.8150    1.6890    8.4320 C.ar  419  PHE419     -0.0042
    157  CE1       39.8260    1.9780    5.8910 C.ar  419  PHE419     -0.0003
    158  CE2       41.5620    1.2710    7.3520 C.ar  419  PHE419     -0.0003
    159  CZ        41.0730    1.4160    6.0830 C.ar  419  PHE419     -0.0000
@<TRIPOS>BOND
     1    85    84    2
     2    84    83    1
     3    89    87    1
     4    83    86    1
     5    83    82    1
     6    86    87    1
     7    87    88    1
     8    42    43    1
     9    43    46    1
    10    43    44    1
    11    46    47    1
    12    44    45    2
    13    49    47   am
    14    77    76    2
    15    47    48    2
    16    76    75    1
    17    80    78    1
    18    41    40    1
    19    75    78    1
    20    75    74    1
    21    39    40   ar
    22    39    37   ar
    23    78    79    1
    24    40    38   ar
    25    37    35   ar
    26    50    51    1
    27    79    81    1
    28    56    54    1
    29    38    36   ar
    30    33    32    2
    31    35    36   ar
    32    35    34    1
    33    32    31    1
    34    51    54    1
    35    51    52    1
    36    54    55    1
    37    34    31    1
    38    31    30    1
    39    52    53    2
    40    52    57   am
    41    30    28   am
    42   147   146    1
    43    57    58    1
    44    26    27    1
    45    61    58    1
    46    61    62    1
    47    28    29    2
    48    28    27    1
    49   148   146    1
    50    58    59    1
    51   124   123    2
    52   146   143    1
    53   125   126    1
    54   125   122    1
    55    60    59    2
    56   127   126   ar
    57   127   129   ar
    58   126   128   ar
    59    59    63   am
    60   145   144    2
    61   123   122    1
    62   129   131   ar
    63   121   122    1
    64   143   144    1
    65   143   142    1
    66   157   159   ar
    67   157   155   ar
    68   128   130   ar
    69   159   158   ar
    70    72    70   ar
    71    72    73   ar
    72   131   130   ar
    73   131   132    1
    74    63    64    1
    75    70    68   ar
    76    73    71   ar
    77   142   135   am
    78   155   154   ar
    79   136   135    2
    80   158   156   ar
    81   135   134    1
    82    64    65    1
    83    64    67    1
    84   133   134    1
    85    68    67    1
    86    68    69   ar
    87     7     5    1
    88    71    69   ar
    89     3     4    2
    90     3     2    1
    91   154   156   ar
    92   154   153    1
    93   151   152    2
    94   151   150    1
    95     5     2    1
    96     5     6    1
    97    65    66    2
    98   149   150    1
    99   134   137    1
   100   137   138    1
   101     2     1    1
   102   150   153    1
   103   109   107   ar
   104   109   108   ar
   105   107   105   ar
   106   138   139    1
   107   108   106   ar
   108   119   120   ar
   109   119   117   ar
   110   139   140    1
   111   105   104   ar
   112    24    23    1
   113    24    25    1
   114   120   118   ar
   115    98    97    1
   116   106   104   ar
   117    23    20    1
   118   117   115   ar
   119   104   103    1
   120   141   140    1
   121    25    19    1
   122    20    19    1
   123    20    21    1
   124    96    97    1
   125    96    95    1
   126   118   116   ar
   127   103   100    1
   128   115   116   ar
   129   115   114    1
   130    22    21    2
   131    18    16   ar
   132    18    17   ar
   133    16    14   ar
   134    90    91    1
   135    94    91    1
   136    94    95    1
   137    91    92    1
   138   114   111    1
   139   100   101    1
   140   100    99    1
   141    17    15   ar
   142    14    13   ar
   143   102   101    2
   144    10    11    2
   145    10     9    1
   146   111   110    1
   147   111   112    1
   148    92    93    2
   149    15    13   ar
   150    13    12    1
   151     9    12    1
   152     9     8    1
   153   113   112    2
