@<TRIPOS>MOLECULE
tmp/3sxiA01.pdb
 162 156 0 0 0
SMALL
GASTEIGER

@<TRIPOS>ATOM
      1  N         54.4300  -16.5340    3.5880 N.3   165  GLY165     -0.1225
      2  CA        54.4940  -15.4900    4.5900 C.3   165  GLY165      0.1811
      3  C         54.8900  -15.9750    5.9720 C.2   165  GLY165      0.2280
      4  O         55.8370  -15.4790    6.5530 O.2   165  GLY165     -0.2866
      5  N         58.6960  -16.8070    6.5990 N.3   168  TYR168     -0.1227
      6  CA        59.5210  -15.6090    6.8060 C.3   168  TYR168      0.1736
      7  C         59.2720  -15.0260    8.1890 C.2   168  TYR168      0.2595
      8  O         60.2100  -14.7520    8.9390 O.2   168  TYR168     -0.2718
      9  CB        59.2470  -14.5610    5.7290 C.3   168  TYR168      0.0548
     10  CG        59.7810  -14.9520    4.3700 C.ar  168  TYR168     -0.0200
     11  CD1       61.1200  -14.7530    4.0420 C.ar  168  TYR168     -0.0009
     12  CD2       58.9490  -15.5170    3.4170 C.ar  168  TYR168     -0.0009
     13  CE1       61.6090  -15.1070    2.8080 C.ar  168  TYR168      0.0417
     14  CE2       59.4260  -15.8770    2.1750 C.ar  168  TYR168      0.0417
     15  CZ        60.7590  -15.6650    1.8790 C.ar  168  TYR168      0.1957
     16  OH        61.2250  -16.0190    0.6540 O.3   168  TYR168     -0.2866
     17  N         57.9980  -14.8740    8.5370 N.am  169  GLU169     -0.1979
     18  CA        57.6210  -14.3920    9.8600 C.3   169  GLU169      0.1602
     19  C         58.2680  -15.2290   10.9570 C.2   169  GLU169      0.2287
     20  O         58.8510  -14.6960   11.9050 O.2   169  GLU169     -0.2864
     21  CB        56.0880  -14.3870   10.0320 C.3   169  GLU169      0.0415
     22  CG        55.6100  -14.0070   11.4440 C.3   169  GLU169      0.1163
     23  CD        54.0810  -13.9490   11.5920 C.2   169  GLU169      0.3649
     24  OE1       53.3490  -14.3320   10.6490 O.co2 169  GLU169     -0.2457
     25  OE2       53.6130  -13.5150   12.6660 O.co2 169  GLU169     -0.2457
     26  N         62.0050  -14.7650   11.2760 N.3   172  MET172     -0.1245
     27  CA        62.3390  -13.4560   11.8360 C.3   172  MET172      0.1570
     28  C         62.1420  -13.3830   13.3550 C.2   172  MET172      0.2261
     29  O         63.0020  -12.8610   14.0600 O.2   172  MET172     -0.2867
     30  CB        61.5690  -12.3340   11.1210 C.3   172  MET172      0.0387
     31  CG        61.9890  -12.1100    9.6600 C.3   172  MET172      0.0595
     32  SD        63.7610  -11.7700    9.4200 S.3   172  MET172     -0.1393
     33  CE        63.8400  -10.0890   10.0230 C.3   172  MET172      0.0692
     34  N         56.8540  -15.3820   -2.7060 N.3   202  LEU202     -0.1245
     35  CA        55.6410  -15.5740   -1.9260 C.3   202  LEU202      0.1561
     36  C         54.5490  -16.3340   -2.6720 C.2   202  LEU202      0.2260
     37  O         53.3920  -16.2910   -2.2860 O.2   202  LEU202     -0.2867
     38  CB        55.1230  -14.2200   -1.4420 C.3   202  LEU202      0.0270
     39  CG        56.1370  -13.5220   -0.5320 C.3   202  LEU202      0.0019
     40  CD1       55.7990  -12.0630   -0.3120 C.3   202  LEU202      0.0001
     41  CD2       56.2500  -14.2470    0.7870 C.3   202  LEU202      0.0001
     42  N         63.2360   -6.3870    0.3080 N.3   213  ILE213     -0.1231
     43  CA        63.0210   -6.2160    1.7370 C.3   213  ILE213      0.1692
     44  C         63.2080   -7.5130    2.5370 C.2   213  ILE213      0.2591
     45  O         63.8270   -7.5100    3.6090 O.2   213  ILE213     -0.2718
     46  CB        61.6400   -5.5740    2.0230 C.3   213  ILE213      0.0266
     47  CG1       61.6290   -4.0990    1.5790 C.3   213  ILE213      0.0019
     48  CG2       61.3160   -5.6530    3.4820 C.3   213  ILE213      0.0020
     49  CD1       60.2100   -3.4720    1.5380 C.3   213  ILE213      0.0001
     50  N         62.6730   -8.6250    2.0340 N.am  214  LEU214     -0.1980
     51  CA        62.8780   -9.9100    2.7090 C.3   214  LEU214      0.1596
     52  C         64.3390  -10.3920    2.6210 C.2   214  LEU214      0.2287
     53  O         64.8630  -10.9650    3.5720 O.2   214  LEU214     -0.2864
     54  CB        61.9190  -10.9760    2.1680 C.3   214  LEU214      0.0297
     55  CG        60.5340  -11.0010    2.8390 C.3   214  LEU214      0.0022
     56  CD1       60.0150   -9.6210    3.0670 C.3   214  LEU214      0.0001
     57  CD2       59.5350  -11.7790    2.0120 C.3   214  LEU214      0.0001
     58  N         67.0480   -8.4920    2.4750 N.3   216  LYS216     -0.1231
     59  CA        67.8000   -7.6790    3.4250 C.3   216  LYS216      0.1693
     60  C         67.4790   -8.0820    4.8680 C.2   216  LYS216      0.2592
     61  O         68.3720   -8.1590    5.7120 O.2   216  LYS216     -0.2718
     62  CB        67.5430   -6.1930    3.1860 C.3   216  LYS216      0.0285
     63  CG        67.9860   -5.2950    4.3180 C.3   216  LYS216      0.0035
     64  CD        67.9720   -3.8300    3.9080 C.3   216  LYS216      0.0206
     65  CE        68.9140   -3.0160    4.7890 C.3   216  LYS216      0.1093
     66  NZ        69.1880   -1.6590    4.2310 N.3   216  LYS216     -0.1314
     67  N         66.2100   -8.3640    5.1440 N.am  217  GLY217     -0.1957
     68  CA        65.8090   -8.8130    6.4640 C.3   217  GLY217      0.1869
     69  C         66.5080  -10.0920    6.9010 C.2   217  GLY217      0.2309
     70  O         67.0000  -10.1800    8.0260 O.2   217  GLY217     -0.2863
     71  N         70.2540   -9.2120    7.4750 N.3   220  GLU220     -0.1245
     72  CA        70.3400   -8.5210    8.7680 C.3   220  GLU220      0.1567
     73  C         70.3860   -9.4880    9.9540 C.2   220  GLU220      0.2260
     74  O         71.0060   -9.2000   10.9710 O.2   220  GLU220     -0.2867
     75  CB        69.1330   -7.6000    8.9860 C.3   220  GLU220      0.0388
     76  CG        69.1250   -6.2730    8.2330 C.3   220  GLU220      0.1160
     77  CD        67.7680   -5.5490    8.3300 C.2   220  GLU220      0.3649
     78  OE1       67.6030   -4.5090    7.6610 O.co2 220  GLU220     -0.2457
     79  OE2       66.8680   -6.0180    9.0680 O.co2 220  GLU220     -0.2457
     80  N         48.0730  -10.2750    3.2750 N.3   359  CYS359     -0.1221
     81  CA        48.7790  -10.9640    4.3500 C.3   359  CYS359      0.1808
     82  C         49.4200   -9.9650    5.3000 C.2   359  CYS359      0.2601
     83  O         49.9310   -8.9370    4.8700 O.2   359  CYS359     -0.2717
     84  CB        49.8590  -11.8930    3.7780 C.3   359  CYS359      0.0970
     85  SG        50.5430  -13.0820    4.9650 S.3   359  CYS359     -0.0800
     86  N         49.3930  -10.2870    6.5880 N.am  360  PHE360     -0.1962
     87  CA        49.9730   -9.4540    7.6310 C.3   360  PHE360      0.1771
     88  C         50.9080  -10.3140    8.4680 C.2   360  PHE360      0.2619
     89  O         50.5780  -11.4470    8.8110 O.2   360  PHE360     -0.2715
     90  CB        48.8710   -8.8470    8.5090 C.3   360  PHE360      0.0574
     91  CG        48.2200   -7.6280    7.9120 C.ar  360  PHE360     -0.0200
     92  CD1       48.3510   -6.3860    8.5180 C.ar  360  PHE360     -0.0042
     93  CD2       47.4920   -7.7150    6.7330 C.ar  360  PHE360     -0.0042
     94  CE1       47.7560   -5.2530    7.9630 C.ar  360  PHE360     -0.0003
     95  CE2       46.8970   -6.5840    6.1690 C.ar  360  PHE360     -0.0003
     96  CZ        47.0320   -5.3510    6.7850 C.ar  360  PHE360     -0.0000
     97  N         52.0900   -9.7850    8.7680 N.am  361  ALA361     -0.1977
     98  CA        53.0420  -10.4900    9.5980 C.3   361  ALA361      0.1597
     99  C         53.5330   -9.5400   10.6810 C.2   361  ALA361      0.2287
    100  O         53.9720   -8.4350   10.3880 O.2   361  ALA361     -0.2864
    101  CB        54.2180  -11.0020    8.7630 C.3   361  ALA361      0.0319
    102  N         56.1960   -8.7300   13.5890 N.3   363  MET363     -0.1245
    103  CA        57.5330   -9.0470   14.0930 C.3   363  MET363      0.1570
    104  C         57.7320   -8.6290   15.5490 C.2   363  MET363      0.2261
    105  O         58.7870   -8.8780   16.1330 O.2   363  MET363     -0.2867
    106  CB        58.6120   -8.4050   13.2180 C.3   363  MET363      0.0387
    107  CG        59.3420   -9.3730   12.3000 C.3   363  MET363      0.0595
    108  SD        58.3030   -9.9580   10.9550 S.3   363  MET363     -0.1393
    109  CE        57.5250  -11.3760   11.7160 C.3   363  MET363      0.0692
    110  N         54.9250   -6.4120    8.6760 N.3   368  ALA368     -0.1231
    111  CA        54.9760   -6.3090    7.2320 C.3   368  ALA368      0.1694
    112  C         53.6340   -6.8120    6.7060 C.2   368  ALA368      0.2592
    113  O         53.0480   -7.7230    7.2720 O.2   368  ALA368     -0.2718
    114  CB        56.1300   -7.1460    6.6760 C.3   368  ALA368      0.0304
    115  N         53.1340   -6.2000    5.6450 N.am  369  ALA369     -0.1966
    116  CA        51.8880   -6.6390    5.0510 C.3   369  ALA369      0.1728
    117  C         51.9450   -6.4410    3.5530 C.2   369  ALA369      0.2616
    118  O         52.7110   -5.6150    3.0580 O.2   369  ALA369     -0.2715
    119  CB        50.7100   -5.8610    5.6330 C.3   369  ALA369      0.0334
    120  N         51.1410   -7.2050    2.8220 N.am  370  PHE370     -0.1974
    121  CA        50.9990   -6.9500    1.4000 C.3   370  PHE370      0.1639
    122  C         49.5780   -7.0910    0.9010 C.2   370  PHE370      0.2290
    123  O         48.7270   -7.7050    1.5440 O.2   370  PHE370     -0.2864
    124  CB        51.9380   -7.8120    0.5710 C.3   370  PHE370      0.0560
    125  CG        51.6370   -9.2760    0.6280 C.ar  370  PHE370     -0.0200
    126  CD1       52.4720  -10.1370    1.3110 C.ar  370  PHE370     -0.0042
    127  CD2       50.5320   -9.7980   -0.0230 C.ar  370  PHE370     -0.0042
    128  CE1       52.2060  -11.5030    1.3530 C.ar  370  PHE370     -0.0003
    129  CE2       50.2590  -11.1490    0.0120 C.ar  370  PHE370     -0.0003
    130  CZ        51.1000  -12.0060    0.6980 C.ar  370  PHE370     -0.0000
    131  N         53.5230   -3.4990   -0.7930 N.3   384  PHE384     -0.1227
    132  CA        54.1640   -4.0830    0.3670 C.3   384  PHE384      0.1736
    133  C         54.4300   -2.9740    1.3880 C.2   384  PHE384      0.2595
    134  O         54.9320   -1.9100    1.0430 O.2   384  PHE384     -0.2718
    135  CB        55.4560   -4.7800   -0.0440 C.3   384  PHE384      0.0547
    136  CG        56.0670   -5.6080    1.0460 C.ar  384  PHE384     -0.0202
    137  CD1       56.8070   -5.0130    2.0560 C.ar  384  PHE384     -0.0042
    138  CD2       55.9050   -6.9820    1.0620 C.ar  384  PHE384     -0.0042
    139  CE1       57.3730   -5.7830    3.0640 C.ar  384  PHE384     -0.0003
    140  CE2       56.4670   -7.7600    2.0650 C.ar  384  PHE384     -0.0003
    141  CZ        57.2000   -7.1640    3.0680 C.ar  384  PHE384     -0.0000
    142  N         54.0520   -3.2050    2.6390 N.am  385  ALA385     -0.1966
    143  CA        54.1980   -2.1850    3.6710 C.3   385  ALA385      0.1728
    144  C         54.9210   -2.7350    4.8830 C.2   385  ALA385      0.2616
    145  O         54.8550   -3.9280    5.1690 O.2   385  ALA385     -0.2715
    146  CB        52.8360   -1.6420    4.0840 C.3   385  ALA385      0.0334
    147  N         55.6070   -1.8530    5.5970 N.am  386  TYR386     -0.1960
    148  CA        56.3060   -2.2300    6.8120 C.3   386  TYR386      0.1771
    149  C         56.2130   -1.0780    7.7890 C.2   386  TYR386      0.2620
    150  O         56.3760    0.0650    7.4010 O.2   386  TYR386     -0.2715
    151  CB        57.7830   -2.5390    6.5140 C.3   386  TYR386      0.0574
    152  CG        58.5950   -2.8940    7.7460 C.ar  386  TYR386     -0.0198
    153  CD1       59.2330   -1.9080    8.4940 C.ar  386  TYR386     -0.0009
    154  CD2       58.7380   -4.2160    8.1530 C.ar  386  TYR386     -0.0009
    155  CE1       59.9840   -2.2270    9.6270 C.ar  386  TYR386      0.0417
    156  CE2       59.4850   -4.5480    9.2900 C.ar  386  TYR386      0.0417
    157  CZ        60.1070   -3.5500   10.0180 C.ar  386  TYR386      0.1957
    158  OH        60.8500   -3.8760   11.1350 O.3   386  TYR386     -0.2866
    159  N         55.9480   -1.3780    9.0540 N.am  387  GLY387     -0.1954
    160  CA        56.0110   -0.3660   10.0840 C.3   387  GLY387      0.1869
    161  C         55.3010   -0.7550   11.3580 C.2   387  GLY387      0.2309
    162  O         54.6720   -1.8120   11.4470 O.2   387  GLY387     -0.2863
@<TRIPOS>BOND
     1    34    35    1
     2    36    37    2
     3    36    35    1
     4    35    38    1
     5    38    39    1
     6   131   132    1
     7    39    40    1
     8    39    41    1
     9   135   132    1
    10   135   136    1
    11   127   129   ar
    12   127   125   ar
    13   129   130   ar
    14    42    43    1
    15   132   133    1
    16   124   125    1
    17   124   121    1
    18   125   126   ar
    19    16    15    1
    20   130   128   ar
    21   122   121    1
    22   122   123    2
    23   134   133    2
    24   136   138   ar
    25   136   137   ar
    26   138   140   ar
    27   126   128   ar
    28   133   142   am
    29   121   120    1
    30    49    47    1
    31    47    46    1
    32    43    46    1
    33    43    44    1
    34    15    14   ar
    35    15    13   ar
    36    57    55    1
    37    46    48    1
    38    50    44   am
    39    50    51    1
    40   137   139   ar
    41   140   141   ar
    42    54    51    1
    43    54    55    1
    44    14    12   ar
    45    58    59    1
    46    44    45    2
    47    52    51    1
    48    52    53    2
    49   142   143    1
    50    13    11   ar
    51   120   117   am
    52    55    56    1
    53   118   117    2
    54   139   141   ar
    55    62    59    1
    56    62    63    1
    57    80    81    1
    58    12    10   ar
    59    59    60    1
    60   117   116    1
    61     1     2    1
    62   143   146    1
    63   143   144    1
    64    84    81    1
    65    84    85    1
    66    64    63    1
    67    64    65    1
    68    11    10   ar
    69    66    65    1
    70    81    82    1
    71    10     9    1
    72     2     3    1
    73    60    67   am
    74    60    61    2
    75    83    82    2
    76   144   145    2
    77   144   147   am
    78   116   119    1
    79   116   115    1
    80    67    68    1
    81    82    86   am
    82   147   148    1
    83   115   112   am
    84     9     6    1
    85     3     4    2
    86    95    93   ar
    87    95    96   ar
    88    68    69    1
    89   151   148    1
    90   151   152    1
    91    86    87    1
    92     5     6    1
    93   114   111    1
    94   112   111    1
    95   112   113    2
    96    93    91   ar
    97    96    94   ar
    98     6     7    1
    99   148   149    1
   100    69    70    2
   101   111   110    1
   102   150   149    2
   103    71    72    1
   104    87    88    1
   105    87    90    1
   106    78    77   ar
   107   152   154   ar
   108   152   153   ar
   109   149   159   am
   110    91    90    1
   111    91    92   ar
   112    94    92   ar
   113   154   156   ar
   114     7    17   am
   115     7     8    2
   116    76    77    1
   117    76    75    1
   118    77    79   ar
   119    88    97   am
   120    88    89    2
   121   153   155   ar
   122    17    18    1
   123   101    98    1
   124    72    75    1
   125    72    73    1
   126    97    98    1
   127   159   160    1
   128   156   157   ar
   129    32    31    1
   130    32    33    1
   131    98    99    1
   132   155   157   ar
   133    31    30    1
   134    18    21    1
   135    18    19    1
   136    73    74    2
   137   157   158    1
   138    21    22    1
   139   160   161    1
   140   100    99    2
   141    24    23   ar
   142   108   109    1
   143   108   107    1
   144    19    20    2
   145    30    27    1
   146    26    27    1
   147   161   162    2
   148    22    23    1
   149    23    25   ar
   150    27    28    1
   151   107   106    1
   152   106   103    1
   153    28    29    2
   154   102   103    1
   155   103   104    1
   156   104   105    2
