@<TRIPOS>MOLECULE
tmp/3sxnE00.pdb
 163 158 0 0 0
SMALL
GASTEIGER

@<TRIPOS>ATOM
      1  N          0.5620   12.9220   22.3890 N.3    25  ALA25      -0.1231
      2  CA         0.7380   11.8830   21.3770 C.3    25  ALA25       0.1694
      3  C          2.2030   11.6340   21.0800 C.2    25  ALA25       0.2592
      4  O          2.6210   10.4950   20.8620 O.2    25  ALA25      -0.2718
      5  CB        -0.0030   12.2560   20.0920 C.3    25  ALA25       0.0304
      6  N          2.9810   12.7080   21.0670 N.am   26  PHE26      -0.1976
      7  CA         4.3970   12.6140   20.7390 C.3    26  PHE26       0.1639
      8  C          5.2830   12.3420   21.9560 C.2    26  PHE26       0.2290
      9  O          6.3240   11.6900   21.8390 O.2    26  PHE26      -0.2864
     10  CB         4.8570   13.8880   20.0300 C.3    26  PHE26       0.0560
     11  CG         4.5360   13.9040   18.5610 C.ar   26  PHE26      -0.0200
     12  CD1        3.2910   14.3250   18.1110 C.ar   26  PHE26      -0.0042
     13  CD2        5.4720   13.4820   17.6370 C.ar   26  PHE26      -0.0042
     14  CE1        2.9930   14.3400   16.7580 C.ar   26  PHE26      -0.0003
     15  CE2        5.1840   13.4910   16.2770 C.ar   26  PHE26      -0.0003
     16  CZ         3.9410   13.9170   15.8380 C.ar   26  PHE26      -0.0000
     17  N          0.6700   15.6680   12.8650 N.3    85  VAL85      -0.1231
     18  CA        -0.2410   14.5400   12.8540 C.3    85  VAL85       0.1692
     19  C         -0.1760   13.8500   14.2190 C.2    85  VAL85       0.2592
     20  O          0.9120   13.5060   14.7010 O.2    85  VAL85      -0.2718
     21  CB         0.1430   13.5540   11.7610 C.3    85  VAL85       0.0266
     22  CG1       -0.7550   12.3200   11.8090 C.3    85  VAL85       0.0020
     23  CG2        0.0920   14.2480   10.3770 C.3    85  VAL85       0.0020
     24  N         -1.3330   13.6720   14.8460 N.am   86  ALA86      -0.1966
     25  CA        -1.3960   13.0670   16.1770 C.3    86  ALA86       0.1728
     26  C         -2.7680   12.4690   16.4320 C.2    86  ALA86       0.2616
     27  O         -3.7860   13.0050   15.9970 O.2    86  ALA86      -0.2715
     28  CB        -1.0440   14.0950   17.2560 C.3    86  ALA86       0.0334
     29  N         -2.7800   11.3310   17.1160 N.am   87  VAL87      -0.1977
     30  CA        -4.0080   10.7270   17.6030 C.3    87  VAL87       0.1596
     31  C         -3.7730   10.3130   19.0590 C.2    87  VAL87       0.2287
     32  O         -2.8030    9.6150   19.3620 O.2    87  VAL87      -0.2864
     33  CB        -4.4160    9.5190   16.7600 C.3    87  VAL87       0.0276
     34  CG1       -5.4510    8.6780   17.4930 C.3    87  VAL87       0.0022
     35  CG2       -4.9510    9.9760   15.3910 C.3    87  VAL87       0.0022
     36  N         -6.1900    5.3680   19.6590 N.3    92  ARG92      -0.1231
     37  CA        -5.3420    4.8820   18.5870 C.3    92  ARG92       0.1694
     38  C         -5.8460    3.5690   17.9900 C.2    92  ARG92       0.2591
     39  O         -6.6110    2.8360   18.6210 O.2    92  ARG92      -0.2718
     40  CB        -3.9090    4.7270   19.0930 C.3    92  ARG92       0.0321
     41  CG        -3.7710    3.6610   20.1590 C.3    92  ARG92       0.0489
     42  CD        -2.4120    3.7100   20.8370 C.3    92  ARG92       0.2205
     43  NE        -1.3210    3.2300   19.9930 N.pl3  92  ARG92      -0.0865
     44  CZ        -0.9910    1.9480   19.8530 C.cat  92  ARG92       0.5346
     45  NH1        0.0250    1.6010   19.0740 N.pl3  92  ARG92       0.1354
     46  NH2       -1.6850    1.0090   20.4860 N.pl3  92  ARG92       0.1354
     47  N         -5.4190    3.2920   16.7630 N.am   93  ARG93      -0.1980
     48  CA        -5.7910    2.0660   16.0610 C.3    93  ARG93       0.1597
     49  C         -7.3060    1.8250   16.0520 C.2    93  ARG93       0.2287
     50  O         -7.7780    0.6900   16.1990 O.2    93  ARG93      -0.2864
     51  CB        -5.0430    0.8620   16.6370 C.3    93  ARG93       0.0334
     52  CG        -3.5350    1.0330   16.6550 C.3    93  ARG93       0.0492
     53  CD        -2.9760    1.3500   15.2660 C.3    93  ARG93       0.2205
     54  NE        -1.5170    1.3310   15.2680 N.pl3  93  ARG93      -0.0865
     55  CZ        -0.7700    2.3230   15.7360 C.cat  93  ARG93       0.5346
     56  NH1       -1.3460    3.4170   16.2110 N.pl3  93  ARG93       0.1354
     57  NH2        0.5490    2.2260   15.7200 N.pl3  93  ARG93       0.1354
     58  N         -8.8770    3.7690   13.4820 N.3    95  GLY95      -0.1210
     59  CA        -9.1120    4.3130   12.1540 C.3    95  GLY95       0.1956
     60  C         -9.1790    5.8320   12.1250 C.2    95  GLY95       0.2612
     61  O         -9.5680    6.4340   11.1120 O.2    95  GLY95      -0.2717
     62  N         -8.7800    6.4600   13.2250 N.am   96  VAL96      -0.1965
     63  CA        -8.8340    7.9180   13.3300 C.3    96  VAL96       0.1727
     64  C         -7.9210    8.6200   12.3180 C.2    96  VAL96       0.2616
     65  O         -8.3490    9.5580   11.6320 O.2    96  VAL96      -0.2715
     66  CB        -8.5250    8.4010   14.7660 C.3    96  VAL96       0.0290
     67  CG1       -8.4560    9.9180   14.8250 C.3    96  VAL96       0.0023
     68  CG2       -9.5890    7.9000   15.7260 C.3    96  VAL96       0.0023
     69  N         -6.6660    8.1810   12.2230 N.am   97  LEU97      -0.1963
     70  CA        -5.7630    8.7730   11.2450 C.3    97  LEU97       0.1728
     71  C         -6.3220    8.5910    9.8280 C.2    97  LEU97       0.2616
     72  O         -6.3430    9.5310    9.0380 O.2    97  LEU97      -0.2715
     73  CB        -4.3600    8.1670   11.3350 C.3    97  LEU97       0.0311
     74  CG        -3.4740    8.5490   10.1350 C.3    97  LEU97       0.0022
     75  CD1       -3.1750   10.0450   10.1490 C.3    97  LEU97       0.0001
     76  CD2       -2.1850    7.7530   10.0890 C.3    97  LEU97       0.0001
     77  N         -6.7660    7.3790    9.5080 N.am   98  ARG98      -0.1977
     78  CA        -7.2840    7.0890    8.1710 C.3    98  ARG98       0.1597
     79  C         -8.3720    8.0930    7.8140 C.2    98  ARG98       0.2287
     80  O         -8.3660    8.6610    6.7290 O.2    98  ARG98      -0.2864
     81  CB        -7.8210    5.6620    8.0690 C.3    98  ARG98       0.0334
     82  CG        -8.3130    5.2950    6.6680 C.3    98  ARG98       0.0492
     83  CD        -8.6190    3.8080    6.5230 C.3    98  ARG98       0.2205
     84  NE        -7.4190    2.9690    6.5890 N.pl3  98  ARG98      -0.0865
     85  CZ        -6.5300    2.8350    5.6010 C.cat  98  ARG98       0.5346
     86  NH1       -6.6820    3.4900    4.4480 N.pl3  98  ARG98       0.1354
     87  NH2       -5.4740    2.0460    5.7650 N.pl3  98  ARG98       0.1354
     88  N          6.1570   14.7180    3.5240 N.3   118  LEU118     -0.1231
     89  CA         6.2720   14.6810    4.9800 C.3   118  LEU118      0.1693
     90  C          7.5870   14.0510    5.4270 C.2   118  LEU118      0.2592
     91  O          8.2970   13.4490    4.6200 O.2   118  LEU118     -0.2718
     92  CB         5.0770   13.9360    5.5860 C.3   118  LEU118      0.0284
     93  CG         4.8050   12.4980    5.1370 C.3   118  LEU118      0.0019
     94  CD1        5.7490   11.5030    5.8320 C.3   118  LEU118      0.0001
     95  CD2        3.3620   12.1430    5.4190 C.3   118  LEU118      0.0001
     96  N          7.9150   14.2190    6.7080 N.am  119  THR119     -0.1953
     97  CA         8.9300   13.3860    7.3570 C.3   119  THR119      0.1897
     98  C          8.1870   12.5190    8.3860 C.2   119  THR119      0.2313
     99  O          7.2010   12.9570    8.9690 O.2   119  THR119     -0.2863
    100  CB        10.0300   14.2260    8.0460 C.3   119  THR119      0.1794
    101  OG1        9.4590   14.9560    9.1360 O.3   119  THR119     -0.2208
    102  CG2       10.6680   15.1990    7.0560 C.3   119  THR119      0.0378
    103  N          7.6800    9.9340   11.7610 N.3   121  SER121     -0.1202
    104  CA         8.1350    9.5610   13.0900 C.3   121  SER121      0.2020
    105  C          8.4550    8.0720   13.1150 C.2   121  SER121      0.2618
    106  O          9.3610    7.6490   13.8270 O.2   121  SER121     -0.2717
    107  CB         7.0620    9.8820   14.1330 C.3   121  SER121      0.2103
    108  OG         5.8960    9.1100   13.8940 O.3   121  SER121     -0.2182
    109  N          7.7180    7.2810   12.3310 N.am  122  GLU122     -0.1979
    110  CA         8.0050    5.8480   12.2000 C.3   122  GLU122      0.1602
    111  C          7.9580    5.3960   10.7470 C.2   122  GLU122      0.2287
    112  O          7.2250    5.9680    9.9420 O.2   122  GLU122     -0.2864
    113  CB         7.0380    5.0140   13.0410 C.3   122  GLU122      0.0415
    114  CG         7.0130    5.3900   14.5310 C.3   122  GLU122      0.1163
    115  CD         6.3230    4.3210   15.3690 C.2   122  GLU122      0.3649
    116  OE1        6.9780    3.3150   15.7130 O.co2 122  GLU122     -0.2457
    117  OE2        5.1220    4.4710   15.6590 O.co2 122  GLU122     -0.2457
    118  N          6.8050    2.7030    9.3160 N.3   124  GLY124     -0.1210
    119  CA         5.7580    1.8010    8.8660 C.3   124  GLY124      0.1956
    120  C          4.3730    2.3880    8.6260 C.2   124  GLY124      0.2612
    121  O          3.4350    1.6470    8.3280 O.2   124  GLY124     -0.2717
    122  N          4.2350    3.7070    8.7360 N.am  125  ILE125     -0.1965
    123  CA         2.9090    4.3200    8.6980 C.3   125  ILE125      0.1727
    124  C          2.4370    4.6460    7.2790 C.2   125  ILE125      0.2616
    125  O          1.3450    4.2510    6.8660 O.2   125  ILE125     -0.2715
    126  CB         2.8640    5.6220    9.5170 C.3   125  ILE125      0.0290
    127  CG1        3.5000    5.4260   10.8950 C.3   125  ILE125      0.0022
    128  CG2        1.4340    6.1050    9.6710 C.3   125  ILE125      0.0023
    129  CD1        3.7650    6.7260   11.6160 C.3   125  ILE125      0.0001
    130  N          3.2710    5.3500    6.5220 N.am  126  TYR126     -0.1974
    131  CA         2.7590    6.0810    5.3660 C.3   126  TYR126      0.1639
    132  C          2.7960    5.4110    3.9970 C.2   126  TYR126      0.2290
    133  O          2.1570    5.9110    3.0660 O.2   126  TYR126     -0.2864
    134  CB         3.3790    7.4670    5.3090 C.3   126  TYR126      0.0560
    135  CG         3.0770    8.2590    6.5550 C.ar  126  TYR126     -0.0198
    136  CD1        1.7790    8.6680    6.8440 C.ar  126  TYR126     -0.0009
    137  CD2        4.0780    8.5850    7.4500 C.ar  126  TYR126     -0.0009
    138  CE1        1.4940    9.3900    7.9810 C.ar  126  TYR126      0.0417
    139  CE2        3.8060    9.3030    8.5880 C.ar  126  TYR126      0.0417
    140  CZ         2.5110    9.7100    8.8530 C.ar  126  TYR126      0.1957
    141  OH         2.2330   10.4350   10.0010 O.3   126  TYR126     -0.2866
    142  N          1.2350    2.8920    3.1250 N.3   128  ARG128     -0.1231
    143  CA        -0.1420    2.4900    2.8250 C.3   128  ARG128      0.1694
    144  C         -0.9880    3.6500    2.3330 C.2   128  ARG128      0.2592
    145  O         -2.0360    3.4430    1.7320 O.2   128  ARG128     -0.2718
    146  CB        -0.8130    1.8950    4.0690 C.3   128  ARG128      0.0321
    147  CG        -0.9530    2.8880    5.2200 C.3   128  ARG128      0.0489
    148  CD        -1.7290    2.3010    6.3920 C.3   128  ARG128      0.2205
    149  NE        -1.2680    0.9550    6.7230 N.pl3 128  ARG128     -0.0865
    150  CZ        -0.2060    0.6940    7.4790 C.cat 128  ARG128      0.5346
    151  NH1        0.5050    1.6920    7.9850 N.pl3 128  ARG128      0.1354
    152  NH2        0.1430   -0.5630    7.7270 N.pl3 128  ARG128      0.1354
    153  N         -0.5530    4.8700    2.6250 N.am  129  PHE129     -0.1976
    154  CA        -1.2710    6.0550    2.1750 C.3   129  PHE129      0.1639
    155  C         -0.6870    6.6280    0.8940 C.2   129  PHE129      0.2290
    156  O         -1.0740    7.7040    0.4560 O.2   129  PHE129     -0.2864
    157  CB        -1.3010    7.1190    3.2670 C.3   129  PHE129      0.0560
    158  CG        -2.1530    6.7460    4.4310 C.ar  129  PHE129     -0.0200
    159  CD1       -3.5380    6.8080    4.3390 C.ar  129  PHE129     -0.0042
    160  CD2       -1.5730    6.3080    5.6220 C.ar  129  PHE129     -0.0042
    161  CE1       -4.3430    6.4520    5.4250 C.ar  129  PHE129     -0.0003
    162  CE2       -2.3670    5.9460    6.7120 C.ar  129  PHE129     -0.0003
    163  CZ        -3.7530    6.0150    6.6140 C.ar  129  PHE129     -0.0000
@<TRIPOS>BOND
     1   156   155    2
     2   155   154    1
     3   145   144    2
     4   154   153    1
     5   154   157    1
     6   144   153   am
     7   144   143    1
     8   143   142    1
     9   143   146    1
    10   133   132    2
    11   157   158    1
    12    88    89    1
    13   132   131    1
    14   146   147    1
    15   159   158   ar
    16   159   161   ar
    17   158   160   ar
    18    86    85    1
    19    91    90    2
    20    89    90    1
    21    89    92    1
    22    93    95    1
    23    93    92    1
    24    93    94    1
    25   147   148    1
    26   134   131    1
    27   134   135    1
    28   131   130    1
    29   161   163   ar
    30    90    96   am
    31    85    87    1
    32    85    84    2
    33   160   162   ar
    34   148   149    1
    35   130   124   am
    36    83    84    1
    37    83    82    1
    38   135   136   ar
    39   135   137   ar
    40   163   162   ar
    41    82    81    1
    42    96    97    1
    43   149   150    2
    44    80    79    2
    45   136   138   ar
    46   125   124    2
    47   102   100    1
    48   124   123    1
    49    97   100    1
    50    97    98    1
    51   137   139   ar
    52   150   152    1
    53   150   151    1
    54    79    78    1
    55   138   140   ar
    56   100   101    1
    57    81    78    1
    58    78    77    1
    59   121   120    2
    60    98    99    2
    61   139   140   ar
    62   120   122   am
    63   120   119    1
    64   123   122    1
    65   123   126    1
    66   140   141    1
    67   119   118    1
    68    72    71    2
    69    77    71   am
    70   126   128    1
    71   126   127    1
    72    71    70    1
    73   112   111    2
    74    76    74    1
    75    74    75    1
    76    74    73    1
    77    23    21    1
    78   111   110    1
    79   127   129    1
    80    61    60    2
    81    70    73    1
    82    70    69    1
    83    65    64    2
    84   103   104    1
    85    21    22    1
    86    21    18    1
    87    60    59    1
    88    60    62   am
    89    59    58    1
    90   110   109    1
    91   110   113    1
    92    69    64   am
    93    64    63    1
    94   109   105   am
    95    18    17    1
    96    18    19    1
    97   113   114    1
    98   104   105    1
    99   104   107    1
   100   105   106    2
   101    62    63    1
   102    63    66    1
   103   108   107    1
   104    19    20    2
   105    19    24   am
   106   114   115    1
   107    66    67    1
   108    66    68    1
   109    24    25    1
   110    53    54    1
   111    53    52    1
   112    54    55    2
   113   115   117   ar
   114   115   116   ar
   115    35    33    1
   116    57    55    1
   117    55    56    1
   118    16    15   ar
   119    16    14   ar
   120    27    26    2
   121    49    48    1
   122    49    50    2
   123    48    51    1
   124    48    47    1
   125    25    26    1
   126    25    28    1
   127    15    13   ar
   128    26    29   am
   129    51    52    1
   130    14    12   ar
   131    33    34    1
   132    33    30    1
   133    47    38   am
   134    29    30    1
   135    30    31    1
   136    13    11   ar
   137    38    37    1
   138    38    39    2
   139    12    11   ar
   140    11    10    1
   141    37    40    1
   142    37    36    1
   143    31    32    2
   144    45    44    1
   145    40    41    1
   146    44    43    2
   147    44    46    1
   148    43    42    1
   149    10     7    1
   150     5     2    1
   151    41    42    1
   152     7     6    1
   153     7     8    1
   154     4     3    2
   155     6     3   am
   156     3     2    1
   157     2     1    1
   158     9     8    2
