@<TRIPOS>MOLECULE
tmp/3sxrA00.pdb
 158 150 0 0 0
SMALL
GASTEIGER

@<TRIPOS>ATOM
      1  N          2.1050   -5.6780   26.2930 N.3    16  LEU16      -0.1231
      2  CA         3.4970   -6.0190   26.5860 C.3    16  LEU16       0.1693
      3  C          3.9370   -5.3040   27.8530 C.2    16  LEU16       0.2592
      4  O          4.5240   -5.9220   28.7390 O.2    16  LEU16      -0.2718
      5  CB         4.4220   -5.6510   25.4120 C.3    16  LEU16       0.0284
      6  CG         4.3490   -6.5210   24.1630 C.3    16  LEU16       0.0019
      7  CD1        5.1260   -5.8850   23.0340 C.3    16  LEU16       0.0001
      8  CD2        4.8660   -7.9180   24.4240 C.3    16  LEU16       0.0001
      9  N          3.6400   -4.0160   27.9210 N.am   17  GLY17      -0.1957
     10  CA         3.9620   -3.1600   29.0550 C.3    17  GLY17       0.1869
     11  C          3.0280   -1.9700   29.1690 C.2    17  GLY17       0.2309
     12  O          2.1280   -1.8040   28.3330 O.2    17  GLY17      -0.2863
     13  N          2.0330   -0.4760   25.8410 N.3    20  VAL20      -0.1245
     14  CA         2.6690   -1.0260   24.6400 C.3    20  VAL20       0.1561
     15  C          1.9950   -2.3840   24.3830 C.2    20  VAL20       0.2260
     16  O          1.7600   -3.1460   25.3270 O.2    20  VAL20      -0.2867
     17  CB         4.2130   -1.1400   24.7400 C.3    20  VAL20       0.0252
     18  CG1        4.8120   -1.6840   23.4410 C.3    20  VAL20       0.0019
     19  CG2        4.8360    0.2100   25.0930 C.3    20  VAL20       0.0019
     20  N          5.6050   -3.9600   17.8070 N.3    32  ALA32      -0.1231
     21  CA         5.2700   -3.4540   19.1300 C.3    32  ALA32       0.1694
     22  C          4.5620   -2.1460   18.8040 C.2    32  ALA32       0.2592
     23  O          4.9680   -1.4590   17.8740 O.2    32  ALA32      -0.2718
     24  CB         6.5210   -3.2080   19.9590 C.3    32  ALA32       0.0304
     25  N          3.4640   -1.8590   19.4840 N.am   33  VAL33      -0.1966
     26  CA         2.6190   -0.6850   19.2220 C.3    33  VAL33       0.1727
     27  C          2.3930    0.1010   20.5130 C.2    33  VAL33       0.2616
     28  O          1.7480   -0.3970   21.4460 O.2    33  VAL33      -0.2715
     29  CB         1.2520   -1.0920   18.5950 C.3    33  VAL33       0.0290
     30  CG1        0.4890    0.1410   18.1180 C.3    33  VAL33       0.0023
     31  CG2        1.4170   -2.1010   17.4580 C.3    33  VAL33       0.0023
     32  N          2.9470    1.3230   20.5730 N.am   34  LYS34      -0.1977
     33  CA         2.7860    2.1960   21.7290 C.3    34  LYS34       0.1596
     34  C          1.5310    3.0370   21.5140 C.2    34  LYS34       0.2287
     35  O          1.3560    3.6640   20.4510 O.2    34  LYS34      -0.2864
     36  CB         4.0240    3.0810   21.9210 C.3    34  LYS34       0.0298
     37  CG         4.0900    3.7510   23.2800 C.3    34  LYS34       0.0038
     38  CD         5.2840    4.6800   23.4040 C.3    34  LYS34       0.0206
     39  CE         5.3870    5.2180   24.8100 C.3    34  LYS34       0.1093
     40  NZ         6.5320    6.1390   24.9290 N.3    34  LYS34      -0.1314
     41  N         13.2010    9.6270   15.7790 N.3    53  MET53      -0.1245
     42  CA        13.3900    8.1860   15.9330 C.3    53  MET53       0.1570
     43  C         13.5960    7.5190   14.5650 C.2    53  MET53       0.2261
     44  O         14.4830    6.6790   14.4370 O.2    53  MET53      -0.2867
     45  CB        12.2210    7.5510   16.7030 C.3    53  MET53       0.0387
     46  CG        12.5470    6.1560   17.1770 C.3    53  MET53       0.0595
     47  SD        11.1400    5.2830   17.8660 S.3    53  MET53      -0.1393
     48  CE        11.9470    3.7120   18.3110 C.3    53  MET53       0.0692
     49  N         16.3700    0.7820   18.4650 N.3    62  VAL62      -0.1245
     50  CA        15.0420    0.2320   18.1750 C.3    62  VAL62       0.1561
     51  C         14.5230    0.7810   16.8210 C.2    62  VAL62       0.2260
     52  O         14.4890    1.9960   16.6220 O.2    62  VAL62      -0.2867
     53  CB        14.0340    0.4340   19.3380 C.3    62  VAL62       0.0252
     54  CG1       12.6380   -0.0630   18.9360 C.3    62  VAL62       0.0019
     55  CG2       14.5170   -0.2890   20.5880 C.3    62  VAL62       0.0019
     56  N          2.4510    4.3310   17.6520 N.3    76  ILE76      -0.1245
     57  CA         3.8640    4.4480   17.2850 C.3    76  ILE76       0.1561
     58  C          4.2140    2.9820   17.1230 C.2    76  ILE76       0.2260
     59  O          4.0490    2.2100   18.0760 O.2    76  ILE76      -0.2867
     60  CB         4.8180    5.1330   18.2910 C.3    76  ILE76       0.0252
     61  CG1        4.3000    6.4930   18.6890 C.3    76  ILE76       0.0019
     62  CG2        6.2540    5.2480   17.6890 C.3    76  ILE76       0.0019
     63  CD1        4.8410    6.9400   19.9810 C.3    76  ILE76       0.0001
     64  N          6.9180   -0.0340   16.0860 N.3    78  THR78      -0.1203
     65  CA         8.3300   -0.4280   15.9450 C.3    78  THR78       0.1994
     66  C          8.4150   -1.9220   15.7150 C.2    78  THR78       0.2618
     67  O          7.4070   -2.6320   15.8050 O.2    78  THR78      -0.2717
     68  CB         9.1750   -0.0350   17.1900 C.3    78  THR78       0.1784
     69  OG1        8.8280   -0.8680   18.3040 O.3    78  THR78      -0.2211
     70  CG2        9.0700    1.4510   17.5430 C.3    78  THR78       0.0376
     71  N          9.6400   -2.4090   15.5140 N.am   79  GLU79      -0.1965
     72  CA         9.9490   -3.8400   15.4330 C.3    79  GLU79       0.1733
     73  C          9.6030   -4.4640   16.7900 C.2    79  GLU79       0.2616
     74  O          9.6110   -3.7580   17.8130 O.2    79  GLU79      -0.2715
     75  CB        11.4580   -4.0200   15.1580 C.3    79  GLU79       0.0429
     76  CG        12.3640   -3.3720   16.2080 C.3    79  GLU79       0.1163
     77  CD        13.8540   -3.5920   16.0350 C.2    79  GLU79       0.3649
     78  OE1       14.6330   -2.6860   16.4040 O.co2  79  GLU79      -0.2457
     79  OE2       14.2540   -4.6720   15.5500 O.co2  79  GLU79      -0.2457
     80  N          9.3150   -5.7710   16.8100 N.am   80  TYR80      -0.1960
     81  CA         9.0560   -6.4340   18.0890 C.3    80  TYR80       0.1771
     82  C         10.3360   -7.1310   18.5200 C.2    80  TYR80       0.2619
     83  O         10.8700   -7.9610   17.7840 O.2    80  TYR80      -0.2715
     84  CB         7.8900   -7.4250   17.9970 C.3    80  TYR80       0.0574
     85  CG         7.7630   -8.2960   19.2240 C.ar   80  TYR80      -0.0198
     86  CD1        7.4310   -7.7460   20.4640 C.ar   80  TYR80      -0.0009
     87  CD2        7.9970   -9.6680   19.1580 C.ar   80  TYR80      -0.0009
     88  CE1        7.3280   -8.5410   21.6050 C.ar   80  TYR80       0.0417
     89  CE2        7.8770  -10.4780   20.2930 C.ar   80  TYR80       0.0417
     90  CZ         7.5440   -9.9070   21.5130 C.ar   80  TYR80       0.1957
     91  OH         7.3940  -10.6850   22.6330 O.3    80  TYR80      -0.2866
     92  N         10.8560   -6.7580   19.6820 N.am   81  ILE81      -0.1963
     93  CA        12.0940   -7.3150   20.2190 C.3    81  ILE81       0.1727
     94  C         11.6840   -8.3450   21.2580 C.2    81  ILE81       0.2617
     95  O         11.1080   -7.9860   22.2810 O.2    81  ILE81      -0.2715
     96  CB        13.0460   -6.2020   20.6840 C.3    81  ILE81       0.0290
     97  CG1       13.2070   -5.1360   19.5430 C.3    81  ILE81       0.0022
     98  CG2       14.3980   -6.7770   21.0560 C.3    81  ILE81       0.0023
     99  CD1       13.9650   -3.8490   19.8690 C.3    81  ILE81       0.0001
    100  N         11.8810   -9.6500   20.9110 N.am   82  SER82      -0.1936
    101  CA        11.4200  -10.8410   21.6450 C.3    82  SER82       0.2055
    102  C         11.7460  -11.0390   23.1060 C.2    82  SER82       0.2643
    103  O         10.8920  -11.5430   23.8260 O.2    82  SER82      -0.2714
    104  CB        11.6510  -12.1290   20.8620 C.3    82  SER82       0.2130
    105  OG        13.0200  -12.4410   20.6770 O.3    82  SER82      -0.2179
    106  N         12.9490  -10.6860   23.5550 N.am   83  ASN83      -0.1957
    107  CA        13.3110  -10.9200   24.9520 C.3    83  ASN83       0.1819
    108  C         12.9810   -9.8220   25.9470 C.2    83  ASN83       0.2622
    109  O         13.2820   -9.9490   27.1450 O.2    83  ASN83      -0.2715
    110  CB        14.7440  -11.4270   25.0690 C.3    83  ASN83       0.1195
    111  CG        14.8450  -12.9050   24.8340 C.2    83  ASN83       0.2630
    112  OD1       14.0580  -13.6820   25.3690 O.2    83  ASN83      -0.2716
    113  ND2       15.8350  -13.3200   24.0630 N.am   83  ASN83      -0.0877
    114  N         12.3040   -8.7850   25.4720 N.am   84  GLY84      -0.1940
    115  CA        11.8900   -7.6860   26.3250 C.3    84  GLY84       0.2014
    116  C         13.0130   -6.8460   26.8990 C.2    84  GLY84       0.2639
    117  O         14.1300   -6.8010   26.3840 O.2    84  GLY84      -0.2714
    118  N         12.6810   -6.1740   27.9830 N.am   85  CYS85      -0.1967
    119  CA        13.5090   -5.2610   28.7460 C.3    85  CYS85       0.1712
    120  C         14.7750   -5.9300   29.2780 C.2    85  CYS85       0.2296
    121  O         14.7010   -6.9970   29.9170 O.2    85  CYS85      -0.2864
    122  CB        12.6720   -4.6690   29.8730 C.3    85  CYS85       0.0983
    123  SG        13.5640   -3.4970   30.9030 S.3    85  CYS85      -0.0798
    124  N         17.3020  -14.0550   34.0870 N.3    93  HIS93      -0.1241
    125  CA        18.1670  -15.0380   33.4640 C.3    93  HIS93       0.1621
    126  C         19.6390  -14.7680   33.5070 C.2    93  HIS93       0.2264
    127  O         20.3950  -15.6130   33.0370 O.2    93  HIS93      -0.2867
    128  CB        17.7410  -15.2200   31.9790 C.3    93  HIS93       0.0745
    129  CG        16.2720  -15.4030   31.7880 C.ar   93  HIS93       0.0817
    130  ND1       15.6270  -16.5430   32.2230 N.ar   93  HIS93      -0.2268
    131  CD2       15.3620  -14.5560   31.2510 C.ar   93  HIS93       0.1154
    132  CE1       14.3440  -16.3410   31.9650 C.ar   93  HIS93       0.1986
    133  NE2       14.1390  -15.1640   31.3620 N.ar   93  HIS93      -0.2212
    134  N         16.3910   -3.1140   25.0940 N.3   132  LEU132     -0.1245
    135  CA        15.5950   -4.3050   24.7720 C.3   132  LEU132      0.1561
    136  C         16.5190   -5.3920   24.2520 C.2   132  LEU132      0.2260
    137  O         17.5500   -5.0870   23.6400 O.2   132  LEU132     -0.2867
    138  CB        14.4800   -3.9760   23.7600 C.3   132  LEU132      0.0270
    139  CG        13.3010   -3.1290   24.2910 C.3   132  LEU132      0.0019
    140  CD1       12.7040   -2.3120   23.1940 C.3   132  LEU132      0.0001
    141  CD2       12.1760   -4.0080   24.8610 C.3   132  LEU132      0.0001
    142  N         16.4190    2.0980   23.0890 N.3   142  SER142     -0.1217
    143  CA        15.2490    2.9090   22.7290 C.3   142  SER142      0.1889
    144  C         15.6100    4.4040   22.9830 C.2   142  SER142      0.2288
    145  O         15.9860    4.8020   24.0880 O.2   142  SER142     -0.2866
    146  CB        14.0240    2.5110   23.5420 C.3   142  SER142      0.2089
    147  OG        12.9710    3.4300   23.2780 O.3   142  SER142     -0.2183
    148  N         13.4410    6.9000   21.7900 N.3   144  PHE144     -0.1241
    149  CA        12.1640    7.5990   21.7040 C.3   144  PHE144      0.1605
    150  C         11.8820    8.5860   22.8080 C.2   144  PHE144      0.2264
    151  O         11.6970    8.1860   23.9550 O.2   144  PHE144     -0.2867
    152  CB        10.9800    6.6580   21.5050 C.3   144  PHE144      0.0534
    153  CG         9.7000    7.4200   21.3060 C.ar  144  PHE144     -0.0203
    154  CD1        9.4400    8.0710   20.1050 C.ar  144  PHE144     -0.0042
    155  CD2        8.7700    7.5270   22.3360 C.ar  144  PHE144     -0.0042
    156  CE1        8.2720    8.7990   19.9320 C.ar  144  PHE144     -0.0003
    157  CE2        7.5990    8.2680   22.1630 C.ar  144  PHE144     -0.0003
    158  CZ         7.3690    8.9130   20.9680 C.ar  144  PHE144     -0.0000
@<TRIPOS>BOND
     1    44    43    2
     2    43    42    1
     3    75    72    1
     4    75    76    1
     5    72    71    1
     6    72    73    1
     7    71    66   am
     8    79    77   ar
     9    66    67    2
    10    66    65    1
    11    41    42    1
    12    42    45    1
    13    65    64    1
    14    65    68    1
    15    77    76    1
    16    77    78   ar
    17    52    51    2
    18    45    46    1
    19    73    80   am
    20    73    74    2
    21    80    81    1
    22    51    50    1
    23    58    57    1
    24    58    59    2
    25    46    47    1
    26    68    70    1
    27    68    69    1
    28    57    56    1
    29    57    60    1
    30    31    29    1
    31    62    60    1
    32    83    82    2
    33    20    21    1
    34    47    48    1
    35    23    22    2
    36    84    81    1
    37    84    85    1
    38    81    82    1
    39    30    29    1
    40    50    49    1
    41    50    53    1
    42    60    61    1
    43    82    92   am
    44    29    26    1
    45    61    63    1
    46    22    21    1
    47    22    25   am
    48    54    53    1
    49    21    24    1
    50    87    85   ar
    51    87    89   ar
    52    26    25    1
    53    26    27    1
    54    85    86   ar
    55    53    55    1
    56    97    99    1
    57    97    96    1
    58    92    93    1
    59   156   154   ar
    60   156   158   ar
    61   154   153   ar
    62    93    96    1
    63    93    94    1
    64    89    90   ar
    65    35    34    2
    66    86    88   ar
    67    27    32   am
    68    27    28    2
    69    32    33    1
    70   105   104    1
    71    96    98    1
    72   104   101    1
    73   100    94   am
    74   100   101    1
    75   158   157   ar
    76    94    95    2
    77   153   152    1
    78   153   155   ar
    79   152   149    1
    80    90    88   ar
    81    90    91    1
    82    34    33    1
    83   101   102    1
    84   149   148    1
    85   149   150    1
    86    33    36    1
    87    36    37    1
    88   157   155   ar
    89   143   144    1
    90   143   142    1
    91   143   146    1
    92   150   151    2
    93   144   145    2
    94     7     6    1
    95   102   106   am
    96   102   103    2
    97   140   139    1
    98   147   146    1
    99    37    38    1
   100    38    39    1
   101    18    17    1
   102   106   107    1
   103   137   136    2
   104   138   139    1
   105   138   135    1
   106   113   111   am
   107     6     8    1
   108     6     5    1
   109   136   135    1
   110   139   141    1
   111    15    14    1
   112    15    16    2
   113    14    17    1
   114    14    13    1
   115    17    19    1
   116   135   134    1
   117    39    40    1
   118   111   110    1
   119   111   112    2
   120   107   110    1
   121   107   108    1
   122     5     2    1
   123   114   108   am
   124   114   115    1
   125   108   109    2
   126     1     2    1
   127   115   116    1
   128   117   116    2
   129     2     3    1
   130   116   118   am
   131     3     9   am
   132     3     4    2
   133     9    10    1
   134   118   119    1
   135    12    11    2
   136   119   120    1
   137   119   122    1
   138    10    11    1
   139   120   121    2
   140   122   123    1
   141   131   133   ar
   142   131   129   ar
   143   133   132   ar
   144   129   128    1
   145   129   130   ar
   146   132   130   ar
   147   128   125    1
   148   127   126    2
   149   125   126    1
   150   125   124    1
