@<TRIPOS>MOLECULE
tmp/3sxsA00.pdb
 146 136 0 0 0
SMALL
GASTEIGER

@<TRIPOS>ATOM
      1  N         25.1690   20.2470   23.7430 N.3    16  LEU16      -0.1231
      2  CA        24.3280   21.3080   23.1860 C.3    16  LEU16       0.1693
      3  C         22.9580   21.2900   23.8460 C.2    16  LEU16       0.2593
      4  O         22.3150   22.3280   24.0010 O.2    16  LEU16      -0.2718
      5  CB        24.1710   21.1430   21.6630 C.3    16  LEU16       0.0284
      6  CG        25.3900   21.4840   20.8170 C.3    16  LEU16       0.0019
      7  CD1       25.2170   20.9900   19.4000 C.3    16  LEU16       0.0001
      8  CD2       25.7380   22.9730   20.8790 C.3    16  LEU16       0.0001
      9  N         22.5170   20.0950   24.1960 N.am   17  GLY17      -0.1942
     10  CA        21.2330   19.8690   24.8310 C.3    17  GLY17       0.2014
     11  C         20.8040   18.4480   24.6110 C.2    17  GLY17       0.2640
     12  O         21.6230   17.5770   24.3030 O.2    17  GLY17      -0.2714
     13  N         19.5260   18.2040   24.7940 N.am   18  SER18      -0.1935
     14  CA        18.9800   16.8780   24.5930 C.3    18  SER18       0.2055
     15  C         17.7090   16.9850   23.7920 C.2    18  SER18       0.2644
     16  O         17.0720   18.0360   23.7130 O.2    18  SER18      -0.2714
     17  CB        18.7040   16.1840   25.9250 C.3    18  SER18       0.2130
     18  OG        19.5440   16.6620   26.9630 O.3    18  SER18      -0.2179
     19  N         17.3680   15.8790   23.1920 N.am   19  GLY19      -0.1939
     20  CA        16.1460   15.7260   22.4330 C.3    19  GLY19       0.2014
     21  C         15.9020   14.2480   22.3830 C.2    19  GLY19       0.2638
     22  O         16.4010   13.5090   23.2430 O.2    19  GLY19      -0.2714
     23  N         15.1660   13.8150   21.3590 N.am   20  GLN20      -0.1977
     24  CA        14.8870   12.4150   21.0910 C.3    20  GLN20       0.1601
     25  C         14.7150   11.5560   22.4090 C.2    20  GLN20       0.2287
     26  O         13.9650   12.0350   23.2680 O.2    20  GLN20      -0.2864
     27  CB        15.8990   11.9380   20.0530 C.3    20  GLN20       0.0394
     28  CG        15.3920   12.0350   18.6160 C.3    20  GLN20       0.0908
     29  CD        15.5050   13.3850   17.9830 C.2    20  GLN20       0.2608
     30  OE1       15.8760   14.3800   18.6140 O.2    20  GLN20      -0.2717
     31  NE2       15.1950   13.4430   16.7050 N.am   20  GLN20      -0.0878
     32  N         22.7830   15.5390   22.7970 N.3    24  VAL24      -0.1245
     33  CA        23.4150   16.0180   21.5700 C.3    24  VAL24       0.1561
     34  C         24.6420   16.8010   21.9640 C.2    24  VAL24       0.2260
     35  O         24.5760   17.6660   22.8230 O.2    24  VAL24      -0.2867
     36  CB        22.4350   16.8520   20.7150 C.3    24  VAL24       0.0252
     37  CG1       23.1360   17.5060   19.5200 C.3    24  VAL24       0.0019
     38  CG2       21.2600   15.9960   20.2440 C.3    24  VAL24       0.0019
     39  N         26.7380   18.1030   14.8990 N.3    36  ALA36      -0.1245
     40  CA        25.9710   17.8740   16.1130 C.3    36  ALA36       0.1562
     41  C         25.8270   16.3650   16.1510 C.2    36  ALA36       0.2260
     42  O         25.4610   15.7540   15.1430 O.2    36  ALA36      -0.2867
     43  CB        24.6050   18.5360   16.0100 C.3    36  ALA36       0.0290
     44  N         24.2370   13.0430   17.9800 N.3    38  LYS38      -0.1245
     45  CA        23.3000   12.4910   18.9500 C.3    38  LYS38       0.1561
     46  C         23.8770   11.1470   19.4560 C.2    38  LYS38       0.2260
     47  O         24.3110   10.3150   18.6540 O.2    38  LYS38      -0.2867
     48  CB        21.9180   12.2840   18.3130 C.3    38  LYS38       0.0271
     49  CG        20.8590   11.7930   19.3110 C.3    38  LYS38       0.0035
     50  CD        19.4500   11.9070   18.7590 C.3    38  LYS38       0.0206
     51  CE        18.9720   13.3500   18.6570 C.3    38  LYS38       0.1093
     52  NZ        18.5450   13.9420   19.9590 N.3    38  LYS38      -0.1314
     53  N         16.7670    8.4770    7.2430 N.3    57  MET57      -0.1245
     54  CA        17.3380    9.8190    7.3460 C.3    57  MET57       0.1570
     55  C         18.3200   10.1120    6.2210 C.2    57  MET57       0.2261
     56  O         18.3980   11.2490    5.7300 O.2    57  MET57      -0.2867
     57  CB        18.0330    9.9660    8.6970 C.3    57  MET57       0.0387
     58  CG        17.7900   11.2800    9.3240 C.3    57  MET57       0.0595
     59  SD        18.7270   11.4290   10.8580 S.3    57  MET57      -0.1393
     60  CE        19.0920   13.2080   10.7970 C.3    57  MET57       0.0692
     61  N         17.1540   18.3830    8.5180 N.3    66  VAL66      -0.1245
     62  CA        18.4770   18.3000    9.1870 C.3    66  VAL66       0.1561
     63  C         19.3260   17.3420    8.3690 C.2    66  VAL66       0.2260
     64  O         18.8670   16.2420    8.0660 O.2    66  VAL66      -0.2867
     65  CB        18.3570   17.7910   10.6610 C.3    66  VAL66       0.0252
     66  CG1       19.7310   17.4760   11.2520 C.3    66  VAL66       0.0019
     67  CG2       17.6340   18.8050   11.5180 C.3    66  VAL66       0.0019
     68  N         25.0360    9.5870   15.9840 N.3    80  ILE80      -0.1245
     69  CA        24.3100    9.9760   14.7800 C.3    80  ILE80       0.1561
     70  C         24.8800   11.3390   14.4750 C.2    80  ILE80       0.2260
     71  O         24.6630   12.2770   15.2380 O.2    80  ILE80      -0.2867
     72  CB        22.7710   10.0850   14.8690 C.3    80  ILE80       0.0252
     73  CG1       22.1570    8.8450   15.4940 C.3    80  ILE80       0.0019
     74  CG2       22.2250   10.3290   13.4550 C.3    80  ILE80       0.0019
     75  CD1       20.8910    9.1490   16.0330 C.3    80  ILE80       0.0001
     76  N         25.2140   14.7470   12.3230 N.3    82  THR82      -0.1203
     77  CA        24.4370   15.6330   11.4540 C.3    82  THR82       0.1994
     78  C         25.1330   16.9670   11.3820 C.2    82  THR82       0.2621
     79  O         26.0230   17.2340   12.1890 O.2    82  THR82      -0.2717
     80  CB        22.9930   15.8380   12.0370 C.3    82  THR82       0.1784
     81  OG1       23.0290   16.6320   13.2320 O.3    82  THR82      -0.2211
     82  CG2       22.2450   14.5140   12.2930 C.3    82  THR82       0.0376
     83  N         24.6570   17.8470   10.5050 N.am   83  GLU83      -0.1919
     84  CA        25.1470   19.2380   10.4230 C.3    83  GLU83       0.1949
     85  C         24.8180   19.9640   11.7320 C.2    83  GLU83       0.2659
     86  O         23.8000   19.6760   12.3460 O.2    83  GLU83      -0.2711
     87  CB        24.4800   19.9720    9.2370 C.2    83  GLU83       0.0111
     88  CG        22.9430   20.0600    9.2950 C.2    83  GLU83       0.0838
     89  CD        22.2530   20.9090    8.2360 C.2    83  GLU83       0.3877
     90  OE1       21.1400   20.5310    7.8030 O.co2  83  GLU83      -0.2406
     91  OE2       22.7860   21.9860    7.8850 O.co2  83  GLU83      -0.2406
     92  N         25.6900   20.8800   12.1750 N.am   84  TYR84      -0.1957
     93  CA        25.4330   21.6900   13.3650 C.3    84  TYR84       0.1771
     94  C         24.5880   22.8950   12.8840 C.2    84  TYR84       0.2619
     95  O         24.9880   23.6100   11.9580 O.2    84  TYR84      -0.2715
     96  CB        26.7680   22.1850   13.9720 C.3    84  TYR84       0.0574
     97  CG        26.5850   23.2060   15.0720 C.ar   84  TYR84      -0.0198
     98  CD1       25.7690   22.9390   16.1710 C.ar   84  TYR84      -0.0009
     99  CD2       27.1890   24.4590   14.9960 C.ar   84  TYR84      -0.0009
    100  CE1       25.5900   23.8770   17.1830 C.ar   84  TYR84       0.0417
    101  CE2       27.0380   25.3950   16.0180 C.ar   84  TYR84       0.0417
    102  CZ        26.2490   25.0930   17.1110 C.ar   84  TYR84       0.1957
    103  OH        26.0610   26.0190   18.1000 O.3    84  TYR84      -0.2866
    104  N         23.4280   23.0870   13.4750 N.am   85  ILE85      -0.1977
    105  CA        22.4740   24.1640   13.1260 C.3    85  ILE85       0.1596
    106  C         22.5450   25.1850   14.2630 C.2    85  ILE85       0.2287
    107  O         21.9760   25.0190   15.3480 O.2    85  ILE85      -0.2864
    108  CB        21.0860   23.5360   12.8340 C.3    85  ILE85       0.0276
    109  CG1       21.2390   22.5350   11.6430 C.3    85  ILE85       0.0022
    110  CG2       20.0940   24.6330   12.4670 C.3    85  ILE85       0.0022
    111  CD1       20.0810   21.6110   11.3680 C.3    85  ILE85       0.0001
    112  N         20.1390   26.6410   17.1310 N.3    88  GLY88      -0.1210
    113  CA        19.4680   25.6180   17.9130 C.3    88  GLY88       0.1956
    114  C         17.9840   25.4550   17.6470 C.2    88  GLY88       0.2612
    115  O         17.4950   25.7290   16.5420 O.2    88  GLY88      -0.2717
    116  N         17.2640   25.0530   18.6940 N.am   89  CYS89      -0.1970
    117  CA        15.8470   24.7280   18.6290 C.3    89  CYS89       0.1712
    118  C         14.9760   25.9350   18.2700 C.2    89  CYS89       0.2296
    119  O         15.1330   26.9930   18.8620 O.2    89  CYS89      -0.2864
    120  CB        15.4040   24.0700   19.9380 C.3    89  CYS89       0.0983
    121  SG        13.6510   23.6200   19.9610 S.3    89  CYS89      -0.0798
    122  N         14.8730   23.2850   13.9080 N.3   136  LEU136     -0.1245
    123  CA        16.1160   23.9630   14.2500 C.3   136  LEU136      0.1561
    124  C         16.2900   25.1740   13.3550 C.2   136  LEU136      0.2260
    125  O         15.7730   25.1950   12.2390 O.2   136  LEU136     -0.2867
    126  CB        17.2840   22.9770   14.0680 C.3   136  LEU136      0.0270
    127  CG        17.2100   21.6760   14.8860 C.3   136  LEU136      0.0019
    128  CD1       18.3170   20.7400   14.4600 C.3   136  LEU136      0.0001
    129  CD2       17.4020   21.9530   16.3660 C.3   136  LEU136      0.0001
    130  N         13.7140   18.4450   12.1380 N.3   146  SER146     -0.1217
    131  CA        14.4910   17.2970   12.6210 C.3   146  SER146      0.1889
    132  C         13.5530   16.0940   12.5830 C.2   146  SER146      0.2288
    133  O         12.4780   16.1270   13.1800 O.2   146  SER146     -0.2866
    134  CB        15.0080   17.5430   14.0340 C.3   146  SER146      0.2089
    135  OG        15.8120   16.4530   14.4630 O.3   146  SER146     -0.2183
    136  N         14.6690   12.5210   12.9160 N.3   148  PHE148     -0.1241
    137  CA        15.1380   11.2500   13.4870 C.3   148  PHE148      0.1605
    138  C         14.1870   10.6450   14.5230 C.2   148  PHE148      0.2264
    139  O         13.8610   11.2850   15.5160 O.2   148  PHE148     -0.2867
    140  CB        16.5630   11.3600   14.0610 C.3   148  PHE148      0.0534
    141  CG        17.0120   10.0780   14.7240 C.ar  148  PHE148     -0.0203
    142  CD1       17.4150    8.9850   13.9620 C.ar  148  PHE148     -0.0042
    143  CD2       17.0050    9.9530   16.1100 C.ar  148  PHE148     -0.0042
    144  CE1       17.8260    7.7940   14.5820 C.ar  148  PHE148     -0.0003
    145  CE2       17.4000    8.7650   16.7210 C.ar  148  PHE148     -0.0003
    146  CZ        17.8030    7.6920   15.9510 C.ar  148  PHE148     -0.0000
@<TRIPOS>BOND
     1    56    55    2
     2    55    54    1
     3    53    54    1
     4    54    57    1
     5    90    89   ar
     6    91    89   ar
     7    64    63    2
     8    89    88    1
     9    63    62    1
    10    61    62    1
    11    57    58    1
    12    62    65    1
    13    87    88    2
    14    87    84    1
    15    58    59    1
    16    84    83    1
    17    84    85    1
    18    83    78   am
    19    65    66    1
    20    65    67    1
    21    60    59    1
    22   111   109    1
    23    78    77    1
    24    78    79    2
    25    77    80    1
    26    77    76    1
    27   109   108    1
    28    85    92   am
    29    85    86    2
    30    95    94    2
    31    80    82    1
    32    80    81    1
    33   130   131    1
    34    92    93    1
    35   125   124    2
    36   110   108    1
    37   132   131    1
    38   132   133    2
    39   131   134    1
    40   108   105    1
    41    94    93    1
    42    94   104   am
    43   136   137    1
    44   105   104    1
    45   105   106    1
    46   124   123    1
    47    93    96    1
    48    74    72    1
    49   137   140    1
    50   137   138    1
    51   122   123    1
    52   142   144   ar
    53   142   141   ar
    54    96    97    1
    55   134   135    1
    56   140   141    1
    57   126   123    1
    58   126   127    1
    59   106   107    2
    60   128   127    1
    61    70    69    1
    62    70    71    2
    63   138   139    2
    64   144   146   ar
    65   141   143   ar
    66    69    72    1
    67    69    68    1
    68    72    73    1
    69   127   129    1
    70    39    40    1
    71    99    97   ar
    72    99   101   ar
    73    97    98   ar
    74    42    41    2
    75    73    75    1
    76   146   145   ar
    77    43    40    1
    78   101   102   ar
    79   143   145   ar
    80    40    41    1
    81    98   100   ar
    82   115   114    2
    83    31    29   am
    84   102   100   ar
    85   102   103    1
    86   112   113    1
    87   114   113    1
    88   114   116   am
    89    44    45    1
    90    29    30    2
    91    29    28    1
    92   118   117    1
    93   118   119    2
    94    48    45    1
    95    48    49    1
    96    28    27    1
    97   117   116    1
    98   117   120    1
    99    47    46    2
   100    51    50    1
   101    51    52    1
   102    50    49    1
   103    45    46    1
   104     7     6    1
   105    37    36    1
   106   120   121    1
   107    27    24    1
   108    38    36    1
   109    36    33    1
   110     6     8    1
   111     6     5    1
   112    24    23    1
   113    24    25    1
   114    23    21   am
   115    33    34    1
   116    33    32    1
   117     5     2    1
   118    34    35    2
   119    21    20    1
   120    21    22    2
   121    25    26    2
   122    20    19    1
   123     2     1    1
   124     2     3    1
   125    19    15   am
   126    16    15    2
   127    15    14    1
   128     3     4    2
   129     3     9   am
   130     9    10    1
   131    12    11    2
   132    14    13    1
   133    14    17    1
   134    11    13   am
   135    11    10    1
   136    17    18    1
