@<TRIPOS>MOLECULE
tmp/3sy8D00.pdb
 143 133 0 0 0
SMALL
GASTEIGER

@<TRIPOS>ATOM
      1  N         25.1180   55.7520   30.6360 N.3   134  GLN134     -0.1245
      2  CA        24.5070   54.4460   30.5060 C.3   134  GLN134      0.1566
      3  C         24.9720   53.5740   31.6720 C.2   134  GLN134      0.2260
      4  O         26.1740   53.3800   31.8710 O.2   134  GLN134     -0.2867
      5  CB        24.8620   53.7970   29.1880 C.3   134  GLN134      0.0367
      6  CG        24.4480   52.3620   29.1200 C.3   134  GLN134      0.0905
      7  CD        24.4590   51.8190   27.7270 C.2   134  GLN134      0.2608
      8  OE1       23.4450   51.3390   27.2310 O.2   134  GLN134     -0.2717
      9  NE2       25.6140   51.9050   27.0620 N.am  134  GLN134     -0.0878
     10  N         28.7350   54.3930   32.2180 N.3   148  GLU148     -0.1245
     11  CA        29.6190   54.9250   31.1890 C.3   148  GLU148      0.1567
     12  C         29.1760   56.3310   30.7640 C.2   148  GLU148      0.2260
     13  O         27.9900   56.6050   30.5990 O.2   148  GLU148     -0.2867
     14  CB        29.6690   53.9820   29.9840 C.3   148  GLU148      0.0388
     15  CG        30.6310   54.4410   28.9020 C.3   148  GLU148      0.1160
     16  CD        30.7660   53.5000   27.7160 C.2   148  GLU148      0.3649
     17  OE1       30.1450   52.4070   27.6600 O.co2 148  GLU148     -0.2457
     18  OE2       31.5380   53.8730   26.8160 O.co2 148  GLU148     -0.2457
     19  N         29.0340   59.1850   27.9920 N.3   150  LEU150     -0.1245
     20  CA        29.0500   59.2690   26.5230 C.3   150  LEU150      0.1561
     21  C         28.7390   60.6610   26.0710 C.2   150  LEU150      0.2260
     22  O         28.2350   61.4660   26.8360 O.2   150  LEU150     -0.2867
     23  CB        28.0260   58.3300   25.9270 C.3   150  LEU150      0.0270
     24  CG        28.2440   56.9080   26.4060 C.3   150  LEU150      0.0019
     25  CD1       27.0310   56.0770   26.0880 C.3   150  LEU150      0.0001
     26  CD2       29.5120   56.3940   25.7170 C.3   150  LEU150      0.0001
     27  N         26.9100   63.3310   23.6110 N.3   152  ARG152     -0.1245
     28  CA        25.8390   63.6600   22.6630 C.3   152  ARG152      0.1563
     29  C         25.8470   65.1680   22.4130 C.2   152  ARG152      0.2260
     30  O         26.2780   65.9530   23.2560 O.2   152  ARG152     -0.2867
     31  CB        24.4560   63.2320   23.1840 C.3   152  ARG152      0.0307
     32  CG        24.2620   61.7620   23.6300 C.3   152  ARG152      0.0489
     33  CD        23.9220   60.7280   22.4810 C.3   152  ARG152      0.2205
     34  NE        25.0620   59.8230   22.3840 N.pl3 152  ARG152     -0.0865
     35  CZ        25.0610   58.4920   22.4960 C.cat 152  ARG152      0.5346
     36  NH1       23.9770   57.7440   22.6270 N.pl3 152  ARG152      0.1354
     37  NH2       26.2080   57.8790   22.4160 N.pl3 152  ARG152      0.1354
     38  N         27.9010   60.4350   18.3450 N.3   163  PRO163     -0.2116
     39  CA        29.2410   60.8140   17.8550 C.3   163  PRO163      0.1372
     40  C         29.5550   60.6220   16.3750 C.2   163  PRO163      0.2244
     41  O         30.5440   61.1820   15.8810 O.2   163  PRO163     -0.2868
     42  CB        30.1660   59.9560   18.7010 C.3   163  PRO163      0.0268
     43  CG        29.4490   59.8850   20.0010 C.3   163  PRO163      0.0207
     44  CD        28.0020   59.6830   19.6060 C.3   163  PRO163      0.0892
     45  N         35.5530   57.7140   28.3910 N.3   206  ASN206     -0.1240
     46  CA        36.3070   57.1740   27.3040 C.3   206  ASN206      0.1653
     47  C         37.4580   58.1110   27.0330 C.2   206  ASN206      0.2266
     48  O         37.2780   59.3260   27.0390 O.2   206  ASN206     -0.2867
     49  CB        35.3960   57.0020   26.0920 C.3   206  ASN206      0.1155
     50  CG        34.4460   55.7930   26.2480 C.2   206  ASN206      0.2627
     51  OD1       34.8520   54.6210   26.1190 O.2   206  ASN206     -0.2716
     52  ND2       33.1850   56.0760   26.5650 N.am  206  ASN206     -0.0877
     53  N         40.0250   51.7710   24.1270 N.3   240  THR240     -0.1218
     54  CA        39.7970   50.6370   23.2480 C.3   240  THR240      0.1862
     55  C         41.1170   49.9380   23.0420 C.2   240  THR240      0.2287
     56  O         42.1650   50.6090   22.9770 O.2   240  THR240     -0.2866
     57  CB        39.3030   51.0530   21.8740 C.3   240  THR240      0.1770
     58  OG1       40.3260   51.8230   21.2400 O.3   240  THR240     -0.2211
     59  CG2       38.0290   51.8540   21.9540 C.3   240  THR240      0.0375
     60  N         38.6210   48.5440   26.6300 N.3   268  ASP268     -0.1239
     61  CA        37.3780   48.5680   25.9290 C.3   268  ASP268      0.1674
     62  C         37.5830   47.9050   24.5760 C.2   268  ASP268      0.2266
     63  O         38.7100   47.8570   24.0540 O.2   268  ASP268     -0.2867
     64  CB        37.0440   50.0420   25.7590 C.3   268  ASP268      0.1410
     65  CG        35.6370   50.2740   25.4080 C.2   268  ASP268      0.3668
     66  OD1       34.8120   49.3100   25.4030 O.co2 268  ASP268     -0.2456
     67  OD2       35.3640   51.4580   25.1220 O.co2 268  ASP268     -0.2456
     68  N         29.3030   44.5320   21.7660 N.3   292  ARG292     -0.1245
     69  CA        27.9370   44.0460   21.7440 C.3   292  ARG292      0.1563
     70  C         27.6830   42.9340   20.7560 C.2   292  ARG292      0.2260
     71  O         26.6680   42.2540   20.8700 O.2   292  ARG292     -0.2867
     72  CB        27.0070   45.2050   21.4310 C.3   292  ARG292      0.0307
     73  CG        26.9250   45.5410   19.9470 C.3   292  ARG292      0.0489
     74  CD        27.1040   47.0620   19.6500 C.3   292  ARG292      0.2205
     75  NE        25.8520   47.7710   19.3570 N.pl3 292  ARG292     -0.0865
     76  CZ        24.9560   47.4140   18.4200 C.cat 292  ARG292      0.5346
     77  NH1       25.1450   46.3100   17.6810 N.pl3 292  ARG292      0.1354
     78  NH2       23.8460   48.1560   18.2300 N.pl3 292  ARG292      0.1354
     79  N         28.5240   44.0970   26.7830 N.3   325  GLU325     -0.1231
     80  CA        27.6640   45.1380   26.1840 C.3   325  GLU325      0.1699
     81  C         26.6450   44.5020   25.2500 C.2   325  GLU325      0.2592
     82  O         26.7840   43.3300   24.8460 O.2   325  GLU325     -0.2718
     83  CB        28.4930   46.2070   25.4450 C.3   325  GLU325      0.0402
     84  CG        29.5890   46.8110   26.3120 C.3   325  GLU325      0.1161
     85  CD        30.4520   47.8670   25.6570 C.2   325  GLU325      0.3649
     86  OE1       30.4270   48.0000   24.4310 O.co2 325  GLU325     -0.2457
     87  OE2       31.1920   48.5830   26.3800 O.co2 325  GLU325     -0.2457
     88  N         25.5940   45.2540   24.9520 N.am  326  GLY326     -0.1957
     89  CA        24.5850   44.8140   23.9970 C.3   326  GLY326      0.1869
     90  C         23.4830   43.9450   24.5740 C.2   326  GLY326      0.2309
     91  O         22.8120   43.2740   23.8160 O.2   326  GLY326     -0.2863
     92  N         20.1190   43.1990   25.0990 N.3   328  GLU328     -0.1245
     93  CA        18.8770   43.6940   24.4710 C.3   328  GLU328      0.1567
     94  C         17.6270   42.9110   24.9250 C.2   328  GLU328      0.2260
     95  O         16.5040   43.3750   24.7340 O.2   328  GLU328     -0.2867
     96  CB        18.9220   43.5450   22.9360 C.3   328  GLU328      0.0388
     97  CG        20.1810   44.0010   22.1790 C.3   328  GLU328      0.1160
     98  CD        20.1070   45.4340   21.6690 C.2   328  GLU328      0.3649
     99  OE1       19.0160   45.8660   21.1990 O.co2 328  GLU328     -0.2457
    100  OE2       21.1460   46.1390   21.7210 O.co2 328  GLU328     -0.2457
    101  N         25.8990   46.0850   30.0820 N.3   345  GLN345     -0.1231
    102  CA        25.2420   47.2890   29.5940 C.3   345  GLN345      0.1698
    103  C         24.3670   46.8550   28.4400 C.2   345  GLN345      0.2593
    104  O         24.6190   45.8170   27.8140 O.2   345  GLN345     -0.2718
    105  CB        26.2600   48.3050   29.1040 C.3   345  GLN345      0.0381
    106  CG        27.1280   48.9710   30.1770 C.3   345  GLN345      0.0905
    107  CD        28.2900   49.7760   29.5740 C.2   345  GLN345      0.2608
    108  OE1       29.4550   49.6130   29.9720 O.2   345  GLN345     -0.2717
    109  NE2       27.9770   50.6460   28.6050 N.am  345  GLN345     -0.0878
    110  N         23.3530   47.6410   28.1310 N.am  346  GLY346     -0.1942
    111  CA        22.4230   47.2870   27.0940 C.3   346  GLY346      0.2014
    112  C         21.0360   47.8670   27.2710 C.2   346  GLY346      0.2638
    113  O         20.6260   48.2710   28.3740 O.2   346  GLY346     -0.2714
    114  N         20.3040   47.8750   26.1660 N.am  347  TYR347     -0.1973
    115  CA        18.9850   48.4430   26.0860 C.3   347  TYR347      0.1639
    116  C         17.9760   47.8320   27.0690 C.2   347  TYR347      0.2290
    117  O         17.0710   48.5070   27.5330 O.2   347  TYR347     -0.2864
    118  CB        18.5100   48.2830   24.6550 C.3   347  TYR347      0.0560
    119  CG        17.0590   48.5380   24.4090 C.ar  347  TYR347     -0.0198
    120  CD1       16.5530   49.8540   24.3380 C.ar  347  TYR347     -0.0009
    121  CD2       16.1840   47.4740   24.1820 C.ar  347  TYR347     -0.0009
    122  CE1       15.1990   50.1130   24.0680 C.ar  347  TYR347      0.0417
    123  CE2       14.8030   47.7220   23.9180 C.ar  347  TYR347      0.0417
    124  CZ        14.3370   49.0390   23.8650 C.ar  347  TYR347      0.1957
    125  OH        13.0210   49.2580   23.6050 O.3   347  TYR347     -0.2866
    126  N         19.2780   52.5190   27.7140 N.3   351  ARG351     -0.1231
    127  CA        20.1100   53.1490   26.7420 C.3   351  ARG351      0.1679
    128  C         20.7570   54.3240   27.4330 C.2   351  ARG351      0.2434
    129  O         20.3580   54.6500   28.5380 O.2   351  ARG351     -0.2733
    130  CB        19.2250   53.6300   25.6040 C.3   351  ARG351      0.0321
    131  CG        18.6430   52.5110   24.8140 C.3   351  ARG351      0.0489
    132  CD        18.6430   52.8380   23.3420 C.3   351  ARG351      0.2205
    133  NE        19.4210   51.8750   22.5820 N.pl3 351  ARG351     -0.0865
    134  CZ        18.9420   51.0940   21.6200 C.cat 351  ARG351      0.5346
    135  NH1       17.6660   51.1580   21.2670 N.pl3 351  ARG351      0.1354
    136  NH2       19.7500   50.2460   21.0000 N.pl3 351  ARG351      0.1354
    137  N         21.7800   54.9470   26.8260 N.am  352  PRO352     -0.2729
    138  CA        22.3280   56.2020   27.3500 C.3   352  PRO352      0.1401
    139  C         21.2700   57.3110   27.6360 C.2   352  PRO352      0.2269
    140  O         20.4190   57.5880   26.7840 O.2   352  PRO352     -0.2865
    141  CB        23.2760   56.6360   26.2340 C.3   352  PRO352      0.0296
    142  CG        23.7810   55.3500   25.6580 C.3   352  PRO352      0.0237
    143  CD        22.7190   54.3050   25.8810 C.3   352  PRO352      0.0939
@<TRIPOS>BOND
     1    41    40    2
     2    40    39    1
     3    77    76    1
     4    39    38    1
     5    39    42    1
     6    78    76    1
     7    38    44    1
     8    76    75    2
     9    42    43    1
    10    75    74    1
    11    44    43    1
    12    74    73    1
    13    73    72    1
    14    70    71    2
    15    70    69    1
    16   136   134    1
    17    99    98   ar
    18    58    57    1
    19   135   134    1
    20    72    69    1
    21   134   133    2
    22    98   100   ar
    23    98    97    1
    24    69    68    1
    25    57    59    1
    26    57    54    1
    27    97    96    1
    28    34    33    1
    29    34    35    2
    30    29    28    1
    31    29    30    2
    32    37    35    1
    33    33    32    1
    34    35    36    1
    35   133   132    1
    36    28    31    1
    37    28    27    1
    38    96    93    1
    39    56    55    2
    40    55    54    1
    41    31    32    1
    42    54    53    1
    43   132   131    1
    44   125   124    1
    45    91    90    2
    46   124   123   ar
    47   124   122   ar
    48   123   121   ar
    49    89    90    1
    50    89    88    1
    51    63    62    2
    52   122   120   ar
    53   121   119   ar
    54   120   119   ar
    55   119   118    1
    56    86    85   ar
    57    93    94    1
    58    93    92    1
    59    62    61    1
    60   118   115    1
    61    95    94    2
    62   131   130    1
    63    82    81    2
    64    88    81   am
    65    67    65   ar
    66    81    80    1
    67    66    65   ar
    68    65    64    1
    69    83    80    1
    70    83    84    1
    71   130   127    1
    72    85    84    1
    73    85    87   ar
    74   142   143    1
    75   142   141    1
    76    26    24    1
    77    64    61    1
    78   143   137    1
    79    23    24    1
    80    23    20    1
    81    61    60    1
    82    21    20    1
    83    21    22    2
    84   115   114    1
    85   115   116    1
    86    25    24    1
    87    49    50    1
    88    49    46    1
    89    51    50    2
    90   114   112   am
    91    80    79    1
    92   141   138    1
    93    50    52   am
    94    20    19    1
    95   127   128    1
    96   127   126    1
    97   140   139    2
    98    18    16   ar
    99   137   138    1
   100   137   128   am
   101    47    48    2
   102    47    46    1
   103     9     7   am
   104   116   117    2
   105   111   112    1
   106   111   110    1
   107     8     7    2
   108   112   113    2
   109    46    45    1
   110   138   139    1
   111   128   129    2
   112    17    16   ar
   113    16    15    1
   114     7     6    1
   115   104   103    2
   116   110   103   am
   117   103   102    1
   118   109   107   am
   119    15    14    1
   120   105   102    1
   121   105   106    1
   122     6     5    1
   123     5     2    1
   124   107   108    2
   125   107   106    1
   126   102   101    1
   127    14    11    1
   128     2     1    1
   129     2     3    1
   130    13    12    2
   131    12    11    1
   132    11    10    1
   133     3     4    2
