@<TRIPOS>MOLECULE
tmp/3sy9B01.pdb
 80 76 0 0 0
SMALL
GASTEIGER

@<TRIPOS>ATOM
      1  N         41.6230  -79.1900   18.4860 N.3    78  ILE78      -0.1245
      2  CA        42.3740  -79.8330   17.4340 C.3    78  ILE78       0.1561
      3  C         42.8970  -78.7670   16.4940 C.2    78  ILE78       0.2260
      4  O         42.1230  -78.0540   15.8520 O.2    78  ILE78      -0.2867
      5  CB        41.5190  -80.8060   16.6340 C.3    78  ILE78       0.0252
      6  CG1       40.7350  -81.7260   17.5670 C.3    78  ILE78       0.0019
      7  CG2       42.3910  -81.6170   15.6770 C.3    78  ILE78       0.0019
      8  CD1       39.6570  -82.4950   16.8260 C.3    78  ILE78       0.0001
      9  N         45.2380  -77.6920   13.2360 N.3    80  ALA80      -0.1231
     10  CA        45.9910  -78.0140   12.0420 C.3    80  ALA80       0.1694
     11  C         45.9490  -76.8340   11.0680 C.2    80  ALA80       0.2592
     12  O         44.9060  -76.1690   10.9100 O.2    80  ALA80      -0.2718
     13  CB        45.4520  -79.2860   11.4030 C.3    80  ALA80       0.0304
     14  N         47.1040  -76.5810   10.4540 N.am   81  PHE81      -0.1962
     15  CA        47.3170  -75.4900    9.5040 C.3    81  PHE81       0.1771
     16  C         46.6280  -74.2130    9.9360 C.2    81  PHE81       0.2620
     17  O         45.7430  -73.7250    9.2240 O.2    81  PHE81      -0.2715
     18  CB        46.8050  -75.8420    8.1000 C.3    81  PHE81       0.0574
     19  CG        46.9140  -77.2970    7.7430 C.ar   81  PHE81      -0.0200
     20  CD1       45.8360  -78.1510    7.9440 C.ar   81  PHE81      -0.0042
     21  CD2       48.0790  -77.8050    7.1790 C.ar   81  PHE81      -0.0042
     22  CE1       45.9170  -79.4830    7.6040 C.ar   81  PHE81      -0.0003
     23  CE2       48.1730  -79.1320    6.8340 C.ar   81  PHE81      -0.0003
     24  CZ        47.0870  -79.9810    7.0490 C.ar   81  PHE81      -0.0000
     25  N         47.0220  -73.6740   11.0890 N.am   82  ASP82      -0.1957
     26  CA        46.4990  -72.3830   11.5540 C.3    82  ASP82       0.1840
     27  C         44.9790  -72.3680   11.6410 C.2    82  ASP82       0.2622
     28  O         44.3520  -71.3060   11.5600 O.2    82  ASP82      -0.2715
     29  CB        46.9400  -71.2570   10.6230 C.3    82  ASP82       0.1450
     30  CG        48.3950  -71.3540   10.2500 C.2    82  ASP82       0.3671
     31  OD1       49.2210  -71.1840   11.1680 O.co2  82  ASP82      -0.2456
     32  OD2       48.6990  -71.5990    9.0510 O.co2  82  ASP82      -0.2456
     33  N         44.3920  -73.5500   11.7750 N.am   83  THR83      -0.1951
     34  CA        42.9730  -73.6580   12.0130 C.3    83  THR83       0.1897
     35  C         42.8340  -74.3610   13.3270 C.2    83  THR83       0.2313
     36  O         43.5510  -75.3240   13.6180 O.2    83  THR83      -0.2863
     37  CB        42.2690  -74.4770   10.9610 C.3    83  THR83       0.1794
     38  OG1       42.5530  -73.9440    9.6640 O.3    83  THR83      -0.2208
     39  CG2       40.7760  -74.4320   11.2090 C.3    83  THR83       0.0378
     40  N         39.9600  -75.9010   16.0790 N.3    85  LEU85      -0.1245
     41  CA        38.5990  -76.3850   16.1600 C.3    85  LEU85       0.1561
     42  C         38.3280  -76.7460   17.6170 C.2    85  LEU85       0.2260
     43  O         39.0930  -77.4990   18.2310 O.2    85  LEU85      -0.2867
     44  CB        38.4680  -77.5980   15.2610 C.3    85  LEU85       0.0270
     45  CG        37.1250  -78.2860   15.2180 C.3    85  LEU85       0.0019
     46  CD1       36.1990  -77.4480   14.3770 C.3    85  LEU85       0.0001
     47  CD2       37.3010  -79.6750   14.6260 C.3    85  LEU85       0.0001
     48  N         35.0670  -73.0390   14.6970 N.3   114  LEU114     -0.1245
     49  CA        36.1750  -73.2000   13.7690 C.3   114  LEU114      0.1561
     50  C         36.8410  -71.8350   13.5960 C.2   114  LEU114      0.2260
     51  O         36.1700  -70.8350   13.3300 O.2   114  LEU114     -0.2867
     52  CB        35.6300  -73.7240   12.4340 C.3   114  LEU114      0.0270
     53  CG        36.4720  -73.9490   11.1660 C.3   114  LEU114      0.0019
     54  CD1       37.4830  -72.8150   10.9210 C.3   114  LEU114      0.0001
     55  CD2       37.1650  -75.3100   11.1910 C.3   114  LEU114      0.0001
     56  N         40.1600  -70.0750   11.5980 N.3   116  ASN116     -0.1240
     57  CA        41.3610  -70.0620   10.7780 C.3   116  ASN116      0.1653
     58  C         42.0770  -68.7090   10.7670 C.2   116  ASN116      0.2266
     59  O         41.4560  -67.6570   10.5660 O.2   116  ASN116     -0.2867
     60  CB        41.0190  -70.4680    9.3470 C.3   116  ASN116      0.1155
     61  CG        42.2120  -70.3820    8.4190 C.2   116  ASN116      0.2627
     62  OD1       42.3880  -69.3930    7.7140 O.2   116  ASN116     -0.2716
     63  ND2       43.0510  -71.4140    8.4270 N.am  116  ASN116     -0.0877
     64  N         45.1140  -68.2690    8.4500 N.3   118  SER118     -0.1202
     65  CA        46.1820  -68.8160    7.6150 C.3   118  SER118      0.2020
     66  C         46.9430  -67.6850    6.9780 C.2   118  SER118      0.2618
     67  O         48.0550  -67.8500    6.5000 O.2   118  SER118     -0.2717
     68  CB        45.6210  -69.7550    6.5360 C.3   118  SER118      0.2103
     69  OG        45.3530  -71.0530    7.0570 O.3   118  SER118     -0.2182
     70  N         46.3310  -66.5120    7.0370 N.am  119  PHE119     -0.1975
     71  CA        46.8550  -65.3230    6.4070 C.3   119  PHE119      0.1639
     72  C         46.8820  -64.2460    7.4520 C.2   119  PHE119      0.2290
     73  O         45.8490  -63.9540    8.0580 O.2   119  PHE119     -0.2864
     74  CB        45.9440  -64.8880    5.2700 C.3   119  PHE119      0.0560
     75  CG        45.8560  -65.8790    4.1580 C.ar  119  PHE119     -0.0200
     76  CD1       46.9130  -66.0390    3.2630 C.ar  119  PHE119     -0.0042
     77  CD2       44.7210  -66.6610    4.0070 C.ar  119  PHE119     -0.0042
     78  CE1       46.8340  -66.9630    2.2320 C.ar  119  PHE119     -0.0003
     79  CE2       44.6230  -67.5790    2.9820 C.ar  119  PHE119     -0.0003
     80  CZ        45.6760  -67.7320    2.0880 C.ar  119  PHE119     -0.0000
@<TRIPOS>BOND
     1    80    78   ar
     2    80    79   ar
     3    78    76   ar
     4    79    77   ar
     5    76    75   ar
     6    77    75   ar
     7    75    74    1
     8    74    71    1
     9    71    70    1
    10    71    72    1
    11    67    66    2
    12    68    69    1
    13    68    65    1
    14    23    24   ar
    15    23    21   ar
    16    66    70   am
    17    66    65    1
    18    24    22   ar
    19    21    19   ar
    20    72    73    2
    21    22    20   ar
    22    65    64    1
    23    62    61    2
    24    19    20   ar
    25    19    18    1
    26    18    15    1
    27    61    63   am
    28    61    60    1
    29    32    30   ar
    30    17    16    2
    31    60    57    1
    32    15    16    1
    33    15    14    1
    34    38    37    1
    35    16    25   am
    36    30    29    1
    37    30    31   ar
    38    14    11   am
    39    59    58    2
    40    29    26    1
    41    58    57    1
    42    57    56    1
    43    12    11    2
    44    54    53    1
    45    37    39    1
    46    37    34    1
    47    11    10    1
    48    25    26    1
    49    53    55    1
    50    53    52    1
    51    13    10    1
    52    26    27    1
    53    28    27    2
    54    27    33   am
    55    33    34    1
    56    34    35    1
    57    10     9    1
    58    52    49    1
    59    35    36    2
    60    51    50    2
    61    50    49    1
    62    49    48    1
    63    46    45    1
    64    47    45    1
    65    45    44    1
    66    44    41    1
    67     7     5    1
    68     4     3    2
    69    40    41    1
    70    41    42    1
    71     3     2    1
    72     5     2    1
    73     5     6    1
    74     8     6    1
    75     2     1    1
    76    42    43    2
