@<TRIPOS>MOLECULE
tmp/3sy9C03.pdb
 109 104 0 0 0
SMALL
GASTEIGER

@<TRIPOS>ATOM
      1  N        -13.9490  -13.3560   16.4050 N.3    77  LEU77      -0.1245
      2  CA       -12.6050  -13.7480   16.0430 C.3    77  LEU77       0.1561
      3  C        -11.6710  -12.5280   16.1510 C.2    77  LEU77       0.2260
      4  O        -11.9370  -11.4840   15.5590 O.2    77  LEU77      -0.2867
      5  CB       -12.6600  -14.2440   14.6070 C.3    77  LEU77       0.0270
      6  CG       -11.4780  -15.0150   14.0710 C.3    77  LEU77       0.0019
      7  CD1      -11.3360  -16.2770   14.9120 C.3    77  LEU77       0.0001
      8  CD2      -11.6950  -15.3310   12.6000 C.3    77  LEU77       0.0001
      9  N         -4.3700  -15.5300   17.0890 N.3   104  VAL104     -0.1245
     10  CA        -5.8100  -15.6290   16.9290 C.3   104  VAL104      0.1561
     11  C         -6.4620  -16.1390   18.1960 C.2   104  VAL104      0.2260
     12  O         -5.9860  -17.0880   18.8170 O.2   104  VAL104     -0.2867
     13  CB        -6.1750  -16.5820   15.7980 C.3   104  VAL104      0.0252
     14  CG1       -7.6790  -16.6130   15.6230 C.3   104  VAL104      0.0019
     15  CG2       -5.4990  -16.1330   14.5220 C.3   104  VAL104      0.0019
     16  N        -10.5650  -17.0590   19.5430 N.3   106  LEU106     -0.1245
     17  CA       -11.9690  -17.1120   19.1470 C.3   106  LEU106      0.1561
     18  C        -12.9130  -17.3760   20.3120 C.2   106  LEU106      0.2260
     19  O        -12.5300  -17.9860   21.3180 O.2   106  LEU106     -0.2867
     20  CB       -12.2070  -18.0360   17.9420 C.3   106  LEU106      0.0270
     21  CG       -12.6370  -19.5020   17.9530 C.3   106  LEU106      0.0019
     22  CD1      -13.9390  -19.7760   18.7240 C.3   106  LEU106      0.0001
     23  CD2      -12.7990  -19.9260   16.5000 C.3   106  LEU106      0.0001
     24  N        -11.1700  -20.9250   21.5990 N.3   118  ALA118     -0.1231
     25  CA        -9.9740  -21.5830   21.0960 C.3   118  ALA118      0.1697
     26  C         -9.0060  -20.5330   20.6070 C.2   118  ALA118      0.2632
     27  O         -9.4280  -19.4220   20.2990 O.2   118  ALA118     -0.2714
     28  CB       -10.3230  -22.5210   19.9590 C.3   118  ALA118      0.0304
     29  N         -7.7200  -20.8850   20.5250 N.am  119  GLY119     -0.1718
     30  CA        -6.7610  -20.0420   19.8420 C.2   119  GLY119      0.1480
     31  C         -5.3150  -20.5070   19.7770 C.2   119  GLY119      0.2820
     32  O         -4.9380  -21.5050   20.3930 O.2   119  GLY119     -0.2669
     33  N         -4.5160  -19.7630   19.0070 N.am  120  GLN120     -0.1943
     34  CA        -3.0600  -19.8890   18.9670 C.3   120  GLN120      0.1604
     35  C         -2.4220  -18.5200   19.2220 C.2   120  GLN120      0.2287
     36  O         -2.6180  -17.5680   18.4550 O.2   120  GLN120     -0.2864
     37  CB        -2.5640  -20.3630   17.6000 C.3   120  GLN120      0.0394
     38  CG        -3.0230  -21.7030   17.1240 C.3   120  GLN120      0.0908
     39  CD        -2.0600  -22.2990   16.1050 C.2   120  GLN120      0.2608
     40  OE1       -1.0400  -21.7000   15.7780 O.2   120  GLN120     -0.2717
     41  NE2       -2.3770  -23.4920   15.6130 N.am  120  GLN120     -0.0878
     42  N         -1.4200  -23.1630   22.1670 N.3   131  SER131     -0.1202
     43  CA        -2.7460  -23.3750   21.5770 C.3   131  SER131      0.2020
     44  C         -3.7190  -23.8960   22.6080 C.2   131  SER131      0.2619
     45  O         -3.3190  -24.5300   23.5840 O.2   131  SER131     -0.2717
     46  CB        -2.6820  -24.3760   20.4400 C.3   131  SER131      0.2103
     47  OG        -2.4030  -23.7340   19.2180 O.3   131  SER131     -0.2182
     48  N         -5.0010  -23.6390   22.3910 N.am  132  TRP132     -0.1961
     49  CA        -5.9880  -24.0470   23.3670 C.3   132  TRP132      0.1771
     50  C         -7.3530  -24.2310   22.7530 C.2   132  TRP132      0.2619
     51  O         -7.6500  -23.7140   21.6840 O.2   132  TRP132     -0.2715
     52  CB        -6.0610  -23.0630   24.5440 C.3   132  TRP132      0.0590
     53  CG        -7.0880  -21.9660   24.3610 C.ar  132  TRP132      0.0006
     54  CD1       -8.4370  -22.0410   24.6050 C.ar  132  TRP132      0.0946
     55  CD2       -6.8440  -20.6430   23.8860 C.ar  132  TRP132      0.0152
     56  NE1       -9.0400  -20.8490   24.3070 N.ar  132  TRP132     -0.2442
     57  CE2       -8.0830  -19.9690   23.8660 C.ar  132  TRP132      0.0810
     58  CE3       -5.6940  -19.9570   23.4720 C.ar  132  TRP132      0.0012
     59  CZ2       -8.2050  -18.6430   23.4490 C.ar  132  TRP132      0.0191
     60  CZ3       -5.8140  -18.6460   23.0590 C.ar  132  TRP132      0.0001
     61  CH2       -7.0590  -18.0000   23.0500 C.ar  132  TRP132      0.0015
     62  N         -8.1690  -24.9980   23.4600 N.am  133  LEU133     -0.1977
     63  CA        -9.5480  -25.2590   23.1050 C.3   133  LEU133      0.1596
     64  C        -10.2180  -25.3890   24.4530 C.2   133  LEU133      0.2287
     65  O         -9.6260  -25.9340   25.3830 O.2   133  LEU133     -0.2864
     66  CB        -9.6290  -26.5580   22.3310 C.3   133  LEU133      0.0297
     67  CG       -11.0040  -27.1270   22.0220 C.3   133  LEU133      0.0022
     68  CD1      -11.9130  -26.0430   21.4680 C.3   133  LEU133      0.0001
     69  CD2      -10.8620  -28.3050   21.0530 C.3   133  LEU133      0.0001
     70  N         -8.2800  -27.4410   27.3740 N.3   148  ALA148     -0.1231
     71  CA        -7.0920  -28.1470   26.9090 C.3   148  ALA148      0.1694
     72  C         -6.1470  -27.2050   26.1460 C.2   148  ALA148      0.2592
     73  O         -6.5530  -26.5600   25.1780 O.2   148  ALA148     -0.2718
     74  CB        -7.5090  -29.2710   26.0040 C.3   148  ALA148      0.0304
     75  N         -4.8840  -27.1480   26.5530 N.am  149  ALA149     -0.1966
     76  CA        -3.9020  -26.3560   25.8220 C.3   149  ALA149      0.1728
     77  C         -2.5980  -27.0850   25.4630 C.2   149  ALA149      0.2616
     78  O         -2.2080  -28.0770   26.0930 O.2   149  ALA149     -0.2715
     79  CB        -3.5800  -25.1200   26.5950 C.3   149  ALA149      0.0334
     80  N         -1.8930  -26.5680   24.4680 N.am  150  GLU150     -0.1977
     81  CA        -0.5350  -27.0370   24.2750 C.3   150  GLU150      0.1602
     82  C          0.4560  -25.8780   24.2250 C.2   150  GLU150      0.2287
     83  O          0.3550  -24.9970   23.3710 O.2   150  GLU150     -0.2864
     84  CB        -0.4230  -27.9080   23.0280 C.3   150  GLU150      0.0415
     85  CG         0.9530  -28.5050   22.8180 C.3   150  GLU150      0.1163
     86  CD         1.1740  -28.9420   21.3850 C.2   150  GLU150      0.3649
     87  OE1        0.2320  -29.4810   20.7710 O.co2 150  GLU150     -0.2457
     88  OE2        2.2840  -28.7330   20.8630 O.co2 150  GLU150     -0.2457
     89  N          1.4150  -30.3570   27.6230 N.3   156  LYS156     -0.1245
     90  CA         0.0040  -30.2290   27.3160 C.3   156  LYS156      0.1561
     91  C         -0.6750  -30.1640   28.6540 C.2   156  LYS156      0.2260
     92  O         -0.2500  -30.8240   29.6030 O.2   156  LYS156     -0.2867
     93  CB        -0.5220  -31.4100   26.5150 C.3   156  LYS156      0.0271
     94  CG         0.0180  -31.4630   25.1090 C.3   156  LYS156      0.0035
     95  CD        -0.6560  -32.5530   24.3000 C.3   156  LYS156      0.0206
     96  CE        -0.0620  -32.6350   22.9010 C.3   156  LYS156      0.1093
     97  NZ        -1.1090  -32.9680   21.8970 N.3   156  LYS156     -0.1314
     98  N         -4.5260  -29.8890   30.8070 N.3   158  TYR158     -0.1241
     99  CA        -5.9600  -30.1110   30.7470 C.3   158  TYR158      0.1605
    100  C         -6.5750  -29.5940   32.0260 C.2   158  TYR158      0.2264
    101  O         -6.0090  -29.7590   33.1110 O.2   158  TYR158     -0.2867
    102  CB        -6.2700  -31.6010   30.5750 C.3   158  TYR158      0.0534
    103  CG        -5.5990  -32.2130   29.3740 C.ar  158  TYR158     -0.0201
    104  CD1       -4.2470  -32.5440   29.4020 C.ar  158  TYR158     -0.0009
    105  CD2       -6.3130  -32.4590   28.2080 C.ar  158  TYR158     -0.0009
    106  CE1       -3.6220  -33.0990   28.2950 C.ar  158  TYR158      0.0417
    107  CE2       -5.7010  -33.0250   27.0940 C.ar  158  TYR158      0.0417
    108  CZ        -4.3520  -33.3390   27.1420 C.ar  158  TYR158      0.1957
    109  OH        -3.7380  -33.8950   26.0380 O.3   158  TYR158     -0.2866
@<TRIPOS>BOND
     1     8     6    1
     2     6     5    1
     3     6     7    1
     4    15    13    1
     5     5     2    1
     6     4     3    2
     7    41    39   am
     8    14    13    1
     9    40    39    2
    10    13    10    1
    11     2     3    1
    12     2     1    1
    13    39    38    1
    14    23    21    1
    15    10     9    1
    16    10    11    1
    17    38    37    1
    18    37    34    1
    19    20    21    1
    20    20    17    1
    21    21    22    1
    22    11    12    2
    23    36    35    2
    24    34    33    1
    25    34    35    1
    26    33    31   am
    27    17    16    1
    28    17    18    1
    29    47    46    1
    30    31    30    1
    31    31    32    2
    32    30    29    2
    33    28    25    1
    34    27    26    2
    35    18    19    2
    36    46    43    1
    37    29    26    1
    38    26    25    1
    39    87    86   ar
    40    88    86   ar
    41    69    67    1
    42    25    24    1
    43    86    85    1
    44    68    67    1
    45    43    42    1
    46    43    44    1
    47    51    50    2
    48    97    96    1
    49    67    66    1
    50    66    63    1
    51    48    44   am
    52    48    49    1
    53    44    45    2
    54    50    49    1
    55    50    62   am
    56    85    84    1
    57    96    95    1
    58    84    81    1
    59    61    60   ar
    60    61    59   ar
    61    60    58   ar
    62    63    62    1
    63    63    64    1
    64    49    52    1
    65    83    82    2
    66    59    57   ar
    67    58    55   ar
    68    57    55   ar
    69    57    56   ar
    70    55    53   ar
    71    82    81    1
    72    81    80    1
    73    95    94    1
    74    56    54   ar
    75    53    52    1
    76    53    54   ar
    77    64    65    2
    78    80    77   am
    79    94    93    1
    80    73    72    2
    81    77    76    1
    82    77    78    2
    83    76    75    1
    84    76    79    1
    85    74    71    1
    86   109   108    1
    87    72    75   am
    88    72    71    1
    89    93    90    1
    90    71    70    1
    91   107   108   ar
    92   107   105   ar
    93   108   106   ar
    94    90    89    1
    95    90    91    1
    96   105   103   ar
    97   106   104   ar
    98    91    92    2
    99   103   104   ar
   100   103   102    1
   101   102    99    1
   102    99    98    1
   103    99   100    1
   104   100   101    2
