@<TRIPOS>MOLECULE
tmp/3sy9D01.pdb
 109 104 0 0 0
SMALL
GASTEIGER

@<TRIPOS>ATOM
      1  N        -13.8720  -71.3270   91.7510 N.3    76  LEU76      -0.1245
      2  CA       -12.5340  -70.9330   92.1240 C.3    76  LEU76       0.1561
      3  C        -11.5790  -72.1330   92.0240 C.2    76  LEU76       0.2260
      4  O        -11.7420  -73.1030   92.7430 O.2    76  LEU76      -0.2867
      5  CB       -12.5850  -70.4230   93.5600 C.3    76  LEU76       0.0270
      6  CG       -11.3700  -69.6210   94.0000 C.3    76  LEU76       0.0019
      7  CD1      -11.1420  -68.4980   92.9840 C.3    76  LEU76       0.0001
      8  CD2      -11.5310  -69.0900   95.4260 C.3    76  LEU76       0.0001
      9  N         -4.2940  -69.2130   90.9360 N.3   103  VAL103     -0.1245
     10  CA        -5.7320  -69.1130   91.1090 C.3   103  VAL103      0.1561
     11  C         -6.4090  -68.5660   89.8630 C.2   103  VAL103      0.2260
     12  O         -5.9810  -67.5570   89.2950 O.2   103  VAL103     -0.2867
     13  CB        -6.0760  -68.1680   92.2620 C.3   103  VAL103      0.0252
     14  CG1       -7.5530  -68.2400   92.5550 C.3   103  VAL103      0.0019
     15  CG2       -5.2760  -68.5430   93.4920 C.3   103  VAL103      0.0019
     16  N        -10.5410  -67.6450   88.5890 N.3   105  LEU105     -0.1245
     17  CA       -11.9450  -67.6050   88.9900 C.3   105  LEU105      0.1561
     18  C        -12.8810  -67.3160   87.8330 C.2   105  LEU105      0.2260
     19  O        -12.5280  -66.5820   86.9030 O.2   105  LEU105     -0.2867
     20  CB       -12.1870  -66.6890   90.1980 C.3   105  LEU105      0.0270
     21  CG       -12.5950  -65.2220   90.1580 C.3   105  LEU105      0.0019
     22  CD1      -13.9320  -64.9770   89.4580 C.3   105  LEU105      0.0001
     23  CD2      -12.6660  -64.7280   91.5950 C.3   105  LEU105      0.0001
     24  N        -11.2260  -63.6260   86.6400 N.3   117  ALA117     -0.1231
     25  CA       -10.0050  -63.0260   87.1420 C.3   117  ALA117      0.1697
     26  C         -9.0230  -64.1210   87.4860 C.2   117  ALA117      0.2632
     27  O         -9.4230  -65.2560   87.7210 O.2   117  ALA117     -0.2714
     28  CB       -10.2950  -62.2040   88.3650 C.3   117  ALA117      0.0304
     29  N         -7.7420  -63.7760   87.5480 N.am  118  GLY118     -0.1718
     30  CA        -6.7710  -64.7280   88.0320 C.2   118  GLY118      0.1480
     31  C         -5.3810  -64.1770   88.2520 C.2   118  GLY118      0.2820
     32  O         -5.0400  -63.0910   87.7830 O.2   118  GLY118     -0.2669
     33  N         -4.5850  -64.9590   88.9790 N.am  119  GLN119     -0.1943
     34  CA        -3.1590  -64.7300   89.1410 C.3   119  GLN119      0.1604
     35  C         -2.4220  -66.0700   88.9500 C.2   119  GLN119      0.2287
     36  O         -2.5880  -67.0250   89.7290 O.2   119  GLN119     -0.2864
     37  CB        -2.8910  -64.1500   90.5290 C.3   119  GLN119      0.0394
     38  CG        -1.5360  -63.4800   90.7080 C.3   119  GLN119      0.0908
     39  CD        -1.4320  -62.7200   92.0310 C.2   119  GLN119      0.2608
     40  OE1       -0.3460  -62.3160   92.4470 O.2   119  GLN119     -0.2717
     41  NE2       -2.5670  -62.5220   92.6920 N.am  119  GLN119     -0.0878
     42  N         -1.4310  -61.4600   85.9880 N.3   131  SER131     -0.1202
     43  CA        -2.7370  -61.2180   86.6000 C.3   131  SER131      0.2020
     44  C         -3.6960  -60.7000   85.5560 C.2   131  SER131      0.2619
     45  O         -3.2820  -60.0580   84.5920 O.2   131  SER131     -0.2717
     46  CB        -2.6360  -60.2180   87.7330 C.3   131  SER131      0.2103
     47  OG        -2.1190  -60.8330   88.8920 O.3   131  SER131     -0.2182
     48  N         -4.9770  -60.9970   85.7310 N.am  132  TRP132     -0.1961
     49  CA        -5.9400  -60.6240   84.7240 C.3   132  TRP132      0.1771
     50  C         -7.3290  -60.4460   85.3040 C.2   132  TRP132      0.2619
     51  O         -7.6640  -60.9770   86.3580 O.2   132  TRP132     -0.2715
     52  CB        -5.9590  -61.6300   83.5710 C.3   132  TRP132      0.0590
     53  CG        -6.9720  -62.7500   83.7810 C.ar  132  TRP132      0.0006
     54  CD1       -8.3280  -62.6860   83.5820 C.ar  132  TRP132      0.0946
     55  CD2       -6.6980  -64.0820   84.2370 C.ar  132  TRP132      0.0152
     56  NE1       -8.9070  -63.8860   83.8960 N.ar  132  TRP132     -0.2442
     57  CE2       -7.9380  -64.7560   84.2900 C.ar  132  TRP132      0.0810
     58  CE3       -5.5320  -64.7590   84.6040 C.ar  132  TRP132      0.0012
     59  CZ2       -8.0310  -66.0900   84.7020 C.ar  132  TRP132      0.0191
     60  CZ3       -5.6310  -66.0820   85.0100 C.ar  132  TRP132      0.0001
     61  CH2       -6.8720  -66.7310   85.0590 C.ar  132  TRP132      0.0015
     62  N         -8.1240  -59.6710   84.5830 N.am  133  LEU133     -0.1977
     63  CA        -9.5040  -59.4110   84.9170 C.3   133  LEU133      0.1596
     64  C        -10.1700  -59.3050   83.5640 C.2   133  LEU133      0.2287
     65  O         -9.6070  -58.7070   82.6420 O.2   133  LEU133     -0.2864
     66  CB        -9.5900  -58.0880   85.6500 C.3   133  LEU133      0.0297
     67  CG       -10.9720  -57.5790   86.0040 C.3   133  LEU133      0.0022
     68  CD1      -11.7400  -58.6840   86.7120 C.3   133  LEU133      0.0001
     69  CD2      -10.8550  -56.3180   86.8630 C.3   133  LEU133      0.0001
     70  N         -8.2020  -57.2680   80.6500 N.3   149  ALA149     -0.1231
     71  CA        -7.0180  -56.5580   81.1080 C.3   149  ALA149      0.1694
     72  C         -6.0820  -57.4920   81.8760 C.2   149  ALA149      0.2592
     73  O         -6.5080  -58.1810   82.8040 O.2   149  ALA149     -0.2718
     74  CB        -7.4360  -55.4160   82.0190 C.3   149  ALA149      0.0304
     75  N         -4.8020  -57.4860   81.5240 N.am  150  ALA150     -0.1966
     76  CA        -3.8230  -58.2850   82.2550 C.3   150  ALA150      0.1728
     77  C         -2.5580  -57.5240   82.6650 C.2   150  ALA150      0.2616
     78  O         -2.2220  -56.4870   82.0950 O.2   150  ALA150     -0.2715
     79  CB        -3.4390  -59.5010   81.4380 C.3   150  ALA150      0.0334
     80  N         -1.8420  -58.0620   83.6420 N.am  151  GLU151     -0.1977
     81  CA        -0.4720  -57.6270   83.8390 C.3   151  GLU151      0.1602
     82  C          0.5150  -58.7930   83.8360 C.2   151  GLU151      0.2287
     83  O          0.4310  -59.6940   84.6730 O.2   151  GLU151     -0.2864
     84  CB        -0.3180  -56.8310   85.1250 C.3   151  GLU151      0.0415
     85  CG         1.0280  -56.1270   85.2260 C.3   151  GLU151      0.1163
     86  CD         1.2960  -55.5980   86.6150 C.2   151  GLU151      0.3649
     87  OE1        0.3350  -55.1600   87.2800 O.co2 151  GLU151     -0.2457
     88  OE2        2.4660  -55.6340   87.0470 O.co2 151  GLU151     -0.2457
     89  N          1.4570  -54.2750   80.4020 N.3   157  LYS157     -0.1245
     90  CA         0.0560  -54.4070   80.7220 C.3   157  LYS157      0.1561
     91  C         -0.6320  -54.4790   79.3860 C.2   157  LYS157      0.2260
     92  O         -0.2870  -53.7520   78.4590 O.2   157  LYS157     -0.2867
     93  CB        -0.4660  -53.2250   81.5240 C.3   157  LYS157      0.0271
     94  CG         0.1590  -53.1090   82.8870 C.3   157  LYS157      0.0035
     95  CD        -0.4650  -51.9720   83.6880 C.3   157  LYS157      0.0206
     96  CE         0.1890  -51.8520   85.0650 C.3   157  LYS157      0.1093
     97  NZ        -0.8330  -51.7420   86.1470 N.3   157  LYS157     -0.1314
     98  N         -4.4310  -54.7840   77.2660 N.3   159  TYR159     -0.1241
     99  CA        -5.8630  -54.5540   77.3400 C.3   159  TYR159      0.1605
    100  C         -6.4500  -55.0660   76.0540 C.2   159  TYR159      0.2264
    101  O         -5.8320  -54.9430   74.9960 O.2   159  TYR159     -0.2867
    102  CB        -6.1700  -53.0630   77.4940 C.3   159  TYR159      0.0534
    103  CG        -5.5020  -52.4470   78.6880 C.ar  159  TYR159     -0.0201
    104  CD1       -4.1450  -52.1040   78.6520 C.ar  159  TYR159     -0.0009
    105  CD2       -6.2140  -52.2120   79.8580 C.ar  159  TYR159     -0.0009
    106  CE1       -3.5140  -51.5340   79.7610 C.ar  159  TYR159      0.0417
    107  CE2       -5.6010  -51.6390   80.9730 C.ar  159  TYR159      0.0417
    108  CZ        -4.2490  -51.3040   80.9210 C.ar  159  TYR159      0.1957
    109  OH        -3.6470  -50.7380   82.0260 O.3   159  TYR159     -0.2866
@<TRIPOS>BOND
     1   101   100    2
     2   100    99    1
     3    98    99    1
     4    99   102    1
     5   102   103    1
     6    92    91    2
     7   104   103   ar
     8   104   106   ar
     9   103   105   ar
    10    91    90    1
    11   106   108   ar
    12   105   107   ar
    13    89    90    1
    14    70    71    1
    15    90    93    1
    16   108   107   ar
    17   108   109    1
    18    71    72    1
    19    71    74    1
    20    79    76    1
    21    93    94    1
    22    75    72   am
    23    75    76    1
    24    72    73    2
    25    78    77    2
    26    76    77    1
    27    65    64    2
    28    77    80   am
    29    94    95    1
    30    64    63    1
    31    52    53    1
    32    52    49    1
    33    54    53   ar
    34    54    56   ar
    35    80    81    1
    36    95    96    1
    37    53    55   ar
    38    82    81    1
    39    82    83    2
    40    81    84    1
    41    56    57   ar
    42    55    57   ar
    43    55    58   ar
    44    57    59   ar
    45    62    63    1
    46    62    50   am
    47    45    44    2
    48    58    60   ar
    49    59    61   ar
    50    49    50    1
    51    49    48    1
    52    63    66    1
    53    60    61   ar
    54    96    97    1
    55    84    85    1
    56    85    86    1
    57    50    51    2
    58    44    48   am
    59    44    43    1
    60    66    67    1
    61    42    43    1
    62    67    68    1
    63    67    69    1
    64    43    46    1
    65    86    88   ar
    66    86    87   ar
    67    24    25    1
    68    19    18    2
    69    25    26    1
    70    25    28    1
    71    26    29    1
    72    26    27    2
    73    29    30    2
    74    46    47    1
    75    32    31    2
    76    18    17    1
    77    30    31    1
    78    31    33   am
    79    16    17    1
    80    35    34    1
    81    35    36    2
    82    33    34    1
    83    17    20    1
    84    34    37    1
    85    12    11    2
    86    22    21    1
    87    11    10    1
    88    21    20    1
    89    21    23    1
    90    37    38    1
    91    38    39    1
    92     9    10    1
    93    10    13    1
    94     1     2    1
    95     3     2    1
    96     3     4    2
    97    39    40    2
    98    39    41   am
    99     2     5    1
   100    13    14    1
   101    13    15    1
   102     7     6    1
   103     5     6    1
   104     6     8    1
