@<TRIPOS>MOLECULE
tmp/3sy9B04.pdb
 100 97 0 0 0
SMALL
GASTEIGER

@<TRIPOS>ATOM
      1  N         43.7380  -61.9160    7.9480 N.3   122  LEU122     -0.1245
      2  CA        42.4360  -62.5190    7.7220 C.3   122  LEU122      0.1561
      3  C         42.1040  -63.5430    8.7920 C.2   122  LEU122      0.2260
      4  O         42.8250  -64.5370    8.9560 O.2   122  LEU122     -0.2867
      5  CB        42.3750  -63.1910    6.3480 C.3   122  LEU122      0.0270
      6  CG        40.9870  -63.1860    5.6970 C.3   122  LEU122      0.0019
      7  CD1       40.6710  -64.5260    5.0860 C.3   122  LEU122      0.0001
      8  CD2       39.9280  -62.8040    6.7120 C.3   122  LEU122      0.0001
      9  N         39.0360  -66.1960    9.7980 N.3   124  LEU124     -0.1245
     10  CA        37.7440  -66.7860    9.4560 C.3   124  LEU124      0.1561
     11  C         37.1870  -67.5850   10.6240 C.2   124  LEU124      0.2260
     12  O         37.9360  -68.2760   11.3370 O.2   124  LEU124     -0.2867
     13  CB        37.8780  -67.6710    8.2270 C.3   124  LEU124      0.0270
     14  CG        38.3370  -66.8990    7.0000 C.3   124  LEU124      0.0019
     15  CD1       38.5980  -67.8240    5.8340 C.3   124  LEU124      0.0001
     16  CD2       37.2700  -65.8800    6.6430 C.3   124  LEU124      0.0001
     17  N         28.6630  -67.9350   10.4970 N.3   144  LEU144     -0.1231
     18  CA        29.8340  -67.8950    9.6240 C.3   144  LEU144      0.1696
     19  C         30.3130  -66.4330    9.5320 C.2   144  LEU144      0.2632
     20  O         29.5080  -65.5110    9.3370 O.2   144  LEU144     -0.2714
     21  CB        29.5160  -68.4830    8.2270 C.3   144  LEU144      0.0284
     22  CG        30.5780  -68.3240    7.1190 C.3   144  LEU144      0.0019
     23  CD1       31.8290  -69.1120    7.4190 C.3   144  LEU144      0.0001
     24  CD2       30.0710  -68.6350    5.7290 C.3   144  LEU144      0.0001
     25  N         31.6160  -66.2090    9.6800 N.am  145  GLY145     -0.1718
     26  CA        32.1200  -64.8540    9.6360 C.2   145  GLY145      0.1480
     27  C         33.6040  -64.6660    9.4140 C.2   145  GLY145      0.2821
     28  O         34.3920  -65.5970    9.5320 O.2   145  GLY145     -0.2669
     29  N         33.9840  -63.4310    9.0940 N.am  146  GLY146     -0.1920
     30  CA        35.3770  -63.1040    8.8520 C.3   146  GLY146      0.1872
     31  C         35.7410  -61.6750    9.2060 C.2   146  GLY146      0.2310
     32  O         34.8890  -60.7980    9.3020 O.2   146  GLY146     -0.2863
     33  N         38.7730  -58.8540    8.0420 N.3   148  TRP148     -0.1241
     34  CA        39.8680  -58.6180    7.0900 C.3   148  TRP148      0.1605
     35  C         40.6530  -57.3450    7.3920 C.2   148  TRP148      0.2264
     36  O         40.0740  -56.2910    7.6360 O.2   148  TRP148     -0.2867
     37  CB        39.3480  -58.5930    5.6540 C.3   148  TRP148      0.0550
     38  CG        40.4260  -58.5040    4.6040 C.ar  148  TRP148      0.0003
     39  CD1       41.3850  -59.4400    4.3270 C.ar  148  TRP148      0.0946
     40  CD2       40.6330  -57.4300    3.6700 C.ar  148  TRP148      0.0152
     41  NE1       42.1780  -59.0090    3.2880 N.ar  148  TRP148     -0.2442
     42  CE2       41.7380  -57.7830    2.8680 C.ar  148  TRP148      0.0810
     43  CE3       39.9930  -56.2090    3.4380 C.ar  148  TRP148      0.0012
     44  CZ2       42.2140  -56.9530    1.8530 C.ar  148  TRP148      0.0191
     45  CZ3       40.4670  -55.3920    2.4300 C.ar  148  TRP148      0.0001
     46  CH2       41.5670  -55.7680    1.6500 C.ar  148  TRP148      0.0015
     47  N         42.9890  -49.8010    8.2790 N.3   154  PHE154     -0.1241
     48  CA        41.5950  -50.1730    8.0250 C.3   154  PHE154      0.1605
     49  C         41.2900  -51.6580    8.2670 C.2   154  PHE154      0.2264
     50  O         42.0570  -52.5340    7.8580 O.2   154  PHE154     -0.2867
     51  CB        41.2230  -49.7180    6.6070 C.3   154  PHE154      0.0534
     52  CG        40.1250  -50.5010    5.9480 C.ar  154  PHE154     -0.0203
     53  CD1       38.8010  -50.1340    6.1070 C.ar  154  PHE154     -0.0042
     54  CD2       40.4230  -51.5620    5.1010 C.ar  154  PHE154     -0.0042
     55  CE1       37.7900  -50.8440    5.4680 C.ar  154  PHE154     -0.0003
     56  CE2       39.4170  -52.2730    4.4580 C.ar  154  PHE154     -0.0003
     57  CZ        38.1040  -51.9130    4.6390 C.ar  154  PHE154     -0.0000
     58  N         37.9390  -54.6440    8.3050 N.3   156  SER156     -0.1217
     59  CA        36.5960  -54.9520    7.8280 C.3   156  SER156      0.1889
     60  C         36.0140  -56.2090    8.5070 C.2   156  SER156      0.2288
     61  O         36.7560  -57.1320    8.8740 O.2   156  SER156     -0.2866
     62  CB        36.6400  -55.1320    6.3100 C.3   156  SER156      0.2089
     63  OG        35.4270  -54.7110    5.7180 O.3   156  SER156     -0.2183
     64  N         32.5790  -59.1200    8.2190 N.3   158  LEU158     -0.1231
     65  CA        31.3390  -59.6680    7.6710 C.3   158  LEU158      0.1693
     66  C         30.9810  -60.9630    8.4260 C.2   158  LEU158      0.2592
     67  O         31.7660  -61.9320    8.4660 O.2   158  LEU158     -0.2718
     68  CB        31.5230  -59.9530    6.1800 C.3   158  LEU158      0.0284
     69  CG        30.3580  -59.7080    5.2310 C.3   158  LEU158      0.0019
     70  CD1       30.2630  -60.8420    4.2150 C.3   158  LEU158      0.0001
     71  CD2       29.0530  -59.5360    5.9970 C.3   158  LEU158      0.0001
     72  N         29.8000  -60.9810    9.0300 N.am  159  TYR159     -0.1962
     73  CA        29.3530  -62.1350    9.7980 C.3   159  TYR159      0.1771
     74  C         27.8890  -62.4170    9.5110 C.2   159  TYR159      0.2619
     75  O         27.1660  -61.5420    9.0480 O.2   159  TYR159     -0.2715
     76  CB        29.5270  -61.8610   11.2900 C.3   159  TYR159      0.0574
     77  CG        30.8530  -62.3120   11.8510 C.ar  159  TYR159     -0.0198
     78  CD1       32.0070  -61.5650   11.6330 C.ar  159  TYR159     -0.0009
     79  CD2       30.9570  -63.4880   12.6050 C.ar  159  TYR159     -0.0009
     80  CE1       33.2220  -61.9690   12.1430 C.ar  159  TYR159      0.0417
     81  CE2       32.1700  -63.9010   13.1140 C.ar  159  TYR159      0.0417
     82  CZ        33.2980  -63.1310   12.8790 C.ar  159  TYR159      0.1957
     83  OH        34.5190  -63.5150   13.3730 O.3   159  TYR159     -0.2866
     84  N         27.4490  -63.6390    9.7880 N.am  160  ALA160     -0.1977
     85  CA        26.0220  -63.9470    9.7940 C.3   160  ALA160      0.1597
     86  C         25.7440  -64.9980   10.8510 C.2   160  ALA160      0.2287
     87  O         26.6390  -65.7550   11.2390 O.2   160  ALA160     -0.2864
     88  CB        25.5600  -64.4260    8.4310 C.3   160  ALA160      0.0319
     89  N         22.5230  -60.5630   10.0000 N.3   170  TYR170     -0.1241
     90  CA        23.7290  -60.2050    9.2360 C.3   170  TYR170      0.1605
     91  C         24.4400  -58.9570    9.7590 C.2   170  TYR170      0.2264
     92  O         23.8030  -58.0380   10.2710 O.2   170  TYR170     -0.2867
     93  CB        23.3810  -60.0340    7.7690 C.3   170  TYR170      0.0534
     94  CG        22.4570  -61.1190    7.3170 C.ar  170  TYR170     -0.0201
     95  CD1       21.0800  -60.9720    7.4350 C.ar  170  TYR170     -0.0009
     96  CD2       22.9580  -62.3110    6.8070 C.ar  170  TYR170     -0.0009
     97  CE1       20.2260  -61.9790    7.0310 C.ar  170  TYR170      0.0417
     98  CE2       22.1140  -63.3210    6.3970 C.ar  170  TYR170      0.0417
     99  CZ        20.7500  -63.1570    6.5170 C.ar  170  TYR170      0.1957
    100  OH        19.9030  -64.1660    6.1200 O.3   170  TYR170     -0.2866
@<TRIPOS>BOND
     1    46    44   ar
     2    46    45   ar
     3    44    42   ar
     4    45    43   ar
     5    42    41   ar
     6    42    40   ar
     7    41    39   ar
     8    43    40   ar
     9    40    38   ar
    10    70    69    1
    11    39    38   ar
    12    56    57   ar
    13    56    54   ar
    14    38    37    1
    15    57    55   ar
    16     7     6    1
    17    54    52   ar
    18    69    71    1
    19    69    68    1
    20    55    53   ar
    21    37    34    1
    22     6     5    1
    23     6     8    1
    24    63    62    1
    25    24    22    1
    26    15    14    1
    27    52    53   ar
    28    52    51    1
    29   100    99    1
    30    68    65    1
    31    62    59    1
    32     5     2    1
    33    98    99   ar
    34    98    96   ar
    35    99    97   ar
    36    51    48    1
    37    16    14    1
    38    96    94   ar
    39    14    13    1
    40    97    95   ar
    41    34    35    1
    42    34    33    1
    43    22    23    1
    44    22    21    1
    45    94    95   ar
    46    94    93    1
    47    35    36    2
    48    65    64    1
    49    65    66    1
    50     2     1    1
    51     2     3    1
    52    93    90    1
    53    59    58    1
    54    59    60    1
    55    50    49    2
    56    48    49    1
    57    48    47    1
    58    21    18    1
    59    13    10    1
    60    66    67    2
    61    66    72   am
    62    88    85    1
    63    60    61    2
    64     3     4    2
    65    30    29    1
    66    30    31    1
    67    72    73    1
    68    75    74    2
    69    29    27   am
    70    31    32    2
    71    90    91    1
    72    90    89    1
    73    20    19    2
    74    27    28    2
    75    27    26    1
    76    10     9    1
    77    10    11    1
    78    74    84   am
    79    74    73    1
    80    19    18    1
    81    19    25    1
    82    18    17    1
    83    26    25    2
    84    91    92    2
    85    84    85    1
    86    85    86    1
    87    73    76    1
    88    11    12    2
    89    86    87    2
    90    76    77    1
    91    78    77   ar
    92    78    80   ar
    93    77    79   ar
    94    80    82   ar
    95    79    81   ar
    96    82    81   ar
    97    82    83    1
