@<TRIPOS>MOLECULE
tmp/3sy9C06.pdb
 92 90 0 0 0
SMALL
GASTEIGER

@<TRIPOS>ATOM
      1  N        -17.0020  -17.2140   55.4060 N.3   212  VAL212     -0.1245
      2  CA       -15.8740  -18.0210   55.8420 C.3   212  VAL212      0.1561
      3  C        -15.6910  -19.1690   54.8630 C.2   212  VAL212      0.2260
      4  O        -16.6600  -19.7980   54.4420 O.2   212  VAL212     -0.2867
      5  CB       -16.0330  -18.5350   57.2720 C.3   212  VAL212      0.0252
      6  CG1      -17.4480  -19.0240   57.5050 C.3   212  VAL212      0.0019
      7  CG2      -15.0170  -19.6340   57.5410 C.3   212  VAL212      0.0019
      8  N         -7.7070  -21.2970   55.4540 N.3   255  LEU255     -0.1231
      9  CA        -8.9170  -20.8420   56.1290 C.3   255  LEU255      0.1693
     10  C         -9.0630  -19.3340   55.9030 C.2   255  LEU255      0.2592
     11  O         -8.1500  -18.5550   56.2030 O.2   255  LEU255     -0.2718
     12  CB        -8.8610  -21.1830   57.6170 C.3   255  LEU255      0.0284
     13  CG       -10.1840  -21.0700   58.3670 C.3   255  LEU255      0.0019
     14  CD1      -11.0530  -22.2400   58.0630 C.3   255  LEU255      0.0001
     15  CD2      -10.0000  -21.0160   59.8860 C.3   255  LEU255      0.0001
     16  N        -10.2060  -18.9270   55.3570 N.am  256  GLN256     -0.1966
     17  CA       -10.3780  -17.5460   54.9110 C.3   256  GLN256      0.1733
     18  C        -11.6810  -16.9020   55.3660 C.2   256  GLN256      0.2616
     19  O        -12.7450  -17.5250   55.3500 O.2   256  GLN256     -0.2715
     20  CB       -10.2950  -17.4740   53.3940 C.3   256  GLN256      0.0408
     21  CG        -9.6850  -16.1950   52.8690 C.3   256  GLN256      0.0908
     22  CD        -9.7050  -16.1370   51.3510 C.2   256  GLN256      0.2608
     23  OE1      -10.7740  -16.1460   50.7480 O.2   256  GLN256     -0.2717
     24  NE2       -8.5240  -16.0870   50.7270 N.am  256  GLN256     -0.0878
     25  N        -11.5840  -15.6360   55.7530 N.am  257  TYR257     -0.1974
     26  CA       -12.7450  -14.8770   56.1970 C.3   257  TYR257      0.1639
     27  C        -12.9040  -13.5820   55.4210 C.2   257  TYR257      0.2290
     28  O        -11.9880  -12.7590   55.3600 O.2   257  TYR257     -0.2864
     29  CB       -12.6350  -14.5600   57.6780 C.3   257  TYR257      0.0560
     30  CG       -13.6790  -13.5880   58.1600 C.ar  257  TYR257     -0.0198
     31  CD1      -15.0290  -13.8680   58.0240 C.ar  257  TYR257     -0.0009
     32  CD2      -13.3140  -12.3950   58.7660 C.ar  257  TYR257     -0.0009
     33  CE1      -15.9890  -12.9870   58.4770 C.ar  257  TYR257      0.0417
     34  CE2      -14.2590  -11.5100   59.2170 C.ar  257  TYR257      0.0417
     35  CZ       -15.5970  -11.8080   59.0730 C.ar  257  TYR257      0.1957
     36  OH       -16.5440  -10.9170   59.5250 O.3   257  TYR257     -0.2866
     37  N         -9.2310  -11.8300   55.4870 N.3   273  ALA273     -0.1231
     38  CA        -8.0530  -12.3760   56.1560 C.3   273  ALA273      0.1694
     39  C         -7.8940  -13.8580   55.8480 C.2   273  ALA273      0.2593
     40  O         -8.8630  -14.6200   55.9040 O.2   273  ALA273     -0.2718
     41  CB        -8.1300  -12.1480   57.6580 C.3   273  ALA273      0.0304
     42  N         -6.6710  -14.2640   55.5160 N.am  274  SER274     -0.1938
     43  CA        -6.4120  -15.6630   55.1840 C.3   274  SER274      0.2055
     44  C         -5.2210  -16.2420   55.9370 C.2   274  SER274      0.2643
     45  O         -4.2040  -15.5600   56.1210 O.2   274  SER274     -0.2714
     46  CB        -6.1760  -15.8230   53.6850 C.3   274  SER274      0.2130
     47  OG        -4.8050  -16.0680   53.4240 O.3   274  SER274     -0.2179
     48  N         -5.3650  -17.4980   56.3690 N.am  275  TYR275     -0.1973
     49  CA        -4.2380  -18.2970   56.8480 C.3   275  TYR275      0.1639
     50  C         -4.0410  -19.5600   56.0070 C.2   275  TYR275      0.2290
     51  O         -4.9500  -20.3750   55.8500 O.2   275  TYR275     -0.2864
     52  CB        -4.3890  -18.6630   58.3250 C.3   275  TYR275      0.0560
     53  CG        -3.2210  -19.4700   58.8740 C.ar  275  TYR275     -0.0198
     54  CD1       -1.9990  -18.8630   59.1450 C.ar  275  TYR275     -0.0009
     55  CD2       -3.3430  -20.8340   59.1260 C.ar  275  TYR275     -0.0009
     56  CE1       -0.9310  -19.5850   59.6460 C.ar  275  TYR275      0.0417
     57  CE2       -2.2760  -21.5690   59.6320 C.ar  275  TYR275      0.0417
     58  CZ        -1.0710  -20.9380   59.8900 C.ar  275  TYR275      0.1957
     59  OH        -0.0040  -21.6590   60.3890 O.3   275  TYR275     -0.2866
     60  N          3.8960  -21.3940   55.6820 N.3   306  TRP306     -0.1241
     61  CA         2.5830  -20.7890   55.8850 C.3   306  TRP306      0.1605
     62  C          2.5450  -19.2910   55.5480 C.2   306  TRP306      0.2264
     63  O          3.5100  -18.5630   55.7840 O.2   306  TRP306     -0.2867
     64  CB         2.1010  -21.0380   57.3190 C.3   306  TRP306      0.0550
     65  CG         2.9650  -20.4050   58.3710 C.ar  306  TRP306      0.0003
     66  CD1        4.0110  -20.9820   59.0240 C.ar  306  TRP306      0.0946
     67  CD2        2.8540  -19.0730   58.8910 C.ar  306  TRP306      0.0152
     68  NE1        4.5600  -20.0980   59.9190 N.ar  306  TRP306     -0.2442
     69  CE2        3.8700  -18.9170   59.8570 C.ar  306  TRP306      0.0810
     70  CE3        1.9930  -18.0000   58.6370 C.ar  306  TRP306      0.0012
     71  CZ2        4.0520  -17.7290   60.5710 C.ar  306  TRP306      0.0191
     72  CZ3        2.1740  -16.8210   59.3480 C.ar  306  TRP306      0.0001
     73  CH2        3.1960  -16.6950   60.3040 C.ar  306  TRP306      0.0015
     74  N          0.1970  -15.7120   56.0260 N.3   308  ARG308     -0.1245
     75  CA        -0.9280  -14.9740   56.5830 C.3   308  ARG308      0.1563
     76  C         -1.2330  -13.8060   55.6390 C.2   308  ARG308      0.2260
     77  O         -0.3480  -13.0040   55.3270 O.2   308  ARG308     -0.2867
     78  CB        -0.5980  -14.4790   57.9920 C.3   308  ARG308      0.0307
     79  CG        -1.7890  -13.9030   58.7530 C.3   308  ARG308      0.0489
     80  CD        -1.6950  -12.3930   58.8690 C.3   308  ARG308      0.2205
     81  NE        -0.8740  -11.9820   60.0050 N.pl3 308  ARG308     -0.0865
     82  CZ        -0.1640  -10.8580   60.0490 C.cat 308  ARG308      0.5346
     83  NH1       -0.1600  -10.0290   59.0090 N.pl3 308  ARG308      0.1354
     84  NH2        0.5500  -10.5680   61.1310 N.pl3 308  ARG308      0.1354
     85  N         -3.4430  -10.3770   54.6980 N.3   310  LEU310     -0.1245
     86  CA        -4.3630   -9.2930   55.0230 C.3   310  LEU310      0.1561
     87  C         -4.7060   -8.5110   53.7630 C.2   310  LEU310      0.2260
     88  O         -3.8270   -8.1830   52.9550 O.2   310  LEU310     -0.2867
     89  CB        -3.7750   -8.3730   56.0860 C.3   310  LEU310      0.0270
     90  CG        -3.6200   -9.0440   57.4510 C.3   310  LEU310      0.0019
     91  CD1       -3.0100   -8.0930   58.4780 C.3   310  LEU310      0.0001
     92  CD2       -4.9650   -9.5790   57.9230 C.3   310  LEU310      0.0001
@<TRIPOS>BOND
     1    24    22   am
     2    23    22    2
     3    22    21    1
     4    21    20    1
     5    88    87    2
     6    20    17    1
     7    47    46    1
     8    46    43    1
     9    87    86    1
    10     4     3    2
    11    85    86    1
    12     3     2    1
    13    17    16    1
    14    17    18    1
    15    86    89    1
    16    43    42    1
    17    43    44    1
    18    77    76    2
    19    19    18    2
    20    16    10   am
    21    28    27    2
    22    18    25   am
    23     1     2    1
    24    27    26    1
    25     8     9    1
    26    37    38    1
    27    42    39   am
    28    62    63    2
    29    62    61    1
    30    76    75    1
    31    60    61    1
    32    25    26    1
    33     2     5    1
    34    39    40    2
    35    39    38    1
    36    51    50    2
    37    61    64    1
    38    10     9    1
    39    10    11    2
    40    44    45    2
    41    44    48   am
    42    50    49    1
    43    74    75    1
    44    89    90    1
    45     9    12    1
    46    38    41    1
    47    26    29    1
    48    48    49    1
    49    75    78    1
    50    49    52    1
    51     5     6    1
    52     5     7    1
    53    64    65    1
    54    90    92    1
    55    90    91    1
    56    12    13    1
    57    29    30    1
    58    78    79    1
    59    31    30   ar
    60    31    33   ar
    61    14    13    1
    62    30    32   ar
    63    52    53    1
    64    13    15    1
    65    65    67   ar
    66    65    66   ar
    67    33    35   ar
    68    70    67   ar
    69    70    72   ar
    70    79    80    1
    71    32    34   ar
    72    80    81    1
    73    53    55   ar
    74    53    54   ar
    75    67    69   ar
    76    83    82    1
    77    66    68   ar
    78    35    34   ar
    79    35    36    1
    80    55    57   ar
    81    54    56   ar
    82    72    73   ar
    83    57    58   ar
    84    56    58   ar
    85    69    68   ar
    86    69    71   ar
    87    58    59    1
    88    81    82    2
    89    82    84    1
    90    73    71   ar
