@<TRIPOS>MOLECULE
tmp/3sy9B03.pdb
 74 70 0 0 0
SMALL
GASTEIGER

@<TRIPOS>ATOM
      1  N         41.6230  -79.1900   18.4860 N.3    78  ILE78      -0.1245
      2  CA        42.3740  -79.8330   17.4340 C.3    78  ILE78       0.1561
      3  C         42.8970  -78.7670   16.4940 C.2    78  ILE78       0.2260
      4  O         42.1230  -78.0540   15.8520 O.2    78  ILE78      -0.2867
      5  CB        41.5190  -80.8060   16.6340 C.3    78  ILE78       0.0252
      6  CG1       40.7350  -81.7260   17.5670 C.3    78  ILE78       0.0019
      7  CG2       42.3910  -81.6170   15.6770 C.3    78  ILE78       0.0019
      8  CD1       39.6570  -82.4950   16.8260 C.3    78  ILE78       0.0001
      9  N         35.6750  -78.2400   20.4150 N.3    87  LEU87      -0.1231
     10  CA        34.4690  -79.0390   20.6230 C.3    87  LEU87       0.1693
     11  C         34.2230  -79.2290   22.1060 C.2    87  LEU87       0.2592
     12  O         35.0050  -79.8910   22.7940 O.2    87  LEU87      -0.2718
     13  CB        34.5650  -80.4030   19.9160 C.3    87  LEU87       0.0284
     14  CG        35.0880  -80.4220   18.4780 C.3    87  LEU87       0.0019
     15  CD1       36.5930  -80.5730   18.4880 C.3    87  LEU87       0.0001
     16  CD2       34.4870  -81.5550   17.7180 C.3    87  LEU87       0.0001
     17  N         33.1460  -78.6310   22.6020 N.am   88  GLY88      -0.1957
     18  CA        32.9210  -78.5760   24.0350 C.3    88  GLY88       0.1869
     19  C         32.2740  -77.2740   24.5160 C.2    88  GLY88       0.2309
     20  O         31.6500  -76.5200   23.7400 O.2    88  GLY88      -0.2863
     21  N         27.9530  -74.4280   24.2720 N.3   110  ARG110     -0.1231
     22  CA        28.2760  -75.8330   24.0320 C.3   110  ARG110      0.1694
     23  C         28.1120  -76.0950   22.5410 C.2   110  ARG110      0.2593
     24  O         27.0330  -75.8510   21.9770 O.2   110  ARG110     -0.2718
     25  CB        27.3340  -76.7390   24.8270 C.3   110  ARG110      0.0321
     26  CG        27.9320  -78.0580   25.2490 C.3   110  ARG110      0.0489
     27  CD        26.9130  -78.9450   25.9570 C.3   110  ARG110      0.2205
     28  NE        27.5510  -80.1170   26.5480 N.pl3 110  ARG110     -0.0865
     29  CZ        27.8610  -80.2220   27.8350 C.cat 110  ARG110      0.5346
     30  NH1       27.5740  -79.2270   28.6670 N.pl3 110  ARG110      0.1354
     31  NH2       28.4460  -81.3230   28.2930 N.pl3 110  ARG110      0.1354
     32  N         29.1740  -76.5740   21.8960 N.am  111  GLY111     -0.1942
     33  CA        29.1200  -76.7650   20.4610 C.3   111  GLY111      0.2014
     34  C         30.4710  -76.8220   19.7960 C.2   111  GLY111      0.2638
     35  O         31.4540  -77.2000   20.4250 O.2   111  GLY111     -0.2714
     36  N         30.4940  -76.4560   18.5150 N.am  112  VAL112     -0.1977
     37  CA        31.7040  -76.4080   17.6990 C.3   112  VAL112      0.1596
     38  C         32.0520  -74.9920   17.2440 C.2   112  VAL112      0.2287
     39  O         31.1850  -74.2450   16.7910 O.2   112  VAL112     -0.2864
     40  CB        31.4910  -77.1830   16.4040 C.3   112  VAL112      0.0276
     41  CG1       32.8340  -77.4120   15.6880 C.3   112  VAL112      0.0022
     42  CG2       30.7600  -78.4810   16.6950 C.3   112  VAL112      0.0022
     43  N         28.6180  -73.8330   15.4150 N.3   128  GLN128     -0.1231
     44  CA        27.2870  -74.2870   15.8120 C.3   128  GLN128      0.1698
     45  C         27.3020  -74.5920   17.2880 C.2   128  GLN128      0.2592
     46  O         28.0820  -75.4240   17.7560 O.2   128  GLN128     -0.2718
     47  CB        26.8320  -75.5110   15.0300 C.3   128  GLN128      0.0381
     48  CG        26.4670  -75.2050   13.5920 C.3   128  GLN128      0.0905
     49  CD        25.4610  -76.1710   13.0070 C.2   128  GLN128      0.2608
     50  OE1       25.0810  -77.1570   13.6410 O.2   128  GLN128     -0.2717
     51  NE2       25.0240  -75.8940   11.7840 N.am  128  GLN128     -0.0878
     52  N         26.4520  -73.8970   18.0290 N.am  129  VAL129     -0.1966
     53  CA        26.4230  -74.0710   19.4640 C.3   129  VAL129      0.1727
     54  C         25.0170  -74.0040   20.0060 C.2   129  VAL129      0.2616
     55  O         24.0440  -73.7680   19.2790 O.2   129  VAL129     -0.2715
     56  CB        27.2800  -73.0030   20.2100 C.3   129  VAL129      0.0290
     57  CG1       28.7500  -73.1270   19.8430 C.3   129  VAL129      0.0023
     58  CG2       26.7430  -71.5860   19.9600 C.3   129  VAL129      0.0023
     59  N         24.9300  -74.2080   21.3080 N.am  130  SER130     -0.1950
     60  CA        23.6820  -74.0680   22.0060 C.3   130  SER130      0.1924
     61  C         24.0380  -73.4500   23.3370 C.2   130  SER130      0.2314
     62  O         25.1820  -73.5390   23.7720 O.2   130  SER130     -0.2863
     63  CB        22.9930  -75.4280   22.1780 C.3   130  SER130      0.2116
     64  OG        23.7820  -76.3190   22.9560 O.3   130  SER130     -0.2180
     65  N         19.5930  -72.4550   19.9570 N.3   140  HIS140     -0.1241
     66  CA        20.6100  -72.9320   19.0280 C.3   140  HIS140      0.1621
     67  C         21.0050  -71.8340   18.0330 C.2   140  HIS140      0.2264
     68  O         20.1490  -71.1390   17.4650 O.2   140  HIS140     -0.2867
     69  CB        20.1250  -74.1870   18.3050 C.3   140  HIS140      0.0745
     70  CG        19.7210  -75.2800   19.2420 C.ar  140  HIS140      0.0817
     71  ND1       20.6150  -76.2130   19.7250 N.ar  140  HIS140     -0.2268
     72  CD2       18.5320  -75.5620   19.8240 C.ar  140  HIS140      0.1154
     73  CE1       19.9880  -77.0350   20.5460 C.ar  140  HIS140      0.1986
     74  NE2       18.7240  -76.6590   20.6270 N.ar  140  HIS140     -0.2212
@<TRIPOS>BOND
     1    51    49   am
     2    49    48    1
     3    49    50    2
     4    48    47    1
     5    47    44    1
     6    43    44    1
     7     7     5    1
     8    41    40    1
     9    44    45    1
    10     4     3    2
    11    40    42    1
    12    40    37    1
    13     3     2    1
    14     5     2    1
    15     5     6    1
    16    39    38    2
    17     8     6    1
    18    38    37    1
    19    45    46    2
    20    45    52   am
    21     2     1    1
    22    68    67    2
    23    37    36    1
    24    16    14    1
    25    52    53    1
    26    67    66    1
    27    69    66    1
    28    69    70    1
    29    14    15    1
    30    14    13    1
    31    36    34   am
    32    66    65    1
    33    70    71   ar
    34    70    72   ar
    35    55    54    2
    36    53    54    1
    37    53    56    1
    38    71    73   ar
    39    34    35    2
    40    34    33    1
    41    72    74   ar
    42    57    56    1
    43    13    10    1
    44    58    56    1
    45    54    59   am
    46     9    10    1
    47    33    32    1
    48    73    74   ar
    49    10    11    1
    50    59    60    1
    51    32    23   am
    52    24    23    2
    53    60    63    1
    54    60    61    1
    55    11    17   am
    56    11    12    2
    57    63    64    1
    58    23    22    1
    59    17    18    1
    60    61    62    2
    61    20    19    2
    62    22    21    1
    63    22    25    1
    64    18    19    1
    65    25    26    1
    66    26    27    1
    67    27    28    1
    68    28    29    2
    69    29    31    1
    70    29    30    1
