@<TRIPOS>MOLECULE
tmp/3sy9C01.pdb
 87 81 0 0 0
SMALL
GASTEIGER

@<TRIPOS>ATOM
      1  N        -22.2430  -15.3160   13.1310 N.3    73  PHE73      -0.1241
      2  CA       -22.7790  -16.5660   13.6270 C.3    73  PHE73       0.1605
      3  C        -22.4090  -16.7550   15.0950 C.2    73  PHE73       0.2264
      4  O        -21.9120  -17.8020   15.4980 O.2    73  PHE73      -0.2867
      5  CB       -22.2110  -17.7090   12.7880 C.3    73  PHE73       0.0534
      6  CG       -22.2980  -17.4770   11.3140 C.ar   73  PHE73      -0.0203
      7  CD1      -21.1950  -17.0580   10.6050 C.ar   73  PHE73      -0.0042
      8  CD2      -23.4850  -17.6930   10.6300 C.ar   73  PHE73      -0.0042
      9  CE1      -21.2770  -16.8510    9.2360 C.ar   73  PHE73      -0.0003
     10  CE2      -23.5680  -17.4780    9.2610 C.ar   73  PHE73      -0.0003
     11  CZ       -22.4630  -17.0570    8.5680 C.ar   73  PHE73      -0.0000
     12  N        -19.9880  -15.8390   16.7000 N.3    75  THR75      -0.1218
     13  CA       -18.5650  -16.0730   16.9100 C.3    75  THR75       0.1862
     14  C        -17.7390  -14.8100   16.6950 C.2    75  THR75       0.2287
     15  O        -17.8370  -14.1620   15.6540 O.2    75  THR75      -0.2866
     16  CB       -18.0360  -17.1510   15.9530 C.3    75  THR75       0.1770
     17  OG1      -18.7710  -18.3590   16.1530 O.3    75  THR75      -0.2211
     18  CG2      -16.5260  -17.3780   16.1640 C.3    75  THR75       0.0375
     19  N        -13.9490  -13.3560   16.4050 N.3    77  LEU77      -0.1245
     20  CA       -12.6050  -13.7480   16.0430 C.3    77  LEU77       0.1561
     21  C        -11.6710  -12.5280   16.1510 C.2    77  LEU77       0.2260
     22  O        -11.9370  -11.4840   15.5590 O.2    77  LEU77      -0.2867
     23  CB       -12.6600  -14.2440   14.6070 C.3    77  LEU77       0.0270
     24  CG       -11.4780  -15.0150   14.0710 C.3    77  LEU77       0.0019
     25  CD1      -11.3360  -16.2770   14.9120 C.3    77  LEU77       0.0001
     26  CD2      -11.6950  -15.3310   12.6000 C.3    77  LEU77       0.0001
     27  N        -10.5650  -17.0590   19.5430 N.3   106  LEU106     -0.1245
     28  CA       -11.9690  -17.1120   19.1470 C.3   106  LEU106      0.1561
     29  C        -12.9130  -17.3760   20.3120 C.2   106  LEU106      0.2260
     30  O        -12.5300  -17.9860   21.3180 O.2   106  LEU106     -0.2867
     31  CB       -12.2070  -18.0360   17.9420 C.3   106  LEU106      0.0270
     32  CG       -12.6370  -19.5020   17.9530 C.3   106  LEU106      0.0019
     33  CD1      -13.9390  -19.7760   18.7240 C.3   106  LEU106      0.0001
     34  CD2      -12.7990  -19.9260   16.5000 C.3   106  LEU106      0.0001
     35  N        -17.1410  -18.4320   20.8380 N.3   108  ASN108     -0.1240
     36  CA       -18.4590  -18.7320   20.2800 C.3   108  ASN108      0.1653
     37  C        -19.5420  -18.8420   21.3320 C.2   108  ASN108      0.2266
     38  O        -19.3380  -19.3920   22.4080 O.2   108  ASN108     -0.2867
     39  CB       -18.4470  -19.9770   19.3930 C.3   108  ASN108      0.1155
     40  CG       -19.8430  -20.4510   19.0370 C.2   108  ASN108      0.2627
     41  OD1      -20.3250  -20.2170   17.9390 O.2   108  ASN108     -0.2716
     42  ND2      -20.4980  -21.1250   19.9700 N.am  108  ASN108     -0.0877
     43  N        -22.8320  -19.7390   20.0550 N.3   110  SER110     -0.1202
     44  CA       -23.8740  -20.4010   19.2760 C.3   110  SER110      0.2020
     45  C        -24.9540  -21.1760   20.0640 C.2   110  SER110      0.2618
     46  O        -26.1360  -21.1190   19.7030 O.2   110  SER110     -0.2717
     47  CB       -23.2290  -21.3260   18.2400 C.3   110  SER110      0.2103
     48  OG       -23.0380  -20.6530   17.0090 O.3   110  SER110     -0.2182
     49  N        -24.5780  -21.9030   21.1150 N.am  111  PHE111     -0.1975
     50  CA       -25.5860  -22.6410   21.8870 C.3   111  PHE111      0.1639
     51  C        -25.7890  -22.1120   23.3020 C.2   111  PHE111      0.2290
     52  O        -24.8700  -21.5680   23.9160 O.2   111  PHE111     -0.2864
     53  CB       -25.2840  -24.1370   21.9790 C.3   111  PHE111      0.0560
     54  CG       -24.3180  -24.6360   20.9650 C.ar  111  PHE111     -0.0200
     55  CD1      -24.7620  -25.2510   19.7990 C.ar  111  PHE111     -0.0042
     56  CD2      -22.9610  -24.5230   21.1880 C.ar  111  PHE111     -0.0042
     57  CE1      -23.8630  -25.7260   18.8660 C.ar  111  PHE111     -0.0003
     58  CE2      -22.0540  -24.9960   20.2590 C.ar  111  PHE111     -0.0003
     59  CZ       -22.5030  -25.5990   19.0970 C.ar  111  PHE111     -0.0000
     60  N        -17.7330  -21.2660   24.0490 N.3   116  LEU116     -0.1231
     61  CA       -16.6020  -22.0140   23.5090 C.3   116  LEU116      0.1693
     62  C        -15.4600  -21.0690   23.1180 C.2   116  LEU116      0.2593
     63  O        -15.6960  -20.0030   22.5500 O.2   116  LEU116     -0.2718
     64  CB       -17.0490  -22.8560   22.3040 C.3   116  LEU116      0.0284
     65  CG       -18.1480  -23.9140   22.5510 C.3   116  LEU116      0.0019
     66  CD1      -18.7780  -24.3830   21.2420 C.3   116  LEU116      0.0001
     67  CD2      -17.6600  -25.1220   23.3740 C.3   116  LEU116      0.0001
     68  N        -14.2240  -21.4480   23.4400 N.am  117  THR117     -0.1939
     69  CA       -13.0610  -20.6350   23.0790 C.3   117  THR117      0.2028
     70  C        -11.9220  -21.4790   22.5430 C.2   117  THR117      0.2642
     71  O        -11.7240  -22.6030   22.9830 O.2   117  THR117     -0.2714
     72  CB       -12.5080  -19.8590   24.2790 C.3   117  THR117      0.1808
     73  OG1      -12.0520  -20.7850   25.2740 O.3   117  THR117     -0.2208
     74  CG2      -13.5720  -18.9270   24.8670 C.3   117  THR117      0.0379
     75  N        -11.1700  -20.9250   21.5990 N.am  118  ALA118     -0.1977
     76  CA        -9.9740  -21.5830   21.0960 C.3   118  ALA118      0.1597
     77  C         -9.0060  -20.5330   20.6070 C.2   118  ALA118      0.2287
     78  O         -9.4280  -19.4220   20.2990 O.2   118  ALA118     -0.2864
     79  CB       -10.3230  -22.5210   19.9590 C.3   118  ALA118      0.0319
     80  N         -8.1690  -24.9980   23.4600 N.3   133  LEU133     -0.1245
     81  CA        -9.5480  -25.2590   23.1050 C.3   133  LEU133      0.1561
     82  C        -10.2180  -25.3890   24.4530 C.2   133  LEU133      0.2260
     83  O         -9.6260  -25.9340   25.3830 O.2   133  LEU133     -0.2867
     84  CB        -9.6290  -26.5580   22.3310 C.3   133  LEU133      0.0270
     85  CG       -11.0040  -27.1270   22.0220 C.3   133  LEU133      0.0019
     86  CD1      -11.9130  -26.0430   21.4680 C.3   133  LEU133      0.0001
     87  CD2      -10.8620  -28.3050   21.0530 C.3   133  LEU133      0.0001
@<TRIPOS>BOND
     1    11     9   ar
     2    11    10   ar
     3     9     7   ar
     4    10     8   ar
     5     7     6   ar
     6     8     6   ar
     7     6     5    1
     8    26    24    1
     9     5     2    1
    10     1     2    1
    11     2     3    1
    12    24    23    1
    13    24    25    1
    14    23    20    1
    15     3     4    2
    16    22    21    2
    17    15    14    2
    18    16    17    1
    19    16    18    1
    20    16    13    1
    21    20    21    1
    22    20    19    1
    23    34    32    1
    24    14    13    1
    25    12    13    1
    26    48    47    1
    27    41    40    2
    28    31    32    1
    29    31    28    1
    30    32    33    1
    31    47    44    1
    32    57    59   ar
    33    57    55   ar
    34    40    39    1
    35    40    42   am
    36    59    58   ar
    37    28    27    1
    38    28    29    1
    39    44    43    1
    40    44    45    1
    41    39    36    1
    42    46    45    2
    43    55    54   ar
    44    79    76    1
    45    45    49   am
    46    58    56   ar
    47    36    35    1
    48    36    37    1
    49    78    77    2
    50    29    30    2
    51    77    76    1
    52    54    56   ar
    53    54    53    1
    54    87    85    1
    55    76    75    1
    56    49    50    1
    57    66    65    1
    58    37    38    2
    59    86    85    1
    60    75    70   am
    61    50    53    1
    62    50    51    1
    63    85    84    1
    64    64    65    1
    65    64    61    1
    66    84    81    1
    67    70    71    2
    68    70    69    1
    69    63    62    2
    70    65    67    1
    71    69    68    1
    72    69    72    1
    73    81    80    1
    74    81    82    1
    75    62    68   am
    76    62    61    1
    77    51    52    2
    78    61    60    1
    79    72    74    1
    80    72    73    1
    81    82    83    2
