@<TRIPOS>MOLECULE
tmp/3symA00.pdb
 183 175 0 0 0
SMALL
GASTEIGER

@<TRIPOS>ATOM
      1  N         32.9190   20.1340   39.2950 N.3    77  GLU77      -0.1245
      2  CA        31.5980   20.6140   38.8970 C.3    77  GLU77       0.1567
      3  C         30.6220   19.4750   38.6670 C.2    77  GLU77       0.2260
      4  O         30.9520   18.4850   38.0000 O.2    77  GLU77      -0.2867
      5  CB        31.6960   21.5150   37.6460 C.3    77  GLU77       0.0388
      6  CG        32.5230   22.7770   37.8640 C.3    77  GLU77       0.1160
      7  CD        32.4870   23.7280   36.6890 C.2    77  GLU77       0.3649
      8  OE1       33.4200   24.5430   36.5840 O.co2  77  GLU77      -0.2457
      9  OE2       31.5320   23.6780   35.8720 O.co2  77  GLU77      -0.2457
     10  N         29.3600   25.3770   36.0870 N.3   122  ASN122     -0.1225
     11  CA        29.3480   26.6020   35.3010 C.3   122  ASN122      0.1785
     12  C         28.6180   26.4710   34.0000 C.2   122  ASN122      0.2598
     13  O         27.9400   27.3900   33.6020 O.2   122  ASN122     -0.2718
     14  CB        30.7710   27.0830   35.0020 C.3   122  ASN122      0.1169
     15  CG        31.3740   27.8550   36.1500 C.2   122  ASN122      0.2627
     16  OD1       30.9950   28.9960   36.4140 O.2   122  ASN122     -0.2716
     17  ND2       32.3160   27.2350   36.8430 N.am  122  ASN122     -0.0877
     18  N         28.7790   25.3340   33.3260 N.am  123  GLY123     -0.1942
     19  CA        28.2470   25.1350   31.9810 C.3   123  GLY123      0.2014
     20  C         28.5100   23.7380   31.4650 C.2   123  GLY123      0.2639
     21  O         28.1770   22.7590   32.1340 O.2   123  GLY123     -0.2714
     22  N         29.1250   23.6420   30.2910 N.am  124  GLY124     -0.1939
     23  CA        29.2260   22.3780   29.5600 C.3   124  GLY124      0.2014
     24  C         29.8670   21.2350   30.3130 C.2   124  GLY124      0.2638
     25  O         29.3260   20.1230   30.4020 O.2   124  GLY124     -0.2714
     26  N         31.0340   21.5240   30.8620 N.am  125  LEU125     -0.1977
     27  CA        31.8380   20.5590   31.6060 C.3   125  LEU125      0.1596
     28  C         31.1170   20.0570   32.8830 C.2   125  LEU125      0.2287
     29  O         31.1670   18.8640   33.2200 O.2   125  LEU125     -0.2864
     30  CB        33.1900   21.2370   31.9080 C.3   125  LEU125      0.0297
     31  CG        34.1960   20.7790   32.9460 C.3   125  LEU125      0.0022
     32  CD1       35.5410   21.4360   32.6480 C.3   125  LEU125      0.0001
     33  CD2       33.7120   21.1420   34.3390 C.3   125  LEU125      0.0001
     34  N         28.1350   17.9160   31.7130 N.3   128  LEU128     -0.1245
     35  CA        28.6170   16.6310   31.1930 C.3   128  LEU128      0.1561
     36  C         28.7570   15.6300   32.3360 C.2   128  LEU128      0.2260
     37  O         28.3550   14.4680   32.2300 O.2   128  LEU128     -0.2867
     38  CB        29.9460   16.7990   30.4700 C.3   128  LEU128      0.0270
     39  CG        30.3920   15.5750   29.6670 C.3   128  LEU128      0.0019
     40  CD1       29.6150   15.4190   28.3540 C.3   128  LEU128      0.0001
     41  CD2       31.8880   15.6160   29.3870 C.3   128  LEU128      0.0001
     42  N         34.3280   31.0610   36.7030 N.3   262  ASN262     -0.1225
     43  CA        35.0210   31.1510   35.4050 C.3   262  ASN262      0.1785
     44  C         34.7290   29.9920   34.5090 C.2   262  ASN262      0.2597
     45  O         34.8010   28.8460   34.9270 O.2   262  ASN262     -0.2718
     46  CB        36.5200   31.1180   35.5800 C.3   262  ASN262      0.1169
     47  CG        36.9790   32.0360   36.6500 C.2   262  ASN262      0.2627
     48  OD1       36.7860   33.2510   36.5480 O.2   262  ASN262     -0.2716
     49  ND2       37.5770   31.4700   37.7000 N.am  262  ASN262     -0.0877
     50  N         34.4690   30.2940   33.2550 N.am  263  ASP263     -0.1960
     51  CA        34.2730   29.2870   32.2590 C.3   263  ASP263      0.1840
     52  C         35.3450   29.5770   31.2180 C.2   263  ASP263      0.2622
     53  O         35.4410   30.6980   30.7180 O.2   263  ASP263     -0.2715
     54  CB        32.8670   29.4430   31.6740 C.3   263  ASP263      0.1450
     55  CG        32.4500   28.2600   30.8070 C.2   263  ASP263      0.3671
     56  OD1       31.9020   27.2820   31.3760 O.co2 263  ASP263     -0.2456
     57  OD2       32.6430   28.3340   29.5560 O.co2 263  ASP263     -0.2456
     58  N         36.1680   28.5770   30.9110 N.am  264  ASN264     -0.1958
     59  CA        37.2070   28.7130   29.8880 C.3   264  ASN264      0.1819
     60  C         38.1880   29.8350   30.1710 C.2   264  ASN264      0.2621
     61  O         38.6060   30.5310   29.2470 O.2   264  ASN264     -0.2715
     62  CB        36.5940   28.9510   28.5080 C.3   264  ASN264      0.1195
     63  CG        36.0280   27.6960   27.9030 C.2   264  ASN264      0.2630
     64  OD1       36.7260   26.9830   27.1840 O.2   264  ASN264     -0.2716
     65  ND2       34.7660   27.4020   28.2140 N.am  264  ASN264     -0.0877
     66  N         38.5260   30.0180   31.4470 N.am  265  PHE265     -0.1974
     67  CA        39.4900   31.0260   31.8700 C.3   265  PHE265      0.1639
     68  C         40.1580   30.5820   33.1680 C.2   265  PHE265      0.2290
     69  O         39.4760   30.2570   34.1390 O.2   265  PHE265     -0.2864
     70  CB        38.8300   32.4070   32.0370 C.3   265  PHE265      0.0560
     71  CG        39.8210   33.5130   32.2470 C.ar  265  PHE265     -0.0200
     72  CD1       40.6120   33.9660   31.1920 C.ar  265  PHE265     -0.0042
     73  CD2       40.0070   34.0760   33.5150 C.ar  265  PHE265     -0.0042
     74  CE1       41.5540   34.9740   31.3890 C.ar  265  PHE265     -0.0003
     75  CE2       40.9470   35.0880   33.7240 C.ar  265  PHE265     -0.0003
     76  CZ        41.7230   35.5360   32.6590 C.ar  265  PHE265     -0.0000
     77  N         38.8840   17.2910   33.2470 N.3   310  ASP310     -0.1239
     78  CA        39.8350   18.3920   33.0650 C.3   310  ASP310      0.1674
     79  C         41.0230   18.2700   34.0400 C.2   310  ASP310      0.2266
     80  O         41.1920   17.2390   34.6820 O.2   310  ASP310     -0.2867
     81  CB        39.1570   19.7630   33.1270 C.3   310  ASP310      0.1410
     82  CG        39.8250   20.7650   32.2110 C.2   310  ASP310      0.3668
     83  OD1       39.2440   21.1720   31.1940 O.co2 310  ASP310     -0.2456
     84  OD2       40.9870   21.0980   32.4640 O.co2 310  ASP310     -0.2456
     85  N         41.4110   20.0630   36.7230 N.3   312  HIS312     -0.1241
     86  CA        41.0570   20.5370   38.0580 C.3   312  HIS312      0.1621
     87  C         41.3910   19.5690   39.1780 C.2   312  HIS312      0.2264
     88  O         41.7870   20.0070   40.2550 O.2   312  HIS312     -0.2867
     89  CB        39.5980   21.0000   38.1610 C.3   312  HIS312      0.0745
     90  CG        39.1350   21.8720   37.0140 C.ar  312  HIS312      0.0817
     91  ND1       37.8610   21.8680   36.5830 N.ar  312  HIS312     -0.2268
     92  CD2       39.8310   22.7740   36.1830 C.ar  312  HIS312      0.1154
     93  CE1       37.7290   22.7350   35.5560 C.ar  312  HIS312      0.1986
     94  NE2       38.9390   23.2850   35.3100 N.ar  312  HIS312     -0.2212
     95  N         39.1040   19.5790   27.6890 N.3   348  HIS348     -0.1226
     96  CA        37.8670   20.2500   27.2600 C.3   348  HIS348      0.1752
     97  C         38.0630   21.5400   26.4960 C.2   348  HIS348      0.2596
     98  O         37.0870   22.2360   26.1930 O.2   348  HIS348     -0.2718
     99  CB        36.9870   20.5380   28.4670 C.3   348  HIS348      0.0759
    100  CG        36.4770   19.3190   29.1780 C.ar  348  HIS348      0.0818
    101  ND1       35.3330   18.6920   28.8210 N.ar  348  HIS348     -0.2268
    102  CD2       36.9840   18.6260   30.2810 C.ar  348  HIS348      0.1154
    103  CE1       35.1050   17.6610   29.6580 C.ar  348  HIS348      0.1986
    104  NE2       36.1210   17.6170   30.5510 N.ar  348  HIS348     -0.2212
    105  N         39.3080   21.8930   26.1840 N.am  349  THR349     -0.1953
    106  CA        39.5900   23.1390   25.4630 C.3   349  THR349      0.1897
    107  C         41.0190   23.1920   24.9440 C.2   349  THR349      0.2313
    108  O         41.8910   22.4850   25.4450 O.2   349  THR349     -0.2863
    109  CB        39.3980   24.3800   26.3590 C.3   349  THR349      0.1794
    110  OG1       39.6870   25.5620   25.5980 O.3   349  THR349     -0.2208
    111  CG2       40.3280   24.3240   27.5490 C.3   349  THR349      0.0378
    112  N         42.7860   29.1760   29.0830 N.3   354  ALA354     -0.1245
    113  CA        41.9830   28.2530   29.9020 C.3   354  ALA354      0.1562
    114  C         42.8170   27.2150   30.6590 C.2   354  ALA354      0.2260
    115  O         42.3510   26.6680   31.6570 O.2   354  ALA354     -0.2867
    116  CB        40.9080   27.5730   29.0710 C.3   354  ALA354      0.0290
    117  N         36.9180   15.5430   23.3410 N.3   426  VAL426     -0.1245
    118  CA        35.4960   15.3710   23.5900 C.3   426  VAL426      0.1561
    119  C         34.6500   15.4610   22.3130 C.2   426  VAL426      0.2260
    120  O         33.4170   15.4600   22.3710 O.2   426  VAL426     -0.2867
    121  CB        34.9990   16.3400   24.6980 C.3   426  VAL426      0.0252
    122  CG1       35.4860   15.8740   26.0660 C.3   426  VAL426      0.0019
    123  CG2       35.4080   17.7840   24.4040 C.3   426  VAL426      0.0019
    124  N         31.2670   13.6540   23.1230 N.3   455  ASN455     -0.1240
    125  CA        30.2900   13.9300   24.1610 C.3   455  ASN455      0.1653
    126  C         28.8910   13.4410   23.7910 C.2   455  ASN455      0.2266
    127  O         28.5990   13.1210   22.6290 O.2   455  ASN455     -0.2867
    128  CB        30.3000   15.4220   24.5150 C.3   455  ASN455      0.1155
    129  CG        31.5050   15.8230   25.3910 C.2   455  ASN455      0.2627
    130  OD1       31.7980   17.0190   25.5500 O.2   455  ASN455     -0.2716
    131  ND2       32.1900   14.8500   25.9610 N.am  455  ASN455     -0.0877
    132  N         34.8160   33.6360   21.9970 N.3   544  TYR544     -0.1227
    133  CA        34.9800   32.5690   21.0070 C.3   544  TYR544      0.1736
    134  C         33.6380   31.9960   20.5610 C.2   544  TYR544      0.2595
    135  O         33.5190   31.5020   19.4360 O.2   544  TYR544     -0.2718
    136  CB        35.9570   31.4700   21.4800 C.3   544  TYR544      0.0548
    137  CG        35.3780   30.3340   22.3140 C.ar  544  TYR544     -0.0200
    138  CD1       34.7890   29.2320   21.6950 C.ar  544  TYR544     -0.0009
    139  CD2       35.4810   30.3230   23.7110 C.ar  544  TYR544     -0.0009
    140  CE1       34.3020   28.1750   22.4260 C.ar  544  TYR544      0.0417
    141  CE2       34.9720   29.2600   24.4580 C.ar  544  TYR544      0.0417
    142  CZ        34.3730   28.1940   23.8020 C.ar  544  TYR544      0.1957
    143  OH        33.8260   27.1200   24.4950 O.3   544  TYR544     -0.2866
    144  N         32.6330   32.0780   21.4290 N.am  545  LYS545     -0.1980
    145  CA        31.2960   31.5600   21.1200 C.3   545  LYS545      0.1596
    146  C         30.5480   32.4940   20.1420 C.2   545  LYS545      0.2287
    147  O         29.5750   32.0860   19.4950 O.2   545  LYS545     -0.2864
    148  CB        30.5120   31.2880   22.4150 C.3   545  LYS545      0.0298
    149  CG        31.0450   30.0990   23.2120 C.3   545  LYS545      0.0038
    150  CD        30.6370   30.1450   24.6840 C.3   545  LYS545      0.0206
    151  CE        31.0310   28.8970   25.4730 C.3   545  LYS545      0.1093
    152  NZ        30.2580   27.6780   25.0260 N.3   545  LYS545     -0.1314
    153  N         35.5980   25.5530   19.7940 N.3   643  GLU643     -0.1231
    154  CA        34.6200   24.8800   20.6480 C.3   643  GLU643      0.1699
    155  C         34.9490   23.3860   20.7180 C.2   643  GLU643      0.2592
    156  O         34.7750   22.6890   19.7460 O.2   643  GLU643     -0.2718
    157  CB        33.2010   25.0890   20.1070 C.3   643  GLU643      0.0402
    158  CG        32.0740   24.6710   21.0550 C.3   643  GLU643      0.1161
    159  CD        32.0770   25.4320   22.3790 C.2   643  GLU643      0.3649
    160  OE1       32.9310   25.1230   23.2460 O.co2 643  GLU643     -0.2457
    161  OE2       31.2240   26.3390   22.5690 O.co2 643  GLU643     -0.2457
    162  N         35.4310   22.8910   21.8560 N.am  644  ALA644     -0.1966
    163  CA        35.8710   21.4830   21.9180 C.3   644  ALA644      0.1728
    164  C         34.7960   20.4790   21.4180 C.2   644  ALA644      0.2617
    165  O         35.0870   19.6140   20.5760 O.2   644  ALA644     -0.2715
    166  CB        36.3790   21.1120   23.3100 C.3   644  ALA644      0.0334
    167  N         33.5700   20.6120   21.9270 N.am  645  SER645     -0.1936
    168  CA        32.4780   19.7500   21.5140 C.3   645  SER645      0.2055
    169  C         31.1690   20.4900   21.3790 C.2   645  SER645      0.2644
    170  O         30.6010   20.5720   20.2740 O.2   645  SER645     -0.2714
    171  CB        32.2740   18.5810   22.4800 C.3   645  SER645      0.2130
    172  OG        31.1320   17.8300   22.0720 O.3   645  SER645     -0.2179
    173  N         30.6900   21.0160   22.5080 N.am  646  GLY646     -0.1939
    174  CA        29.2990   21.4350   22.6470 C.3   646  GLY646      0.2014
    175  C         28.4340   20.2480   23.0300 C.2   646  GLY646      0.2639
    176  O         28.6910   19.1210   22.5900 O.2   646  GLY646     -0.2714
    177  N         27.4350   20.4850   23.8840 N.am  647  THR647     -0.1950
    178  CA        26.3890   19.4920   24.1560 C.3   647  THR647      0.1897
    179  C         25.0240   20.1530   24.0620 C.2   647  THR647      0.2313
    180  O         24.0190   19.4980   23.8040 O.2   647  THR647     -0.2863
    181  CB        26.5500   18.7930   25.5200 C.3   647  THR647      0.1794
    182  OG1       26.6360   19.7680   26.5590 O.3   647  THR647     -0.2208
    183  CG2       27.7860   17.9140   25.5460 C.3   647  THR647      0.0378
@<TRIPOS>BOND
     1   135   134    2
     2   147   146    2
     3   156   155    2
     4   153   154    1
     5   157   154    1
     6   157   158    1
     7   146   145    1
     8   170   169    2
     9   134   133    1
    10   134   144   am
    11   165   164    2
    12   154   155    1
    13   155   162   am
    14   133   136    1
    15   133   132    1
    16   158   159    1
    17   145   144    1
    18   145   148    1
    19   169   168    1
    20   169   173   am
    21   164   163    1
    22   164   167   am
    23   136   137    1
    24   168   167    1
    25   168   171    1
    26   138   137   ar
    27   138   140   ar
    28   162   163    1
    29   163   166    1
    30   172   171    1
    31   119   120    2
    32   119   118    1
    33   137   139   ar
    34   159   161   ar
    35   159   160   ar
    36   148   149    1
    37   140   142   ar
    38   173   174    1
    39   176   175    2
    40   127   126    2
    41   174   175    1
    42   175   177   am
    43   124   125    1
    44   149   150    1
    45   117   118    1
    46   118   121    1
    47   139   141   ar
    48   126   125    1
    49   142   141   ar
    50   142   143    1
    51   180   179    2
    52   177   178    1
    53   179   178    1
    54   178   181    1
    55   125   128    1
    56   123   121    1
    57   128   129    1
    58   150   151    1
    59   121   122    1
    60   107   108    2
    61   107   106    1
    62   152   151    1
    63   129   130    2
    64   129   131   am
    65   106   105    1
    66   106   109    1
    67   181   183    1
    68   181   182    1
    69   110   109    1
    70   105    97   am
    71    98    97    2
    72   109   111    1
    73    97    96    1
    74    64    63    2
    75    96    95    1
    76    96    99    1
    77    63    65   am
    78    63    62    1
    79    40    39    1
    80    99   100    1
    81    62    59    1
    82   101   100   ar
    83   101   103   ar
    84   116   113    1
    85   112   113    1
    86   100   102   ar
    87    61    60    2
    88    41    39    1
    89    57    55   ar
    90    23    22    1
    91    23    24    1
    92   103   104   ar
    93    39    38    1
    94    59    60    1
    95    59    58    1
    96   113   114    1
    97    60    66   am
    98   102   104   ar
    99    22    20   am
   100    24    25    2
   101    24    26   am
   102    38    35    1
   103   114   115    2
   104    53    52    2
   105    55    56   ar
   106    55    54    1
   107    26    27    1
   108    58    52   am
   109    72    74   ar
   110    72    71   ar
   111    35    34    1
   112    35    36    1
   113    83    82   ar
   114    52    51    1
   115    74    76   ar
   116    66    67    1
   117    20    19    1
   118    20    21    2
   119    27    30    1
   120    27    28    1
   121    54    51    1
   122    67    70    1
   123    67    68    1
   124    30    31    1
   125    19    18    1
   126    70    71    1
   127    82    84   ar
   128    82    81    1
   129    37    36    2
   130    71    73   ar
   131    51    50    1
   132    32    31    1
   133    76    75   ar
   134    28    29    2
   135    31    33    1
   136    78    81    1
   137    78    77    1
   138    78    79    1
   139    68    69    2
   140    50    44   am
   141    18    12   am
   142    73    75   ar
   143    13    12    2
   144    12    11    1
   145    79    80    2
   146    44    45    2
   147    44    43    1
   148    14    11    1
   149    14    15    1
   150    11    10    1
   151    94    93   ar
   152    94    92   ar
   153    43    46    1
   154    43    42    1
   155    93    91   ar
   156    46    47    1
   157     9     7   ar
   158    15    16    2
   159    15    17   am
   160    92    90   ar
   161    48    47    2
   162    91    90   ar
   163     8     7   ar
   164    47    49   am
   165     7     6    1
   166    85    86    1
   167    90    89    1
   168     5     6    1
   169     5     2    1
   170     4     3    2
   171    86    89    1
   172    86    87    1
   173     3     2    1
   174     2     1    1
   175    87    88    2
