@<TRIPOS>MOLECULE
tmp/3synD01.pdb
 159 148 0 0 0
SMALL
GASTEIGER

@<TRIPOS>ATOM
      1  N          6.4070   19.4360   30.8710 N.3    76  THR76      -0.1203
      2  CA         7.3120   19.4010   29.7260 C.3    76  THR76       0.1994
      3  C          8.7510   19.1040   30.1630 C.2    76  THR76       0.2618
      4  O          9.3000   19.7520   31.0520 O.2    76  THR76      -0.2717
      5  CB         7.2790   20.7410   28.9800 C.3    76  THR76       0.1784
      6  OG1        8.3350   21.5840   29.4580 O.3    76  THR76      -0.2211
      7  CG2        5.9670   21.4330   29.2470 C.3    76  THR76       0.0376
      8  N          9.3540   18.1050   29.5440 N.am   77  GLY77      -0.1942
      9  CA        10.7590   17.8540   29.7510 C.3    77  GLY77       0.2014
     10  C         11.0500   17.0810   31.0080 C.2    77  GLY77       0.2639
     11  O         12.2050   16.7900   31.3030 O.2    77  GLY77      -0.2714
     12  N         10.0050   16.7330   31.7400 N.am   78  ALA78      -0.1963
     13  CA        10.1690   16.0620   33.0280 C.3    78  ALA78       0.1728
     14  C         10.7930   14.6670   32.9620 C.2    78  ALA78       0.2617
     15  O         11.3470   14.1880   33.9460 O.2    78  ALA78      -0.2715
     16  CB         8.8460   15.9920   33.7470 C.3    78  ALA78       0.0334
     17  N         10.6830   14.0100   31.8130 N.am   79  GLY79      -0.1940
     18  CA        11.2990   12.7100   31.6330 C.3    79  GLY79       0.2014
     19  C         10.2990   11.6070   31.3900 C.2    79  GLY79       0.2639
     20  O         10.6130   10.4350   31.5700 O.2    79  GLY79      -0.2714
     21  N          9.0970   11.9770   30.9700 N.am   80  LYS80      -0.1963
     22  CA         8.0450   11.0010   30.7440 C.3    80  LYS80       0.1728
     23  C          8.4460    9.9080   29.7380 C.2    80  LYS80       0.2617
     24  O          8.4930    8.7110   30.0740 O.2    80  LYS80      -0.2715
     25  CB         6.7640   11.6980   30.2990 C.3    80  LYS80       0.0311
     26  CG         6.1600   12.6080   31.3400 C.3    80  LYS80       0.0038
     27  CD         4.8740   13.2640   30.8290 C.3    80  LYS80       0.0206
     28  CE         5.0800   14.0390   29.5330 C.3    80  LYS80       0.1093
     29  NZ         6.0160   15.1780   29.6600 N.3    80  LYS80      -0.1314
     30  N          8.7160   10.3120   28.5020 N.am   81  THR81      -0.1937
     31  CA         9.1210    9.3590   27.4790 C.3    81  THR81       0.2028
     32  C         10.2270    8.4320   27.9910 C.2    81  THR81       0.2643
     33  O         10.1080    7.2080   27.8890 O.2    81  THR81      -0.2714
     34  CB         9.6240   10.0830   26.2350 C.3    81  THR81       0.1808
     35  OG1        8.6310   11.0200   25.8040 O.3    81  THR81      -0.2208
     36  CG2        9.9340    9.0920   25.1350 C.3    81  THR81       0.0379
     37  N         11.2880    9.0160   28.5590 N.am   82  THR82      -0.1936
     38  CA        12.4360    8.2340   29.0070 C.3    82  THR82       0.2028
     39  C         12.0200    7.2270   30.0520 C.2    82  THR82       0.2642
     40  O         12.4550    6.0890   30.0550 O.2    82  THR82      -0.2714
     41  CB        13.5010    9.1070   29.6340 C.3    82  THR82       0.1808
     42  OG1       13.7460   10.2340   28.7890 O.3    82  THR82      -0.2208
     43  CG2       14.7920    8.3090   29.8330 C.3    82  THR82       0.0379
     44  N         11.1580    7.6590   30.9480 N.am   83  THR83      -0.1950
     45  CA        10.6640    6.7840   31.9840 C.3    83  THR83       0.1897
     46  C          9.7710    5.6720   31.4160 C.2    83  THR83       0.2313
     47  O          9.8480    4.5140   31.8580 O.2    83  THR83      -0.2863
     48  CB         9.9420    7.6090   33.0540 C.3    83  THR83       0.1794
     49  OG1       10.8170    8.6540   33.4800 O.3    83  THR83      -0.2208
     50  CG2        9.5860    6.7550   34.2490 C.3    83  THR83       0.0378
     51  N         11.9120    2.8640   30.1550 N.3    86  LYS86      -0.1245
     52  CA        12.4350    2.0700   31.2500 C.3    86  LYS86       0.1561
     53  C         11.3580    1.1010   31.7380 C.2    86  LYS86       0.2260
     54  O         11.5920   -0.1080   31.8190 O.2    86  LYS86      -0.2867
     55  CB        12.8910    2.9760   32.3950 C.3    86  LYS86       0.0271
     56  CG        14.1520    3.7830   32.1200 C.3    86  LYS86       0.0035
     57  CD        14.4620    4.6870   33.2890 C.3    86  LYS86       0.0206
     58  CE        15.3710    5.8330   32.8870 C.3    86  LYS86       0.1093
     59  NZ        15.5660    6.7970   34.0280 N.3    86  LYS86      -0.1314
     60  N          1.8110   12.1420   21.7760 N.3   105  ASP105     -0.1239
     61  CA         2.6330   13.3490   21.6130 C.3   105  ASP105      0.1674
     62  C          2.9430   13.6500   20.1530 C.2   105  ASP105      0.2266
     63  O          4.0540   13.4030   19.6490 O.2   105  ASP105     -0.2867
     64  CB         3.9420   13.2430   22.4100 C.3   105  ASP105      0.1410
     65  CG         4.7040   14.5700   22.4840 C.2   105  ASP105      0.3668
     66  OD1        4.3170   15.5420   21.7900 O.co2 105  ASP105     -0.2456
     67  OD2        5.6980   14.6360   23.2460 O.co2 105  ASP105     -0.2456
     68  N          5.2400   17.7810   20.1240 N.3   108  ARG108     -0.1245
     69  CA         6.6400   18.1630   20.1600 C.3   108  ARG108      0.1563
     70  C          7.4910   17.4180   19.1370 C.2   108  ARG108      0.2260
     71  O          7.3260   16.2150   18.8750 O.2   108  ARG108     -0.2867
     72  CB         7.2300   18.0250   21.5500 C.3   108  ARG108      0.0307
     73  CG         8.3300   17.0000   21.6210 C.3   108  ARG108      0.0489
     74  CD         9.6770   17.6100   21.9180 C.3   108  ARG108      0.2205
     75  NE        10.4160   16.6770   22.7600 N.pl3 108  ARG108     -0.0865
     76  CZ        11.1280   15.6510   22.3080 C.cat 108  ARG108      0.5346
     77  NH1       11.2300   15.4400   21.0000 N.pl3 108  ARG108      0.1354
     78  NH2       11.7520   14.8480   23.1710 N.pl3 108  ARG108      0.1354
     79  N         11.4920    9.5230   18.8560 N.3   114  GLN114     -0.1245
     80  CA        12.0100    9.1150   20.1450 C.3   114  GLN114      0.1566
     81  C         11.4190    7.7730   20.6030 C.2   114  GLN114      0.2260
     82  O         12.1310    6.7850   20.7520 O.2   114  GLN114     -0.2867
     83  CB        11.7630   10.2160   21.1780 C.3   114  GLN114      0.0367
     84  CG        12.7880   10.2300   22.3040 C.3   114  GLN114      0.0905
     85  CD        12.4200   11.1720   23.4360 C.2   114  GLN114      0.2608
     86  OE1       11.6460   12.1100   23.2540 O.2   114  GLN114     -0.2717
     87  NE2       12.9810   10.9240   24.6180 N.am  114  GLN114     -0.0878
     88  N          2.3270    7.0280   25.9520 N.3   151  ASP151     -0.1225
     89  CA         3.0390    8.2910   26.1830 C.3   151  ASP151      0.1805
     90  C          2.1410    9.4780   25.8090 C.2   151  ASP151      0.2598
     91  O          1.2120    9.3260   25.0170 O.2   151  ASP151     -0.2718
     92  CB         4.3340    8.3210   25.3650 C.3   151  ASP151      0.1424
     93  CG         5.3460    9.3210   25.8850 C.2   151  ASP151      0.3668
     94  OD1        5.1530    9.8470   27.0050 O.co2 151  ASP151     -0.2456
     95  OD2        6.3400    9.5710   25.1620 O.co2 151  ASP151     -0.2456
     96  N          2.4060   10.6510   26.3820 N.am  152  THR152     -0.1953
     97  CA         1.6030   11.8370   26.0820 C.3   152  THR152      0.1897
     98  C          2.4490   13.1100   26.0190 C.2   152  THR152      0.2313
     99  O          3.5600   13.1610   26.5610 O.2   152  THR152     -0.2863
    100  CB         0.4890   12.0430   27.1190 C.3   152  THR152      0.1794
    101  OG1        1.0720   12.2270   28.4110 O.3   152  THR152     -0.2208
    102  CG2       -0.4360   10.8530   27.1510 C.3   152  THR152      0.0378
    103  N          3.7700   16.6470   26.8860 N.3   154  GLY154     -0.1225
    104  CA         3.8640   17.5070   28.0430 C.3   154  GLY154      0.1811
    105  C          3.2650   18.8690   27.7460 C.2   154  GLY154      0.2280
    106  O          3.4970   19.4630   26.6860 O.2   154  GLY154     -0.2866
    107  N         11.1260   12.3360   38.9470 N.3   209  THR209     -0.1203
    108  CA        12.2570   12.1110   38.0800 C.3   209  THR209      0.1994
    109  C         13.4060   13.0040   38.5010 C.2   209  THR209      0.2617
    110  O         13.2050   13.9780   39.2360 O.2   209  THR209     -0.2717
    111  CB        11.8840   12.4180   36.6530 C.3   209  THR209      0.1784
    112  OG1       11.4190   13.7700   36.5680 O.3   209  THR209     -0.2211
    113  CG2       10.7700   11.5100   36.2340 C.3   209  THR209      0.0376
    114  N         14.6090   12.6500   38.0570 N.am  210  LYS210     -0.1979
    115  CA        15.7820   13.4860   38.2440 C.3   210  LYS210      0.1596
    116  C         16.1250   13.7180   39.7110 C.2   210  LYS210      0.2287
    117  O         16.6320   14.7880   40.0770 O.2   210  LYS210     -0.2864
    118  CB        15.5710   14.8220   37.5360 C.3   210  LYS210      0.0298
    119  CG        14.9540   14.6700   36.1800 C.3   210  LYS210      0.0038
    120  CD        15.1260   15.9200   35.3580 C.3   210  LYS210      0.0206
    121  CE        14.5940   15.7100   33.9460 C.3   210  LYS210      0.1093
    122  NZ        14.5410   16.9930   33.1950 N.3   210  LYS210     -0.1314
    123  N         18.4210   12.6290   40.9700 N.3   212  ASP212     -0.1225
    124  CA        19.8640   12.6060   40.9100 C.3   212  ASP212      0.1805
    125  C         20.3470   13.9970   40.6080 C.2   212  ASP212      0.2597
    126  O         21.5320   14.2410   40.5420 O.2   212  ASP212     -0.2718
    127  CB        20.3370   11.6330   39.8130 C.3   212  ASP212      0.1424
    128  CG        19.9160   12.0580   38.3990 C.2   212  ASP212      0.3668
    129  OD1       18.7030   12.1860   38.1230 O.co2 212  ASP212     -0.2456
    130  OD2       20.8150   12.2430   37.5520 O.co2 212  ASP212     -0.2456
    131  N         19.4130   14.9140   40.4280 N.am  213  GLU213     -0.1979
    132  CA        19.7190   16.1800   39.8030 C.3   213  GLU213      0.1602
    133  C         19.4670   17.3510   40.7790 C.2   213  GLU213      0.2287
    134  O         19.8750   18.4920   40.5430 O.2   213  GLU213     -0.2864
    135  CB        18.8870   16.2750   38.5200 C.3   213  GLU213      0.0415
    136  CG        19.2180   17.4140   37.5810 C.3   213  GLU213      0.1163
    137  CD        18.8900   17.0900   36.1200 C.2   213  GLU213      0.3649
    138  OE1       19.4410   16.0910   35.5950 O.co2 213  GLU213     -0.2457
    139  OE2       18.0920   17.8380   35.5010 O.co2 213  GLU213     -0.2457
    140  N         13.0640    8.2300   39.3400 N.3   235  THR235     -0.1218
    141  CA        14.1450    8.0280   38.3850 C.3   235  THR235      0.1862
    142  C         15.3710    8.8200   38.8100 C.2   235  THR235      0.2287
    143  O         15.2530    9.8740   39.4490 O.2   235  THR235     -0.2866
    144  CB        13.7240    8.4370   36.9560 C.3   235  THR235      0.1770
    145  OG1       13.4560    9.8460   36.9270 O.3   235  THR235     -0.2211
    146  CG2       12.4650    7.6870   36.5330 C.3   235  THR235      0.0375
    147  N         18.5260    9.1360   36.7040 N.3   237  GLY237     -0.1210
    148  CA        19.5310    9.2520   35.6730 C.3   237  GLY237      0.1956
    149  C         18.9500    9.0460   34.2960 C.2   237  GLY237      0.2611
    150  O         17.7790    8.7030   34.1510 O.2   237  GLY237     -0.2717
    151  N         19.7730    9.2410   33.2760 N.am  238  GLN238     -0.1979
    152  CA        19.2790    9.2050   31.9160 C.3   238  GLN238      0.1601
    153  C         19.3790    7.8090   31.2900 C.2   238  GLN238      0.2287
    154  O         18.9270    7.5950   30.1620 O.2   238  GLN238     -0.2864
    155  CB        20.0250   10.2290   31.0700 C.3   238  GLN238      0.0394
    156  CG        19.9080   11.6440   31.5540 C.3   238  GLN238      0.0908
    157  CD        20.3440   12.5990   30.4920 C.2   238  GLN238      0.2608
    158  OE1       19.9030   12.4990   29.3540 O.2   238  GLN238     -0.2717
    159  NE2       21.2130   13.5320   30.8410 N.am  238  GLN238     -0.0878
@<TRIPOS>BOND
     1    79    80    1
     2    71    70    2
     3    70    69    1
     4    63    62    2
     5    68    69    1
     6    80    81    1
     7    80    83    1
     8    62    61    1
     9    69    72    1
    10    81    82    2
    11    77    76    1
    12    83    84    1
    13    72    73    1
    14    61    60    1
    15    61    64    1
    16    73    74    1
    17    66    65   ar
    18    74    75    1
    19    84    85    1
    20    76    75    2
    21    76    78    1
    22    64    65    1
    23    65    67   ar
    24    86    85    2
    25    85    87   am
    26    91    90    2
    27    36    34    1
    28    95    93   ar
    29    92    93    1
    30    92    89    1
    31    35    34    1
    32    90    89    1
    33    90    96   am
    34    93    94   ar
    35    88    89    1
    36    98    97    1
    37    98    99    2
    38    97    96    1
    39    97   100    1
    40    34    31    1
    41   106   105    2
    42   103   104    1
    43   100   102    1
    44   100   101    1
    45    31    32    1
    46    31    30    1
    47   105   104    1
    48    33    32    2
    49    32    37   am
    50    30    23   am
    51    37    38    1
    52    42    41    1
    53     5     7    1
    54     5     6    1
    55     5     2    1
    56    38    41    1
    57    38    39    1
    58   158   157    2
    59    28    29    1
    60    28    27    1
    61     8     9    1
    62     8     3   am
    63    41    43    1
    64     2     3    1
    65     2     1    1
    66    23    24    2
    67    23    22    1
    68     9    10    1
    69    39    40    2
    70    39    44   am
    71    51    52    1
    72   154   153    2
    73     3     4    2
    74    25    22    1
    75    25    26    1
    76   157   159   am
    77   157   156    1
    78    22    21    1
    79    27    26    1
    80    44    45    1
    81    21    19   am
    82    10    11    2
    83    10    12   am
    84   155   156    1
    85   155   152    1
    86    52    53    1
    87    52    55    1
    88   153   152    1
    89    19    20    2
    90    19    18    1
    91    46    47    2
    92    46    45    1
    93    18    17    1
    94    53    54    2
    95    12    13    1
    96    17    14   am
    97   152   151    1
    98    45    48    1
    99    56    55    1
   100    56    57    1
   101    58    57    1
   102    58    59    1
   103    14    13    1
   104    14    15    2
   105    13    16    1
   106    48    49    1
   107    48    50    1
   108   122   121    1
   109   151   149   am
   110   121   120    1
   111   150   149    2
   112   149   148    1
   113   120   119    1
   114   139   137   ar
   115   138   137   ar
   116   148   147    1
   117   137   136    1
   118   119   118    1
   119   113   111    1
   120   146   144    1
   121   112   111    1
   122   111   108    1
   123   145   144    1
   124   144   141    1
   125   118   115    1
   126   130   128   ar
   127   136   135    1
   128   114   115    1
   129   114   109   am
   130   108   109    1
   131   108   107    1
   132   129   128   ar
   133   115   116    1
   134   141   142    1
   135   141   140    1
   136   128   127    1
   137   109   110    2
   138   135   132    1
   139   142   143    2
   140   116   117    2
   141   132   131    1
   142   132   133    1
   143   127   124    1
   144   131   125   am
   145   126   125    2
   146   134   133    2
   147   125   124    1
   148   124   123    1
