@<TRIPOS>MOLECULE
tmp/3sysA02.pdb
 84 81 0 0 0
SMALL
GASTEIGER

@<TRIPOS>ATOM
      1  N        -31.6750   28.3810    0.2810 N.3   179  LEU179     -0.1231
      2  CA       -32.2940   27.1130    0.6590 C.3   179  LEU179      0.1693
      3  C        -32.7270   26.4170   -0.6120 C.2   179  LEU179      0.2593
      4  O        -33.1940   27.0700   -1.5480 O.2   179  LEU179     -0.2718
      5  CB       -33.5190   27.3620    1.5450 C.3   179  LEU179      0.0284
      6  CG       -33.2030   27.8660    2.9500 C.3   179  LEU179      0.0019
      7  CD1      -34.4440   28.4960    3.5670 C.3   179  LEU179      0.0001
      8  CD2      -32.6540   26.7230    3.8140 C.3   179  LEU179      0.0001
      9  N        -32.5810   25.0980   -0.6470 N.am  180  GLY180     -0.1942
     10  CA       -32.9650   24.3150   -1.8070 C.3   180  GLY180      0.2014
     11  C        -33.7210   23.0760   -1.3720 C.2   180  GLY180      0.2638
     12  O        -33.3770   22.4630   -0.3630 O.2   180  GLY180     -0.2714
     13  N        -34.7670   22.7370   -2.1210 N.am  181  LEU181     -0.1977
     14  CA       -35.5290   21.5060   -1.9130 C.3   181  LEU181      0.1596
     15  C        -35.7320   20.8650   -3.2780 C.2   181  LEU181      0.2287
     16  O        -36.2320   21.5070   -4.2110 O.2   181  LEU181     -0.2864
     17  CB       -36.9080   21.8170   -1.3030 C.3   181  LEU181      0.0297
     18  CG       -36.9750   22.1810    0.1750 C.3   181  LEU181      0.0022
     19  CD1      -38.3920   22.6580    0.5330 C.3   181  LEU181      0.0001
     20  CD2      -36.5950   20.9940    1.0260 C.3   181  LEU181      0.0001
     21  N        -32.5050   18.2950    0.6810 N.3   195  ALA195     -0.1231
     22  CA       -32.6190   19.6560    1.1900 C.3   195  ALA195      0.1694
     23  C        -31.2190   20.2090    1.3660 C.2   195  ALA195      0.2592
     24  O        -30.2930   19.4740    1.7080 O.2   195  ALA195     -0.2718
     25  CB       -33.3710   19.6750    2.5110 C.3   195  ALA195      0.0304
     26  N        -31.0580   21.5010    1.1130 N.am  196  ASN196     -0.1960
     27  CA       -29.7270   22.1070    1.0960 C.3   196  ASN196      0.1819
     28  C        -29.8180   23.4880    1.7210 C.2   196  ASN196      0.2621
     29  O        -30.7690   24.2320    1.4690 O.2   196  ASN196     -0.2715
     30  CB       -29.2600   22.1930   -0.3730 C.3   196  ASN196      0.1195
     31  CG       -27.8820   22.8380   -0.5560 C.2   196  ASN196      0.2630
     32  OD1      -27.6630   23.5660   -1.5260 O.2   196  ASN196     -0.2716
     33  ND2      -26.9530   22.5440    0.3300 N.am  196  ASN196     -0.0877
     34  N        -28.8600   23.8100    2.5790 N.am  197  LEU197     -0.1977
     35  CA       -28.6900   25.1770    3.0460 C.3   197  LEU197      0.1596
     36  C        -27.2840   25.6220    2.6900 C.2   197  LEU197      0.2287
     37  O        -26.3170   24.9510    3.0320 O.2   197  LEU197     -0.2864
     38  CB       -28.8870   25.2720    4.5580 C.3   197  LEU197      0.0297
     39  CG       -28.5330   26.6230    5.1880 C.3   197  LEU197      0.0022
     40  CD1      -29.4720   27.7200    4.6830 C.3   197  LEU197      0.0001
     41  CD2      -28.5810   26.5300    6.7020 C.3   197  LEU197      0.0001
     42  N        -24.7450   22.6820    3.8660 N.3   212  LEU212     -0.1231
     43  CA       -25.3330   21.5550    4.5740 C.3   212  LEU212      0.1693
     44  C        -26.2990   20.8570    3.6440 C.2   212  LEU212      0.2593
     45  O        -27.1020   21.4970    2.9670 O.2   212  LEU212     -0.2718
     46  CB       -26.1110   22.0450    5.7930 C.3   212  LEU212      0.0284
     47  CG       -25.4100   23.0280    6.7320 C.3   212  LEU212      0.0019
     48  CD1      -26.3340   23.3430    7.9130 C.3   212  LEU212      0.0001
     49  CD2      -24.0900   22.4670    7.2150 C.3   212  LEU212      0.0001
     50  N        -26.2650   19.5360    3.6280 N.am  213  GLY213     -0.1942
     51  CA       -27.1580   18.8030    2.7580 C.3   213  GLY213      0.2014
     52  C        -27.7310   17.5590    3.3950 C.2   213  GLY213      0.2638
     53  O        -27.1130   16.9590    4.2640 O.2   213  GLY213     -0.2714
     54  N        -28.9290   17.1860    2.9690 N.am  214  LEU214     -0.1977
     55  CA       -29.5510   15.9450    3.4000 C.3   214  LEU214      0.1596
     56  C        -30.2170   15.2680    2.2010 C.2   214  LEU214      0.2287
     57  O        -31.0560   15.8820    1.5330 O.2   214  LEU214     -0.2864
     58  CB       -30.6030   16.2400    4.4920 C.3   214  LEU214      0.0297
     59  CG       -31.6310   15.1560    4.8140 C.3   214  LEU214      0.0022
     60  CD1      -30.9810   13.9270    5.4150 C.3   214  LEU214      0.0001
     61  CD2      -32.7260   15.6990    5.7400 C.3   214  LEU214      0.0001
     62  N        -26.2610   12.6840    5.2260 N.3   233  VAL233     -0.1231
     63  CA       -26.1530   14.0660    5.6730 C.3   233  VAL233      0.1692
     64  C        -24.7070   14.4920    5.5890 C.2   233  VAL233      0.2592
     65  O        -23.8100   13.7060    5.8610 O.2   233  VAL233     -0.2718
     66  CB       -26.6340   14.2670    7.1250 C.3   233  VAL233      0.0266
     67  CG1      -28.1510   14.1470    7.2170 C.3   233  VAL233      0.0020
     68  CG2      -25.9270   13.3110    8.0850 C.3   233  VAL233      0.0020
     69  N        -24.4780   15.7320    5.1750 N.am  234  TYR234     -0.1962
     70  CA       -23.1210   16.2540    5.1140 C.3   234  TYR234      0.1771
     71  C        -23.1560   17.7220    5.5170 C.2   234  TYR234      0.2620
     72  O        -24.1750   18.4000    5.3870 O.2   234  TYR234     -0.2715
     73  CB       -22.4830   16.0980    3.7090 C.3   234  TYR234      0.0574
     74  CG       -23.0720   17.0540    2.6900 C.ar  234  TYR234     -0.0198
     75  CD1      -22.6430   18.3770    2.6290 C.ar  234  TYR234     -0.0009
     76  CD2      -24.0570   16.6350    1.8160 C.ar  234  TYR234     -0.0009
     77  CE1      -23.2040   19.2660    1.7180 C.ar  234  TYR234      0.0417
     78  CE2      -24.6150   17.5180    0.8880 C.ar  234  TYR234      0.0417
     79  CZ       -24.1840   18.8260    0.8620 C.ar  234  TYR234      0.1957
     80  OH       -24.7550   19.7110   -0.0400 O.3   234  TYR234     -0.2866
     81  N        -22.0340   18.1920    6.0400 N.am  235  GLY235     -0.1954
     82  CA       -21.8120   19.6110    6.2330 C.3   235  GLY235      0.1869
     83  C        -20.3890   19.8720    5.7830 C.2   235  GLY235      0.2309
     84  O        -19.4510   19.1910    6.2190 O.2   235  GLY235     -0.2863
@<TRIPOS>BOND
     1    16    15    2
     2    15    14    1
     3    13    14    1
     4    13    11   am
     5    14    17    1
     6    10    11    1
     7    10     9    1
     8     4     3    2
     9    32    31    2
    10    11    12    2
    11    17    18    1
    12     9     3   am
    13     3     2    1
    14    31    30    1
    15    31    33   am
    16    30    27    1
    17    80    79    1
    18    18    19    1
    19    18    20    1
    20     1     2    1
    21     2     5    1
    22    21    22    1
    23    79    78   ar
    24    79    77   ar
    25    78    76   ar
    26    27    26    1
    27    27    28    1
    28    26    23   am
    29    22    23    1
    30    22    25    1
    31    23    24    2
    32    29    28    2
    33    57    56    2
    34     5     6    1
    35    77    75   ar
    36    28    34   am
    37    76    74   ar
    38    56    55    1
    39    34    35    1
    40    75    74   ar
    41    36    37    2
    42    36    35    1
    43    74    73    1
    44    51    52    1
    45    51    50    1
    46     6     7    1
    47     6     8    1
    48    45    44    2
    49    54    52   am
    50    54    55    1
    51    35    38    1
    52    52    53    2
    53    55    58    1
    54    50    44   am
    55    44    43    1
    56    73    70    1
    57    42    43    1
    58    58    59    1
    59    38    39    1
    60    43    46    1
    61    40    39    1
    62    59    60    1
    63    59    61    1
    64    70    69    1
    65    70    71    1
    66    69    64   am
    67    39    41    1
    68    62    63    1
    69    72    71    2
    70    71    81   am
    71    64    63    1
    72    64    65    2
    73    63    66    1
    74    83    84    2
    75    83    82    1
    76    46    47    1
    77    81    82    1
    78    47    49    1
    79    47    48    1
    80    66    67    1
    81    66    68    1
