@<TRIPOS>MOLECULE
tmp/3sysA08.pdb
 90 88 0 0 0
SMALL
GASTEIGER

@<TRIPOS>ATOM
      1  N        -35.8730   17.0690  -21.5160 N.3   119  PHE119     -0.1241
      2  CA       -36.2600   18.4710  -21.4590 C.3   119  PHE119      0.1605
      3  C        -36.0580   19.0210  -20.0610 C.2   119  PHE119      0.2264
      4  O        -36.0620   18.2710  -19.0840 O.2   119  PHE119     -0.2867
      5  CB       -37.7090   18.6850  -21.9200 C.3   119  PHE119      0.0534
      6  CG       -38.7310   18.2460  -20.9260 C.ar  119  PHE119     -0.0203
      7  CD1      -39.2000   19.1270  -19.9610 C.ar  119  PHE119     -0.0042
      8  CD2      -39.2330   16.9560  -20.9540 C.ar  119  PHE119     -0.0042
      9  CE1      -40.1420   18.7260  -19.0340 C.ar  119  PHE119     -0.0003
     10  CE2      -40.1860   16.5520  -20.0350 C.ar  119  PHE119     -0.0003
     11  CZ       -40.6370   17.4380  -19.0750 C.ar  119  PHE119     -0.0000
     12  N        -37.7610   21.9480  -13.2770 N.3   133  ALA133     -0.1231
     13  CA       -38.3230   20.6150  -13.4170 C.3   133  ALA133      0.1694
     14  C        -37.9070   20.0720  -14.7650 C.2   133  ALA133      0.2593
     15  O        -37.5880   20.8370  -15.6700 O.2   133  ALA133     -0.2718
     16  CB       -39.8470   20.6710  -13.3260 C.3   133  ALA133      0.0304
     17  N        -37.9010   18.7550  -14.9160 N.am  134  GLY134     -0.1942
     18  CA       -37.4970   18.1960  -16.1940 C.3   134  GLY134      0.2014
     19  C        -37.5110   16.6860  -16.1770 C.2   134  GLY134      0.2638
     20  O        -37.8730   16.0620  -15.1800 O.2   134  GLY134     -0.2714
     21  N        -37.1290   16.1100  -17.3040 N.am  135  ARG135     -0.1977
     22  CA       -37.0570   14.6700  -17.4370 C.3   135  ARG135      0.1597
     23  C        -35.9800   14.3360  -18.4340 C.2   135  ARG135      0.2287
     24  O        -35.9150   14.9490  -19.5030 O.2   135  ARG135     -0.2864
     25  CB       -38.3860   14.1260  -17.9520 C.3   135  ARG135      0.0334
     26  CG       -38.3260   12.6490  -18.2950 C.3   135  ARG135      0.0492
     27  CD       -39.6950   12.1290  -18.7100 C.3   135  ARG135      0.2205
     28  NE       -39.7830   10.6800  -18.5310 N.pl3 135  ARG135     -0.0865
     29  CZ       -39.6080    9.8050  -19.5110 C.cat 135  ARG135      0.5346
     30  NH1      -39.3530   10.2330  -20.7370 N.pl3 135  ARG135      0.1354
     31  NH2      -39.6990    8.5040  -19.2700 N.pl3 135  ARG135      0.1354
     32  N        -37.0190   11.8240  -13.6850 N.3   164  ASN164     -0.1225
     33  CA       -37.8560   13.0170  -13.5420 C.3   164  ASN164      0.1785
     34  C        -37.4200   13.8030  -12.3210 C.2   164  ASN164      0.2597
     35  O        -37.0480   13.2110  -11.3060 O.2   164  ASN164     -0.2718
     36  CB       -39.3040   12.6070  -13.3000 C.3   164  ASN164      0.1169
     37  CG       -39.7980   11.6330  -14.3190 C.2   164  ASN164      0.2627
     38  OD1      -39.7060   11.8810  -15.5190 O.2   164  ASN164     -0.2716
     39  ND2      -40.3090   10.4970  -13.8540 N.am  164  ASN164     -0.0877
     40  N        -37.5080   15.1280  -12.3770 N.am  165  TYR165     -0.1962
     41  CA       -37.1410   15.9200  -11.2010 C.3   165  TYR165      0.1771
     42  C        -37.9120   17.2210  -11.1300 C.2   165  TYR165      0.2619
     43  O        -38.4540   17.6970  -12.1290 O.2   165  TYR165     -0.2715
     44  CB       -35.6290   16.2450  -11.1920 C.3   165  TYR165      0.0574
     45  CG       -35.2270   17.1920  -12.2970 C.ar  165  TYR165     -0.0198
     46  CD1      -35.1890   18.5680  -12.0910 C.ar  165  TYR165     -0.0009
     47  CD2      -34.9390   16.7100  -13.5650 C.ar  165  TYR165     -0.0009
     48  CE1      -34.8450   19.4360  -13.1310 C.ar  165  TYR165      0.0417
     49  CE2      -34.5860   17.5570  -14.5940 C.ar  165  TYR165      0.0417
     50  CZ       -34.5400   18.9140  -14.3730 C.ar  165  TYR165      0.1957
     51  OH       -34.2070   19.7620  -15.4060 O.3   165  TYR165     -0.2866
     52  N        -37.9580   17.7760   -9.9210 N.am  166  ALA166     -0.1977
     53  CA       -38.4670   19.1200   -9.6850 C.3   166  ALA166      0.1597
     54  C        -37.7580   19.6660   -8.4650 C.2   166  ALA166      0.2287
     55  O        -37.4090   18.9150   -7.5450 O.2   166  ALA166     -0.2864
     56  CB       -39.9720   19.0980   -9.4550 C.3   166  ALA166      0.0319
     57  N        -36.5840   17.0480   -5.6050 N.3   183  HIS183     -0.1226
     58  CA       -37.1240   15.6890   -5.6070 C.3   183  HIS183      0.1752
     59  C        -36.8550   15.0730   -6.9590 C.2   183  HIS183      0.2597
     60  O        -37.1200   15.6910   -7.9860 O.2   183  HIS183     -0.2718
     61  CB       -38.6350   15.7130   -5.3120 C.3   183  HIS183      0.0759
     62  CG       -38.9680   16.4300   -4.0410 C.ar  183  HIS183      0.0818
     63  ND1      -38.8370   15.8410   -2.8010 N.ar  183  HIS183     -0.2268
     64  CD2      -39.3570   17.7060   -3.8130 C.ar  183  HIS183      0.1154
     65  CE1      -39.1510   16.7190   -1.8650 C.ar  183  HIS183      0.1986
     66  NE2      -39.4770   17.8570   -2.4540 N.ar  183  HIS183     -0.2212
     67  N        -36.3220   13.8560   -6.9630 N.am  184  GLY184     -0.1942
     68  CA       -36.0100   13.1770   -8.2030 C.3   184  GLY184      0.2014
     69  C        -36.5280   11.7520   -8.2120 C.2   184  GLY184      0.2638
     70  O        -36.7460   11.1530   -7.1560 O.2   184  GLY184     -0.2714
     71  N        -36.7460   11.2160   -9.4060 N.am  185  GLN185     -0.1977
     72  CA       -37.2040    9.8410   -9.5390 C.3   185  GLN185      0.1601
     73  C        -36.5380    9.2170  -10.7480 C.2   185  GLN185      0.2287
     74  O        -36.7400    9.6730  -11.8730 O.2   185  GLN185     -0.2864
     75  CB       -38.7190    9.8100   -9.7190 C.3   185  GLN185      0.0394
     76  CG       -39.2760    8.4530  -10.1030 C.3   185  GLN185      0.0908
     77  CD       -40.7330    8.5490  -10.4710 C.2   185  GLN185      0.2608
     78  OE1      -41.1200    9.3870  -11.2950 O.2   185  GLN185     -0.2717
     79  NE2      -41.5590    7.7100   -9.8570 N.am  185  GLN185     -0.0878
     80  N        -36.2070    6.8130   -5.7990 N.3   191  ARG191     -0.1245
     81  CA       -36.6440    8.2000   -5.6320 C.3   191  ARG191      0.1563
     82  C        -35.7450    8.8420   -4.5860 C.2   191  ARG191      0.2260
     83  O        -35.2690    8.1650   -3.6760 O.2   191  ARG191     -0.2867
     84  CB       -38.1150    8.2660   -5.2080 C.3   191  ARG191      0.0307
     85  CG       -39.0770    7.8660   -6.3040 C.3   191  ARG191      0.0489
     86  CD       -40.5310    8.0650   -5.8730 C.3   191  ARG191      0.2205
     87  NE       -40.8280    9.4550   -5.5320 N.pl3 191  ARG191     -0.0865
     88  CZ       -41.3460   10.3430   -6.3770 C.cat 191  ARG191      0.5346
     89  NH1      -41.6310    9.9900   -7.6240 N.pl3 191  ARG191      0.1354
     90  NH2      -41.5810   11.5850   -5.9740 N.pl3 191  ARG191      0.1354
@<TRIPOS>BOND
     1     5     2    1
     2     5     6    1
     3     1     2    1
     4     2     3    1
     5     8     6   ar
     6     8    10   ar
     7     6     7   ar
     8    30    29    1
     9     3     4    2
    10    10    11   ar
    11     7     9   ar
    12    29    31    1
    13    29    28    2
    14    24    23    2
    15    11     9   ar
    16    27    28    1
    17    27    26    1
    18    23    22    1
    19    26    25    1
    20    25    22    1
    21    22    21    1
    22    21    19   am
    23    18    19    1
    24    18    17    1
    25    19    20    2
    26    15    14    2
    27    38    37    2
    28    51    50    1
    29    17    14   am
    30    14    13    1
    31    49    50   ar
    32    49    47   ar
    33    50    48   ar
    34    37    39   am
    35    37    36    1
    36    32    33    1
    37    47    45   ar
    38    33    36    1
    39    33    34    1
    40    13    16    1
    41    13    12    1
    42    48    46   ar
    43    40    34   am
    44    40    41    1
    45    34    35    2
    46    45    46   ar
    47    45    44    1
    48    43    42    2
    49    74    73    2
    50    78    77    2
    51    41    44    1
    52    41    42    1
    53    42    52   am
    54    73    72    1
    55    77    76    1
    56    77    79   am
    57    76    75    1
    58    52    53    1
    59    75    72    1
    60    53    56    1
    61    53    54    1
    62    72    71    1
    63    71    69   am
    64    54    55    2
    65    69    68    1
    66    69    70    2
    67    68    67    1
    68    60    59    2
    69    89    88    1
    70    67    59   am
    71    59    58    1
    72    88    90    1
    73    88    87    2
    74    85    86    1
    75    85    84    1
    76    86    87    1
    77    80    81    1
    78    81    84    1
    79    81    82    1
    80    58    57    1
    81    58    61    1
    82    61    62    1
    83    82    83    2
    84    62    64   ar
    85    62    63   ar
    86    64    66   ar
    87    63    65   ar
    88    66    65   ar
