@<TRIPOS>MOLECULE
tmp/3sysA04.pdb
 99 96 0 0 0
SMALL
GASTEIGER

@<TRIPOS>ATOM
      1  N         -7.1230   22.4280    2.0820 N.3   291  TYR291     -0.1241
      2  CA        -6.4980   23.7420    2.0970 C.3   291  TYR291      0.1605
      3  C         -6.2620   24.1900    0.6560 C.2   291  TYR291      0.2264
      4  O         -5.7360   23.4170   -0.1550 O.2   291  TYR291     -0.2867
      5  CB        -5.1650   23.6590    2.8490 C.3   291  TYR291      0.0534
      6  CG        -4.3450   24.9160    2.7110 C.ar  291  TYR291     -0.0201
      7  CD1       -4.7430   26.0900    3.3220 C.ar  291  TYR291     -0.0009
      8  CD2       -3.1790   24.9270    1.9580 C.ar  291  TYR291     -0.0009
      9  CE1       -4.0000   27.2620    3.1900 C.ar  291  TYR291      0.0417
     10  CE2       -2.4250   26.0910    1.8170 C.ar  291  TYR291      0.0417
     11  CZ        -2.8390   27.2480    2.4380 C.ar  291  TYR291      0.1957
     12  OH        -2.1040   28.4100    2.3120 O.3   291  TYR291     -0.2866
     13  N         -4.7340   27.5100   -1.8000 N.3   293  TYR293     -0.1241
     14  CA        -3.9240   28.7270   -1.7920 C.3   293  TYR293      0.1605
     15  C         -3.8540   29.3310   -3.1810 C.2   293  TYR293      0.2264
     16  O         -3.6830   28.6200   -4.1700 O.2   293  TYR293     -0.2867
     17  CB        -2.5100   28.4400   -1.2740 C.3   293  TYR293      0.0534
     18  CG        -1.5970   29.6500   -1.2550 C.ar  293  TYR293     -0.0201
     19  CD1       -1.8570   30.7360   -0.4310 C.ar  293  TYR293     -0.0009
     20  CD2       -0.4610   29.6880   -2.0520 C.ar  293  TYR293     -0.0009
     21  CE1       -0.9960   31.8470   -0.4100 C.ar  293  TYR293      0.0417
     22  CE2        0.4030   30.7760   -2.0310 C.ar  293  TYR293      0.0417
     23  CZ         0.1230   31.8540   -1.2220 C.ar  293  TYR293      0.1957
     24  OH         0.9960   32.9340   -1.2200 O.3   293  TYR293     -0.2866
     25  N         -1.6430   31.4290   -5.4860 N.3   295  PHE295     -0.1241
     26  CA        -0.2130   31.7330   -5.5470 C.3   295  PHE295      0.1605
     27  C          0.1130   33.1210   -6.1000 C.2   295  PHE295      0.2264
     28  O          1.2900   33.4360   -6.3430 O.2   295  PHE295     -0.2867
     29  CB         0.5400   30.6650   -6.3520 C.3   295  PHE295      0.0534
     30  CG         0.7350   29.3560   -5.6160 C.ar  295  PHE295     -0.0203
     31  CD1        1.9090   29.1080   -4.9150 C.ar  295  PHE295     -0.0042
     32  CD2       -0.2470   28.3690   -5.6390 C.ar  295  PHE295     -0.0042
     33  CE1        2.1060   27.9160   -4.2410 C.ar  295  PHE295     -0.0003
     34  CE2       -0.0530   27.1660   -4.9550 C.ar  295  PHE295     -0.0003
     35  CZ         1.1350   26.9410   -4.2630 C.ar  295  PHE295     -0.0000
     36  N         -3.4760   26.2980   -5.9180 N.3   305  GLY305     -0.1210
     37  CA        -3.2290   24.9480   -5.4430 C.3   305  GLY305      0.1956
     38  C         -4.2870   24.4590   -4.4700 C.2   305  GLY305      0.2612
     39  O         -4.9510   25.2500   -3.8190 O.2   305  GLY305     -0.2717
     40  N         -4.4510   23.1420   -4.3880 N.am  306  MET306     -0.1965
     41  CA        -5.3530   22.5380   -3.4180 C.3   306  MET306      0.1736
     42  C         -4.7140   21.2610   -2.8840 C.2   306  MET306      0.2616
     43  O         -4.1130   20.5020   -3.6460 O.2   306  MET306     -0.2715
     44  CB        -6.6990   22.2060   -4.0840 C.3   306  MET306      0.0427
     45  CG        -7.7140   21.5360   -3.1650 C.3   306  MET306      0.0599
     46  SD        -9.0980   20.7510   -4.0480 S.3   306  MET306     -0.1393
     47  CE        -8.2530   19.5060   -5.0230 C.3   306  MET306      0.0692
     48  N         -4.8490   21.0330   -1.5820 N.am  307  VAL307     -0.1977
     49  CA        -4.5400   19.7270   -1.0020 C.3   307  VAL307      0.1596
     50  C         -5.7250   19.3030   -0.1340 C.2   307  VAL307      0.2287
     51  O         -6.2820   20.1140    0.6030 O.2   307  VAL307     -0.2864
     52  CB        -3.2310   19.7070   -0.1760 C.3   307  VAL307      0.0276
     53  CG1       -3.2320   20.7630    0.9170 C.3   307  VAL307      0.0022
     54  CG2       -3.0170   18.3200    0.4190 C.3   307  VAL307      0.0022
     55  N         -6.1510   11.0240   -0.6250 N.3   328  ARG328     -0.1245
     56  CA        -5.4500   12.3080   -0.6010 C.3   328  ARG328      0.1563
     57  C         -5.3310   12.8180   -2.0310 C.2   328  ARG328      0.2260
     58  O         -4.8450   12.0970   -2.8990 O.2   328  ARG328     -0.2867
     59  CB        -4.0480   12.1720    0.0040 C.3   328  ARG328      0.0307
     60  CG        -3.2880   13.5020   -0.0370 C.3   328  ARG328      0.0489
     61  CD        -1.7850   13.2930    0.0970 C.3   328  ARG328      0.2205
     62  NE        -1.2240   12.5850   -1.0500 N.pl3 328  ARG328     -0.0865
     63  CZ         0.0340   12.1640   -1.1240 C.cat 328  ARG328      0.5346
     64  NH1        0.8680   12.3770   -0.1140 N.pl3 328  ARG328      0.1354
     65  NH2        0.4600   11.5280   -2.2080 N.pl3 328  ARG328      0.1354
     66  N         -4.0040   16.1270   -4.4980 N.3   330  VAL330     -0.1231
     67  CA        -3.2240   17.3570   -4.5820 C.3   330  VAL330      0.1692
     68  C         -3.3660   17.8750   -5.9980 C.2   330  VAL330      0.2592
     69  O         -3.3290   17.0990   -6.9490 O.2   330  VAL330     -0.2718
     70  CB        -1.7390   17.1100   -4.2710 C.3   330  VAL330      0.0266
     71  CG1       -0.9560   18.4080   -4.3740 C.3   330  VAL330      0.0020
     72  CG2       -1.5890   16.5190   -2.8880 C.3   330  VAL330      0.0020
     73  N         -3.5740   19.1790   -6.1520 N.am  331  GLU331     -0.1966
     74  CA        -3.6800   19.7410   -7.4920 C.3   331  GLU331      0.1733
     75  C         -3.0120   21.0970   -7.5940 C.2   331  GLU331      0.2616
     76  O         -3.1040   21.9070   -6.6770 O.2   331  GLU331     -0.2715
     77  CB        -5.1400   19.8780   -7.9260 C.3   331  GLU331      0.0429
     78  CG        -5.2840   20.5310   -9.2930 C.3   331  GLU331      0.1163
     79  CD        -6.6720   20.3650   -9.8760 C.2   331  GLU331      0.3649
     80  OE1       -6.9030   19.3610  -10.5760 O.co2 331  GLU331     -0.2457
     81  OE2       -7.5290   21.2390   -9.6360 O.co2 331  GLU331     -0.2457
     82  N         -2.3260   21.3170   -8.7120 N.am  332  LEU332     -0.1977
     83  CA        -1.8310   22.6320   -9.0850 C.3   332  LEU332      0.1596
     84  C         -2.4660   22.9860  -10.4150 C.2   332  LEU332      0.2287
     85  O         -2.4150   22.1940  -11.3570 O.2   332  LEU332     -0.2864
     86  CB        -0.3110   22.6040   -9.2320 C.3   332  LEU332      0.0297
     87  CG         0.4560   22.7610   -7.9310 C.3   332  LEU332      0.0022
     88  CD1        1.9440   22.5740   -8.1870 C.3   332  LEU332      0.0001
     89  CD2        0.1660   24.1370   -7.3440 C.3   332  LEU332      0.0001
     90  N         -2.7760   14.7200   -8.4630 N.3   350  HIS350     -0.1241
     91  CA        -2.4210   13.3960   -8.0050 C.3   350  HIS350      0.1621
     92  C         -3.4310   12.9760   -6.9650 C.2   350  HIS350      0.2264
     93  O         -3.8800   13.8010   -6.1520 O.2   350  HIS350     -0.2867
     94  CB        -1.0200   13.4120   -7.3880 C.3   350  HIS350      0.0745
     95  CG        -0.5250   12.0590   -6.9900 C.ar  350  HIS350      0.0817
     96  ND1       -0.7500   11.5220   -5.7390 N.ar  350  HIS350     -0.2268
     97  CD2        0.1750   11.1250   -7.6810 C.ar  350  HIS350      0.1154
     98  CE1       -0.2010   10.3210   -5.6750 C.ar  350  HIS350      0.1986
     99  NE2        0.3630   10.0550   -6.8410 N.ar  350  HIS350     -0.2212
@<TRIPOS>BOND
     1    85    84    2
     2    80    79   ar
     3    84    83    1
     4    79    81   ar
     5    79    78    1
     6    78    77    1
     7    86    83    1
     8    86    87    1
     9    83    82    1
    10    82    75   am
    11    90    91    1
    12    88    87    1
    13    91    94    1
    14    91    92    1
    15    87    89    1
    16    77    74    1
    17    97    95   ar
    18    97    99   ar
    19    75    74    1
    20    75    76    2
    21    74    73    1
    22    94    95    1
    23    95    96   ar
    24    92    93    2
    25    69    68    2
    26    99    98   ar
    27    29    30    1
    28    29    26    1
    29    28    27    2
    30    73    68   am
    31    27    26    1
    32    68    67    1
    33    36    37    1
    34    96    98   ar
    35    32    30   ar
    36    32    34   ar
    37    30    31   ar
    38    26    25    1
    39    37    38    1
    40    47    46    1
    41    34    35   ar
    42    31    33   ar
    43    67    66    1
    44    67    70    1
    45    38    40   am
    46    38    39    2
    47    40    41    1
    48    71    70    1
    49    70    72    1
    50    35    33   ar
    51    16    15    2
    52    44    41    1
    53    44    45    1
    54    46    45    1
    55    43    42    2
    56    41    42    1
    57    15    14    1
    58    58    57    2
    59    42    48   am
    60    65    63    1
    61    20    22   ar
    62    20    18   ar
    63    57    56    1
    64    22    23   ar
    65    13    14    1
    66    14    17    1
    67    48    49    1
    68    17    18    1
    69    18    19   ar
    70    23    24    1
    71    23    21   ar
    72    63    62    2
    73    63    64    1
    74    62    61    1
    75    49    52    1
    76    49    50    1
    77    55    56    1
    78    56    59    1
    79    19    21   ar
    80    52    54    1
    81    52    53    1
    82     4     3    2
    83    50    51    2
    84    60    59    1
    85    60    61    1
    86     3     2    1
    87    10     8   ar
    88    10    11   ar
    89     8     6   ar
    90     1     2    1
    91     2     5    1
    92    12    11    1
    93    11     9   ar
    94     6     5    1
    95     6     7   ar
    96     9     7   ar
