@<TRIPOS>MOLECULE
tmp/3sysA10.pdb
 115 113 0 0 0
SMALL
GASTEIGER

@<TRIPOS>ATOM
      1  N        -24.7450   22.6820    3.8660 N.3   212  LEU212     -0.1245
      2  CA       -25.3330   21.5550    4.5740 C.3   212  LEU212      0.1561
      3  C        -26.2990   20.8570    3.6440 C.2   212  LEU212      0.2260
      4  O        -27.1020   21.4970    2.9670 O.2   212  LEU212     -0.2867
      5  CB       -26.1110   22.0450    5.7930 C.3   212  LEU212      0.0270
      6  CG       -25.4100   23.0280    6.7320 C.3   212  LEU212      0.0019
      7  CD1      -26.3340   23.3430    7.9130 C.3   212  LEU212      0.0001
      8  CD2      -24.0900   22.4670    7.2150 C.3   212  LEU212      0.0001
      9  N        -26.2610   12.6840    5.2260 N.3   233  VAL233     -0.1231
     10  CA       -26.1530   14.0660    5.6730 C.3   233  VAL233      0.1692
     11  C        -24.7070   14.4920    5.5890 C.2   233  VAL233      0.2592
     12  O        -23.8100   13.7060    5.8610 O.2   233  VAL233     -0.2718
     13  CB       -26.6340   14.2670    7.1250 C.3   233  VAL233      0.0266
     14  CG1      -28.1510   14.1470    7.2170 C.3   233  VAL233      0.0020
     15  CG2      -25.9270   13.3110    8.0850 C.3   233  VAL233      0.0020
     16  N        -24.4780   15.7320    5.1750 N.am  234  TYR234     -0.1962
     17  CA       -23.1210   16.2540    5.1140 C.3   234  TYR234      0.1771
     18  C        -23.1560   17.7220    5.5170 C.2   234  TYR234      0.2620
     19  O        -24.1750   18.4000    5.3870 O.2   234  TYR234     -0.2715
     20  CB       -22.4830   16.0980    3.7090 C.3   234  TYR234      0.0574
     21  CG       -23.0720   17.0540    2.6900 C.ar  234  TYR234     -0.0198
     22  CD1      -22.6430   18.3770    2.6290 C.ar  234  TYR234     -0.0009
     23  CD2      -24.0570   16.6350    1.8160 C.ar  234  TYR234     -0.0009
     24  CE1      -23.2040   19.2660    1.7180 C.ar  234  TYR234      0.0417
     25  CE2      -24.6150   17.5180    0.8880 C.ar  234  TYR234      0.0417
     26  CZ       -24.1840   18.8260    0.8620 C.ar  234  TYR234      0.1957
     27  OH       -24.7550   19.7110   -0.0400 O.3   234  TYR234     -0.2866
     28  N        -22.0340   18.1920    6.0400 N.am  235  GLY235     -0.1954
     29  CA       -21.8120   19.6110    6.2330 C.3   235  GLY235      0.1869
     30  C        -20.3890   19.8720    5.7830 C.2   235  GLY235      0.2309
     31  O        -19.4510   19.1910    6.2190 O.2   235  GLY235     -0.2863
     32  N        -17.7300   22.9240    5.6230 N.3   237  PHE237     -0.1241
     33  CA       -17.5360   24.2330    6.2350 C.3   237  PHE237      0.1605
     34  C        -16.2550   24.8440    5.7300 C.2   237  PHE237      0.2264
     35  O        -15.2360   24.1540    5.6160 O.2   237  PHE237     -0.2867
     36  CB       -17.4840   24.0700    7.7530 C.3   237  PHE237      0.0534
     37  CG       -18.7120   23.4220    8.3220 C.ar  237  PHE237     -0.0203
     38  CD1      -19.8410   24.1870    8.6050 C.ar  237  PHE237     -0.0042
     39  CD2      -18.7570   22.0550    8.5490 C.ar  237  PHE237     -0.0042
     40  CE1      -20.9900   23.5950    9.1140 C.ar  237  PHE237     -0.0003
     41  CE2      -19.9020   21.4580    9.0660 C.ar  237  PHE237     -0.0003
     42  CZ       -21.0190   22.2320    9.3470 C.ar  237  PHE237     -0.0000
     43  N        -17.8730   16.9540    7.1050 N.3   250  LEU250     -0.1231
     44  CA       -18.3230   15.8660    7.9570 C.3   250  LEU250      0.1693
     45  C        -19.5290   15.2540    7.2740 C.2   250  LEU250      0.2592
     46  O        -20.4010   15.9750    6.7960 O.2   250  LEU250     -0.2718
     47  CB       -18.7410   16.4090    9.3230 C.3   250  LEU250      0.0284
     48  CG       -17.6460   17.1600   10.0820 C.3   250  LEU250      0.0019
     49  CD1      -18.2330   17.8880   11.2790 C.3   250  LEU250      0.0001
     50  CD2      -16.5670   16.1720   10.5210 C.3   250  LEU250      0.0001
     51  N        -19.6030   13.9290    7.2400 N.am  251  GLN251     -0.1966
     52  CA       -20.6490   13.2780    6.4600 C.3   251  GLN251      0.1733
     53  C        -20.9890   11.8970    7.0200 C.2   251  GLN251      0.2616
     54  O        -20.1140   11.1930    7.5430 O.2   251  GLN251     -0.2715
     55  CB       -20.1230   13.1620    5.0380 C.3   251  GLN251      0.0408
     56  CG       -21.0300   12.4880    4.0250 C.3   251  GLN251      0.0908
     57  CD       -20.3810   12.5570    2.6630 C.2   251  GLN251      0.2608
     58  OE1      -20.1620   13.6400    2.1220 O.2   251  GLN251     -0.2717
     59  NE2      -20.0130   11.3990    2.1270 N.am  251  GLN251     -0.0878
     60  N        -22.2540   11.5010    6.9010 N.am  252  LYS252     -0.1977
     61  CA       -22.6730   10.1850    7.3640 C.3   252  LYS252      0.1596
     62  C        -23.7900    9.6430    6.4960 C.2   252  LYS252      0.2287
     63  O        -24.8020   10.3170    6.2760 O.2   252  LYS252     -0.2864
     64  CB       -23.1250   10.2540    8.8310 C.3   252  LYS252      0.0298
     65  CG       -23.7410    8.9580    9.3740 C.3   252  LYS252      0.0038
     66  CD       -22.6760    7.8690    9.5620 C.3   252  LYS252      0.0206
     67  CE       -23.1980    6.6900   10.3990 C.3   252  LYS252      0.1093
     68  NZ       -24.4230    6.0750    9.8100 N.3   252  LYS252     -0.1314
     69  N        -19.1910    6.7290    7.5900 N.3   285  ARG285     -0.1231
     70  CA       -18.9770    8.0260    8.2170 C.3   285  ARG285      0.1694
     71  C        -17.6640    8.5770    7.6830 C.2   285  ARG285      0.2593
     72  O        -16.6910    7.8330    7.5190 O.2   285  ARG285     -0.2718
     73  CB       -18.8950    7.8130    9.7310 C.3   285  ARG285      0.0321
     74  CG       -18.6560    9.0570   10.5420 C.3   285  ARG285      0.0489
     75  CD       -18.6810    8.7310   12.0320 C.3   285  ARG285      0.2205
     76  NE       -20.0080    8.3200   12.4880 N.pl3 285  ARG285     -0.0865
     77  CZ       -20.9770    9.1670   12.8190 C.cat 285  ARG285      0.5346
     78  NH1      -20.7690   10.4730   12.7370 N.pl3 285  ARG285      0.1354
     79  NH2      -22.1550    8.7130   13.2290 N.pl3 285  ARG285      0.1354
     80  N        -17.6100    9.8660    7.3730 N.am  286  SER286     -0.1938
     81  CA       -16.3630   10.3810    6.8370 C.3   286  SER286      0.2055
     82  C        -16.0880   11.8130    7.2410 C.2   286  SER286      0.2643
     83  O        -17.0040   12.5630    7.5990 O.2   286  SER286     -0.2714
     84  CB       -16.3410   10.2750    5.3090 C.3   286  SER286      0.2130
     85  OG       -17.4080   11.0320    4.7540 O.3   286  SER286     -0.2179
     86  N        -14.8120   12.1680    7.2130 N.am  287  TRP287     -0.1973
     87  CA       -14.4020   13.5600    7.4020 C.3   287  TRP287      0.1640
     88  C        -13.3570   13.9470    6.3560 C.2   287  TRP287      0.2290
     89  O        -12.6710   13.1000    5.7790 O.2   287  TRP287     -0.2864
     90  CB       -13.8750   13.7920    8.8320 C.3   287  TRP287      0.0576
     91  CG       -12.6510   12.9710    9.1970 C.ar  287  TRP287      0.0006
     92  CD1      -12.6390   11.7250    9.7530 C.ar  287  TRP287      0.0946
     93  CD2      -11.2790   13.3510    9.0410 C.ar  287  TRP287      0.0152
     94  NE1      -11.3390   11.3010    9.9500 N.ar  287  TRP287     -0.2442
     95  CE2      -10.4890   12.2800    9.5120 C.ar  287  TRP287      0.0810
     96  CE3      -10.6390   14.4880    8.5400 C.ar  287  TRP287      0.0012
     97  CZ2       -9.0980   12.3180    9.5020 C.ar  287  TRP287      0.0191
     98  CZ3       -9.2550   14.5210    8.5300 C.ar  287  TRP287      0.0001
     99  CH2       -8.5020   13.4430    9.0050 C.ar  287  TRP287      0.0015
    100  N        -11.1700   10.6880    4.9890 N.3   311  HIS311     -0.1241
    101  CA       -11.1380    9.3530    5.5690 C.3   311  HIS311      0.1621
    102  C        -12.5440    8.8780    5.8640 C.2   311  HIS311      0.2264
    103  O        -13.3490    9.6250    6.4170 O.2   311  HIS311     -0.2867
    104  CB       -10.3420    9.3610    6.8730 C.3   311  HIS311      0.0745
    105  CG       -10.1530    7.9950    7.4560 C.ar  311  HIS311      0.0817
    106  ND1      -11.0690    7.4140    8.3040 N.ar  311  HIS311     -0.2268
    107  CD2       -9.1650    7.0850    7.2890 C.ar  311  HIS311      0.1154
    108  CE1      -10.6520    6.2060    8.6420 C.ar  311  HIS311      0.1986
    109  NE2       -9.4990    5.9820    8.0370 N.ar  311  HIS311     -0.2212
    110  N        -14.9690    5.5200    7.4590 N.3   313  SER313     -0.1217
    111  CA       -14.9640    4.2980    8.2600 C.3   313  SER313      0.1889
    112  C        -16.3900    3.7760    8.3550 C.2   313  SER313      0.2288
    113  O        -17.3330    4.4240    7.8860 O.2   313  SER313     -0.2866
    114  CB       -14.4020    4.5840    9.6540 C.3   313  SER313      0.2089
    115  OG       -15.2220    5.5010   10.3520 O.3   313  SER313     -0.2183
@<TRIPOS>BOND
     1    27    26    1
     2    26    25   ar
     3    26    24   ar
     4    25    23   ar
     5    24    22   ar
     6    23    21   ar
     7    58    57    2
     8    59    57   am
     9    22    21   ar
    10    57    56    1
    11    21    20    1
    12     4     3    2
    13     3     2    1
    14    20    17    1
    15     1     2    1
    16    56    55    1
    17     2     5    1
    18    85    84    1
    19   100   101    1
    20    55    52    1
    21    17    16    1
    22    17    18    1
    23    16    11   am
    24     9    10    1
    25    84    81    1
    26    19    18    2
    27    18    28   am
    28   101   102    1
    29   101   104    1
    30    11    10    1
    31    11    12    2
    32    35    34    2
    33    32    33    1
    34    10    13    1
    35    34    33    1
    36    89    88    2
    37    30    31    2
    38    30    29    1
    39     5     6    1
    40   102   103    2
    41    28    29    1
    42    33    36    1
    43    63    62    2
    44    88    87    1
    45    52    53    1
    46    52    51    1
    47    62    61    1
    48     6     8    1
    49     6     7    1
    50    46    45    2
    51    81    82    1
    52    81    80    1
    53   104   105    1
    54    60    53   am
    55    60    61    1
    56    53    54    2
    57    43    44    1
    58    13    14    1
    59    13    15    1
    60    86    82   am
    61    86    87    1
    62    51    45   am
    63    82    83    2
    64    45    44    1
    65   107   105   ar
    66   107   109   ar
    67    61    64    1
    68    80    71   am
    69    87    90    1
    70   105   106   ar
    71   110   111    1
    72    72    71    2
    73    69    70    1
    74    71    70    1
    75    36    37    1
    76   113   112    2
    77    44    47    1
    78   109   108   ar
    79    70    73    1
    80   111   112    1
    81   111   114    1
    82   106   108   ar
    83    37    39   ar
    84    37    38   ar
    85    98    96   ar
    86    98    99   ar
    87    96    93   ar
    88    39    41   ar
    89    38    40   ar
    90    64    65    1
    91    90    91    1
    92    99    97   ar
    93    93    91   ar
    94    93    95   ar
    95    41    42   ar
    96    40    42   ar
    97    91    92   ar
    98    47    48    1
    99    65    66    1
   100    97    95   ar
   101    95    94   ar
   102    66    67    1
   103   114   115    1
   104    73    74    1
   105    92    94   ar
   106    68    67    1
   107    48    50    1
   108    48    49    1
   109    74    75    1
   110    75    76    1
   111    76    77    2
   112    78    77    1
   113    77    79    1
