@<TRIPOS>MOLECULE
tmp/3sysA06.pdb
 92 90 0 0 0
SMALL
GASTEIGER

@<TRIPOS>ATOM
      1  N        -15.0150   26.8440  -28.3770 N.3    10  LEU10      -0.1245
      2  CA       -14.2960   25.6110  -28.6560 C.3    10  LEU10       0.1561
      3  C        -13.2390   25.3930  -27.5890 C.2    10  LEU10       0.2260
      4  O        -12.4300   26.2780  -27.3150 O.2    10  LEU10      -0.2867
      5  CB       -13.6330   25.6730  -30.0350 C.3    10  LEU10       0.0270
      6  CG       -12.6810   24.5250  -30.3910 C.3    10  LEU10       0.0019
      7  CD1      -13.4340   23.2020  -30.4900 C.3    10  LEU10       0.0001
      8  CD2      -11.9470   24.8220  -31.6910 C.3    10  LEU10       0.0001
      9  N        -11.9330   17.5780  -28.3010 N.3    30  PHE30      -0.1241
     10  CA       -12.4470   18.8160  -28.8700 C.3    30  PHE30       0.1605
     11  C        -13.8930   18.9180  -28.4160 C.2    30  PHE30       0.2264
     12  O        -14.6770   17.9800  -28.6050 O.2    30  PHE30      -0.2867
     13  CB       -12.4020   18.7730  -30.4040 C.3    30  PHE30       0.0534
     14  CG       -11.0420   18.4560  -30.9580 C.ar   30  PHE30      -0.0203
     15  CD1      -10.5970   17.1470  -31.0280 C.ar   30  PHE30      -0.0042
     16  CD2      -10.2100   19.4650  -31.4020 C.ar   30  PHE30      -0.0042
     17  CE1       -9.3460   16.8510  -31.5270 C.ar   30  PHE30      -0.0003
     18  CE2       -8.9530   19.1740  -31.9040 C.ar   30  PHE30      -0.0003
     19  CZ        -8.5230   17.8650  -31.9630 C.ar   30  PHE30      -0.0000
     20  N        -17.0670   21.4770  -28.7950 N.3    32  LEU32      -0.1245
     21  CA       -17.5360   22.6380  -29.5190 C.3    32  LEU32       0.1561
     22  C        -18.9540   22.9540  -29.0890 C.2    32  LEU32       0.2260
     23  O        -19.8410   22.1110  -29.1940 O.2    32  LEU32      -0.2867
     24  CB       -17.4840   22.3540  -31.0230 C.3    32  LEU32       0.0270
     25  CG       -17.9980   23.4370  -31.9700 C.3    32  LEU32       0.0019
     26  CD1      -17.2040   24.7160  -31.8350 C.3    32  LEU32       0.0001
     27  CD2      -17.9560   22.9220  -33.4030 C.3    32  LEU32       0.0001
     28  N        -20.7510   19.6780  -30.1120 N.3    51  GLY51      -0.1210
     29  CA       -20.0010   18.7020  -30.8610 C.3    51  GLY51       0.1956
     30  C        -18.8380   18.2020  -30.0390 C.2    51  GLY51       0.2612
     31  O        -18.0490   18.9950  -29.5110 O.2    51  GLY51      -0.2717
     32  N        -18.7260   16.8820  -29.9470 N.am   52  LEU52      -0.1965
     33  CA       -17.7200   16.2330  -29.1160 C.3    52  LEU52       0.1728
     34  C        -16.9100   15.2920  -29.9760 C.2    52  LEU52       0.2616
     35  O        -17.4700   14.5000  -30.7250 O.2    52  LEU52      -0.2715
     36  CB       -18.4010   15.4340  -28.0000 C.3    52  LEU52       0.0311
     37  CG       -19.3910   16.1840  -27.1020 C.3    52  LEU52       0.0022
     38  CD1      -20.0030   15.2330  -26.0880 C.3    52  LEU52       0.0001
     39  CD2      -18.6930   17.3460  -26.3950 C.3    52  LEU52       0.0001
     40  N        -15.5900   15.3870  -29.8880 N.am   53  PHE53      -0.1974
     41  CA       -14.7230   14.4730  -30.6200 C.3    53  PHE53       0.1639
     42  C        -13.4500   14.1960  -29.8270 C.2    53  PHE53       0.2290
     43  O        -12.8040   15.1220  -29.3240 O.2    53  PHE53      -0.2864
     44  CB       -14.3930   15.0430  -32.0030 C.3    53  PHE53       0.0560
     45  CG       -13.5970   14.1100  -32.8740 C.ar   53  PHE53      -0.0200
     46  CD1      -14.1410   12.9100  -33.3030 C.ar   53  PHE53      -0.0042
     47  CD2      -12.3130   14.4410  -33.2770 C.ar   53  PHE53      -0.0042
     48  CE1      -13.4090   12.0500  -34.1090 C.ar   53  PHE53      -0.0003
     49  CE2      -11.5830   13.5860  -34.0840 C.ar   53  PHE53      -0.0003
     50  CZ       -12.1340   12.3890  -34.4990 C.ar   53  PHE53      -0.0000
     51  N        -10.8810    6.6290  -31.9230 N.3    75  ASN75      -0.1225
     52  CA       -11.5700    7.9050  -31.7840 C.3    75  ASN75       0.1785
     53  C        -13.0550    7.6970  -31.5180 C.2    75  ASN75       0.2597
     54  O        -13.5800    6.5920  -31.6830 O.2    75  ASN75      -0.2718
     55  CB       -11.3630    8.7640  -33.0300 C.3    75  ASN75       0.1169
     56  CG       -11.8880    8.1040  -34.2810 C.2    75  ASN75       0.2627
     57  OD1      -13.0880    8.0940  -34.5260 O.2    75  ASN75      -0.2716
     58  ND2      -10.9860    7.5480  -35.0850 N.am   75  ASN75      -0.0877
     59  N        -13.7320    8.7590  -31.0930 N.am   76  TYR76      -0.1962
     60  CA       -15.1620    8.6840  -30.8460 C.3    76  TYR76       0.1771
     61  C        -15.7250   10.0900  -30.7660 C.2    76  TYR76       0.2620
     62  O        -14.9890   11.0450  -30.5320 O.2    76  TYR76      -0.2715
     63  CB       -15.4780    7.8700  -29.5740 C.3    76  TYR76       0.0574
     64  CG       -15.2390    8.5430  -28.2290 C.ar   76  TYR76      -0.0198
     65  CD1      -13.9650    8.9300  -27.8210 C.ar   76  TYR76      -0.0009
     66  CD2      -16.2940    8.7310  -27.3390 C.ar   76  TYR76      -0.0009
     67  CE1      -13.7570    9.5210  -26.5770 C.ar   76  TYR76       0.0417
     68  CE2      -16.0910    9.3150  -26.0900 C.ar   76  TYR76       0.0417
     69  CZ       -14.8270    9.7090  -25.7190 C.ar   76  TYR76       0.1957
     70  OH       -14.6490   10.2880  -24.4750 O.3    76  TYR76      -0.2866
     71  N        -17.0230   10.2280  -30.9890 N.am   77  GLY77      -0.1940
     72  CA       -17.6350   11.5370  -30.9140 C.3    77  GLY77       0.2014
     73  C        -19.1120   11.5170  -31.2230 C.2    77  GLY77       0.2639
     74  O        -19.6550   10.4980  -31.6330 O.2    77  GLY77      -0.2714
     75  N        -19.7570   12.6580  -31.0280 N.am   78  ARG78      -0.1963
     76  CA       -21.1750   12.7840  -31.3100 C.3    78  ARG78       0.1729
     77  C        -21.5380   14.2520  -31.4030 C.2    78  ARG78       0.2616
     78  O        -20.7580   15.1240  -31.0070 O.2    78  ARG78      -0.2715
     79  CB       -22.0240   12.0790  -30.2370 C.3    78  ARG78       0.0348
     80  CG       -21.9300   12.6740  -28.8270 C.3    78  ARG78       0.0492
     81  CD       -22.9030   11.9720  -27.8590 C.3    78  ARG78       0.2205
     82  NE       -24.2950   12.3080  -28.1470 N.pl3  78  ARG78      -0.0865
     83  CZ       -25.1420   11.5280  -28.8170 C.cat  78  ARG78       0.5346
     84  NH1      -24.7650   10.3340  -29.2580 N.pl3  78  ARG78       0.1354
     85  NH2      -26.3750   11.9450  -29.0380 N.pl3  78  ARG78       0.1354
     86  N        -22.7220   14.5130  -31.9410 N.am   79  VAL79      -0.1977
     87  CA       -23.2570   15.8580  -32.0280 C.3    79  VAL79       0.1596
     88  C        -24.6640   15.8610  -31.4380 C.2    79  VAL79       0.2287
     89  O        -25.4700   14.9640  -31.7090 O.2    79  VAL79      -0.2864
     90  CB       -23.2990   16.3590  -33.4790 C.3    79  VAL79       0.0276
     91  CG1      -24.0290   17.6940  -33.5450 C.3    79  VAL79       0.0022
     92  CG2      -21.8870   16.4730  -34.0440 C.3    79  VAL79       0.0022
@<TRIPOS>BOND
     1    58    56   am
     2    57    56    2
     3    50    48   ar
     4    50    49   ar
     5    56    55    1
     6    48    46   ar
     7    49    47   ar
     8    92    90    1
     9    91    90    1
    10    90    87    1
    11    27    25    1
    12    46    45   ar
    13    47    45   ar
    14    55    52    1
    15    45    44    1
    16    87    86    1
    17    87    88    1
    18    44    41    1
    19    25    26    1
    20    25    24    1
    21    19    18   ar
    22    19    17   ar
    23    86    77   am
    24    51    52    1
    25    18    16   ar
    26    52    53    1
    27    89    88    2
    28     8     6    1
    29    54    53    2
    30    74    73    2
    31    17    15   ar
    32    53    59   am
    33    77    76    1
    34    77    78    2
    35    16    14   ar
    36    76    75    1
    37    76    79    1
    38    73    75   am
    39    73    72    1
    40    59    60    1
    41    15    14   ar
    42    24    21    1
    43    71    72    1
    44    71    61   am
    45    14    13    1
    46    29    28    1
    47    29    30    1
    48    60    61    1
    49    60    63    1
    50    61    62    2
    51    35    34    2
    52    41    40    1
    53    41    42    1
    54     7     6    1
    55    13    10    1
    56     6     5    1
    57    79    80    1
    58    30    32   am
    59    30    31    2
    60     5     2    1
    61    34    40   am
    62    34    33    1
    63    32    33    1
    64    42    43    2
    65    63    64    1
    66    21    22    1
    67    21    20    1
    68    84    83    1
    69    23    22    2
    70    33    36    1
    71    85    83    1
    72    10    11    1
    73    10     9    1
    74    80    81    1
    75    83    82    2
    76     2     1    1
    77     2     3    1
    78    12    11    2
    79    64    65   ar
    80    64    66   ar
    81    82    81    1
    82    36    37    1
    83    65    67   ar
    84     3     4    2
    85    66    68   ar
    86    37    39    1
    87    37    38    1
    88    67    69   ar
    89    68    69   ar
    90    69    70    1
