@<TRIPOS>MOLECULE
tmp/3sytD00.pdb
 108 104 0 0 0
SMALL
GASTEIGER

@<TRIPOS>ATOM
      1  N         36.2030    6.2250  -52.2110 N.3   127  TYR127     -0.1227
      2  CA        36.8850    6.8100  -53.3540 C.3   127  TYR127      0.1736
      3  C         38.0140    7.6560  -52.7950 C.2   127  TYR127      0.2595
      4  O         38.0300    7.9970  -51.5960 O.2   127  TYR127     -0.2718
      5  CB        35.9130    7.6540  -54.1900 C.3   127  TYR127      0.0548
      6  CG        35.1980    8.7370  -53.3940 C.ar  127  TYR127     -0.0200
      7  CD1       35.8590    9.9390  -53.0510 C.ar  127  TYR127     -0.0009
      8  CD2       33.8550    8.5610  -52.9670 C.ar  127  TYR127     -0.0009
      9  CE1       35.2030   10.9150  -52.3140 C.ar  127  TYR127      0.0417
     10  CE2       33.1920    9.5650  -52.2160 C.ar  127  TYR127      0.0417
     11  CZ        33.8700   10.7350  -51.9110 C.ar  127  TYR127      0.1957
     12  OH        33.2240   11.6990  -51.1940 O.3   127  TYR127     -0.2866
     13  N         38.9550    8.0020  -53.6600 N.am  128  ARG128     -0.1980
     14  CA        40.0990    8.7910  -53.2180 C.3   128  ARG128      0.1597
     15  C         40.7070    8.2700  -51.8940 C.2   128  ARG128      0.2287
     16  O         41.1760    7.1430  -51.8290 O.2   128  ARG128     -0.2864
     17  CB        39.7420   10.2820  -53.1370 C.3   128  ARG128      0.0334
     18  CG        39.5980   10.9720  -54.4990 C.3   128  ARG128      0.0492
     19  CD        38.9170   12.3250  -54.3320 C.3   128  ARG128      0.2205
     20  NE        38.4060   12.7500  -55.6250 N.pl3 128  ARG128     -0.0865
     21  CZ        37.1550   13.1550  -55.8090 C.cat 128  ARG128      0.5346
     22  NH1       36.3180   13.1960  -54.7750 N.pl3 128  ARG128      0.1354
     23  NH2       36.7560   13.5300  -57.0200 N.pl3 128  ARG128      0.1354
     24  N         39.2190    7.6820  -49.1490 N.3   130  PHE130     -0.1241
     25  CA        38.1630    7.0630  -48.3130 C.3   130  PHE130      0.1605
     26  C         37.8410    5.6310  -48.6820 C.2   130  PHE130      0.2264
     27  O         37.6490    5.3180  -49.8600 O.2   130  PHE130     -0.2867
     28  CB        36.9050    7.9020  -48.4150 C.3   130  PHE130      0.0534
     29  CG        37.0860    9.2900  -47.9130 C.ar  130  PHE130     -0.0203
     30  CD1       37.2120    9.5330  -46.5380 C.ar  130  PHE130     -0.0042
     31  CD2       37.1680   10.3420  -48.7920 C.ar  130  PHE130     -0.0042
     32  CE1       37.3830   10.8240  -46.0420 C.ar  130  PHE130     -0.0003
     33  CE2       37.3530   11.6470  -48.3060 C.ar  130  PHE130     -0.0003
     34  CZ        37.4530   11.8890  -46.9360 C.ar  130  PHE130     -0.0000
     35  N         29.3240   13.4770  -41.4020 N.3   176  CYS176     -0.1221
     36  CA        30.2510   13.8500  -42.4430 C.3   176  CYS176      0.1808
     37  C         29.6580   13.8600  -43.8310 C.2   176  CYS176      0.2601
     38  O         28.9250   14.7390  -44.1720 O.2   176  CYS176     -0.2717
     39  CB        31.5030   12.9430  -42.4210 C.3   176  CYS176      0.0970
     40  SG        32.9090   13.6540  -43.3060 S.3   176  CYS176     -0.0800
     41  N         30.0270   12.8920  -44.6500 N.am  177  GLU177     -0.1979
     42  CA        29.6150   12.8560  -46.0890 C.3   177  GLU177      0.1602
     43  C         28.1060   13.1150  -46.3050 C.2   177  GLU177      0.2287
     44  O         27.6510   13.5380  -47.3770 O.2   177  GLU177     -0.2864
     45  CB        29.9950   11.4770  -46.6370 C.3   177  GLU177      0.0415
     46  CG        29.7410   11.2750  -48.0980 C.3   177  GLU177      0.1163
     47  CD        30.8000   11.8760  -48.9370 C.2   177  GLU177      0.3649
     48  OE1       31.6870   12.5630  -48.3410 O.co2 177  GLU177     -0.2457
     49  OE2       30.7540   11.6240  -50.1740 O.co2 177  GLU177     -0.2457
     50  N         27.0580   16.3250  -47.9930 N.3   180  PHE180     -0.1241
     51  CA        27.7800   16.6160  -49.2370 C.3   180  PHE180      0.1605
     52  C         27.0560   16.0960  -50.4720 C.2   180  PHE180      0.2264
     53  O         27.4530   16.3770  -51.6290 O.2   180  PHE180     -0.2867
     54  CB        29.1850   15.9870  -49.2110 C.3   180  PHE180      0.0534
     55  CG        30.2260   16.7370  -48.3490 C.ar  180  PHE180     -0.0203
     56  CD1       30.3420   16.5050  -46.9760 C.ar  180  PHE180     -0.0042
     57  CD2       31.1130   17.6240  -48.9320 C.ar  180  PHE180     -0.0042
     58  CE1       31.2880   17.1600  -46.2040 C.ar  180  PHE180     -0.0003
     59  CE2       32.0590   18.3000  -48.1560 C.ar  180  PHE180     -0.0003
     60  CZ        32.1410   18.0580  -46.7930 C.ar  180  PHE180     -0.0000
     61  N         36.9790   13.5590  -41.6490 N.3   203  SER203     -0.1217
     62  CA        37.4020   14.6210  -42.5570 C.3   203  SER203      0.1889
     63  C         38.9200   14.8910  -42.5200 C.2   203  SER203      0.2288
     64  O         39.3690   15.9070  -42.0070 O.2   203  SER203     -0.2866
     65  CB        36.6500   15.9050  -42.2180 C.3   203  SER203      0.2089
     66  OG        36.9260   16.9190  -43.1460 O.3   203  SER203     -0.2183
     67  N         39.9150   22.0380  -48.3490 N.3   209  ARG209     -0.1245
     68  CA        38.8160   21.3320  -47.7110 C.3   209  ARG209      0.1563
     69  C         38.0400   22.1200  -46.6490 C.2   209  ARG209      0.2260
     70  O         36.8260   22.0110  -46.5470 O.2   209  ARG209     -0.2867
     71  CB        39.2850   20.0250  -47.1160 C.3   209  ARG209      0.0307
     72  CG        38.1270   19.2030  -46.5300 C.3   209  ARG209      0.0489
     73  CD        38.3960   17.7080  -46.4870 C.3   209  ARG209      0.2205
     74  NE        38.5060   17.0930  -47.8150 N.pl3 209  ARG209     -0.0865
     75  CZ        39.0030   15.8720  -48.0150 C.cat 209  ARG209      0.5346
     76  NH1       39.4450   15.1710  -46.9740 N.pl3 209  ARG209      0.1354
     77  NH2       39.0800   15.3500  -49.2430 N.pl3 209  ARG209      0.1354
     78  N         35.4280   23.9370  -48.3620 N.3   212  ASP212     -0.1225
     79  CA        34.3480   23.0070  -48.7070 C.3   212  ASP212      0.1805
     80  C         33.4220   22.7160  -47.5390 C.2   212  ASP212      0.2597
     81  O         32.2030   22.8110  -47.6900 O.2   212  ASP212     -0.2718
     82  CB        34.9030   21.7120  -49.2540 C.3   212  ASP212      0.1424
     83  CG        35.6550   21.9110  -50.5780 C.2   212  ASP212      0.3668
     84  OD1       35.4020   22.9430  -51.2640 O.co2 212  ASP212     -0.2456
     85  OD2       36.4870   21.0270  -50.9290 O.co2 212  ASP212     -0.2456
     86  N         33.9930   22.4330  -46.3660 N.am  213  ARG213     -0.1979
     87  CA        33.1860   22.2400  -45.1620 C.3   213  ARG213      0.1597
     88  C         32.3470   23.4560  -44.8630 C.2   213  ARG213      0.2287
     89  O         31.1470   23.3460  -44.6570 O.2   213  ARG213     -0.2864
     90  CB        34.0210   21.8900  -43.9290 C.3   213  ARG213      0.0334
     91  CG        34.9260   20.6370  -44.0250 C.3   213  ARG213      0.0492
     92  CD        36.0060   20.8920  -43.0090 C.3   213  ARG213      0.2205
     93  NE        36.8660   19.7820  -42.6820 N.pl3 213  ARG213     -0.0865
     94  CZ        37.9000   19.9070  -41.8660 C.cat 213  ARG213      0.5346
     95  NH1       38.1520   21.1020  -41.3260 N.pl3 213  ARG213      0.1354
     96  NH2       38.6590   18.8560  -41.5860 N.pl3 213  ARG213      0.1354
     97  N         29.0680   21.5400  -36.2040 N.3   230  TYR230     -0.1241
     98  CA        30.0370   20.6850  -36.9180 C.3   230  TYR230      0.1605
     99  C         31.3600   20.4390  -36.1560 C.2   230  TYR230      0.2264
    100  O         31.9750   21.3600  -35.6070 O.2   230  TYR230     -0.2867
    101  CB        30.3180   21.3180  -38.2830 C.3   230  TYR230      0.0534
    102  CG        31.3750   20.6210  -39.1000 C.ar  230  TYR230     -0.0201
    103  CD1       32.6930   20.6590  -38.7350 C.ar  230  TYR230     -0.0009
    104  CD2       31.0400   19.9500  -40.2630 C.ar  230  TYR230     -0.0009
    105  CE1       33.6510   20.0270  -39.4870 C.ar  230  TYR230      0.0417
    106  CE2       31.9900   19.3180  -41.0260 C.ar  230  TYR230      0.0417
    107  CZ        33.2910   19.3560  -40.6330 C.ar  230  TYR230      0.1957
    108  OH        34.2280   18.7160  -41.4080 O.3   230  TYR230     -0.2866
@<TRIPOS>BOND
     1    23    21    1
     2    21    20    2
     3    21    22    1
     4    20    19    1
     5    18    19    1
     6    18    17    1
     7     5     6    1
     8     5     2    1
     9    13    14    1
    10    13     3   am
    11     6     7   ar
    12     6     8   ar
    13     2     3    1
    14     2     1    1
    15    14    17    1
    16    14    15    1
    17     7     9   ar
    18     8    10   ar
    19     3     4    2
    20     9    11   ar
    21    10    11   ar
    22    11    12    1
    23    15    16    2
    24    53    52    2
    25    84    83   ar
    26    85    83   ar
    27    83    82    1
    28    52    51    1
    29    49    47   ar
    30    27    26    2
    31    82    79    1
    32    77    75    1
    33    51    54    1
    34    51    50    1
    35    54    55    1
    36    24    25    1
    37    47    48   ar
    38    47    46    1
    39    57    55   ar
    40    57    59   ar
    41    31    33   ar
    42    31    29   ar
    43    79    78    1
    44    79    80    1
    45    26    25    1
    46    28    25    1
    47    28    29    1
    48    55    56   ar
    49    67    68    1
    50    33    34   ar
    51    59    60   ar
    52    46    45    1
    53    75    74    2
    54    75    76    1
    55    29    30   ar
    56    74    73    1
    57    68    71    1
    58    68    69    1
    59    81    80    2
    60    80    86   am
    61    44    43    2
    62    71    72    1
    63    56    58   ar
    64    34    32   ar
    65    60    58   ar
    66    69    70    2
    67    45    42    1
    68    30    32   ar
    69    72    73    1
    70    86    87    1
    71    43    42    1
    72    42    41    1
    73    87    88    1
    74    87    90    1
    75    88    89    2
    76    41    37   am
    77    38    37    2
    78    91    90    1
    79    91    92    1
    80    37    36    1
    81    40    39    1
    82    66    65    1
    83    92    93    1
    84    93    94    2
    85    62    63    1
    86    62    65    1
    87    62    61    1
    88    63    64    2
    89    36    39    1
    90    36    35    1
    91    94    96    1
    92    94    95    1
    93   108   107    1
    94   106   107   ar
    95   106   104   ar
    96   107   105   ar
    97   104   102   ar
    98   105   103   ar
    99   102   103   ar
   100   102   101    1
   101   101    98    1
   102    98    97    1
   103    98    99    1
   104    99   100    2
