@<TRIPOS>MOLECULE
tmp/3sz1B01.pdb
 180 169 0 0 0
SMALL
GASTEIGER

@<TRIPOS>ATOM
      1  N         31.6690  -33.0860   39.9340 N.3    22  LEU22      -0.1245
      2  CA        30.8000  -32.4620   40.9270 C.3    22  LEU22       0.1561
      3  C         29.5220  -31.9120   40.2870 C.2    22  LEU22       0.2260
      4  O         29.5290  -30.8470   39.6630 O.2    22  LEU22      -0.2867
      5  CB        31.5510  -31.3640   41.6780 C.3    22  LEU22       0.0270
      6  CG        30.8190  -30.6430   42.8070 C.3    22  LEU22       0.0019
      7  CD1       30.2870  -31.6130   43.8690 C.3    22  LEU22       0.0001
      8  CD2       31.7290  -29.6460   43.4480 C.3    22  LEU22       0.0001
      9  N         44.4020  -16.4030   44.5560 N.3    65  ILE65      -0.1231
     10  CA        43.0010  -16.8220   44.3700 C.3    65  ILE65       0.1692
     11  C         42.6520  -16.7150   42.8750 C.2    65  ILE65       0.2592
     12  O         42.0380  -17.6350   42.3340 O.2    65  ILE65      -0.2718
     13  CB        42.0120  -16.0050   45.2580 C.3    65  ILE65       0.0266
     14  CG1       42.3320  -16.1750   46.7600 C.3    65  ILE65       0.0019
     15  CG2       40.5360  -16.3780   44.9610 C.3    65  ILE65       0.0020
     16  CD1       41.5820  -15.2250   47.6820 C.3    65  ILE65       0.0001
     17  N         43.0760  -15.6150   42.2140 N.am   66  PHE66      -0.1976
     18  CA        42.8460  -15.3910   40.7850 C.3    66  PHE66       0.1639
     19  C         43.4150  -16.5470   39.9510 C.2    66  PHE66       0.2290
     20  O         42.7060  -17.0780   39.0900 O.2    66  PHE66      -0.2864
     21  CB        43.4250  -14.0370   40.3130 C.3    66  PHE66       0.0560
     22  CG        43.2820  -13.7880   38.8260 C.ar   66  PHE66      -0.0200
     23  CD1       44.3570  -13.9740   37.9690 C.ar   66  PHE66      -0.0042
     24  CD2       42.0600  -13.4160   38.2780 C.ar   66  PHE66      -0.0042
     25  CE1       44.2250  -13.7490   36.5950 C.ar   66  PHE66      -0.0003
     26  CE2       41.9200  -13.2310   36.8990 C.ar   66  PHE66      -0.0003
     27  CZ        43.0060  -13.3850   36.0690 C.ar   66  PHE66      -0.0000
     28  N         41.4820  -19.8010   40.2530 N.3    69  CYS69      -0.1235
     29  CA        40.3000  -19.7370   39.3850 C.3    69  CYS69       0.1677
     30  C         40.6850  -20.0630   37.9500 C.2    69  CYS69       0.2270
     31  O         39.9100  -20.7220   37.2600 O.2    69  CYS69      -0.2867
     32  CB        39.6290  -18.3690   39.4810 C.3    69  CYS69       0.0956
     33  SG        38.8240  -18.0580   41.0700 S.3    69  CYS69      -0.0801
     34  N         41.2730  -23.9050   37.6630 N.3    72  ARG72      -0.1231
     35  CA        39.9930  -24.6050   37.6160 C.3    72  ARG72       0.1694
     36  C         39.2910  -24.3850   36.2630 C.2    72  ARG72       0.2592
     37  O         38.7260  -25.3410   35.7210 O.2    72  ARG72      -0.2718
     38  CB        39.1030  -24.1930   38.8040 C.3    72  ARG72       0.0321
     39  CG        37.6840  -24.7920   38.8200 C.3    72  ARG72       0.0489
     40  CD        37.6540  -26.3050   38.7720 C.3    72  ARG72       0.2205
     41  NE        36.3610  -26.7760   38.2710 N.pl3  72  ARG72      -0.0865
     42  CZ        36.1820  -27.8950   37.5830 C.cat  72  ARG72       0.5346
     43  NH1       37.2070  -28.6940   37.3200 N.pl3  72  ARG72       0.1354
     44  NH2       34.9740  -28.2280   37.1530 N.pl3  72  ARG72       0.1354
     45  N         39.3660  -23.1580   35.7090 N.am   73  SER73      -0.1952
     46  CA        38.7810  -22.8250   34.3980 C.3    73  SER73       0.1924
     47  C         39.3590  -23.7220   33.2960 C.2    73  SER73       0.2314
     48  O         38.6000  -24.2640   32.4930 O.2    73  SER73      -0.2863
     49  CB        39.0200  -21.3560   34.0460 C.3    73  SER73       0.2116
     50  OG        38.1720  -20.5070   34.8000 O.3    73  SER73      -0.2180
     51  N         37.8970  -27.1490   33.7140 N.3    76  ALA76      -0.1245
     52  CA        36.4990  -27.0670   33.2740 C.3    76  ALA76       0.1562
     53  C         36.4280  -27.1360   31.7400 C.2    76  ALA76       0.2260
     54  O         35.6190  -27.9030   31.2090 O.2    76  ALA76      -0.2867
     55  CB        35.8440  -25.7830   33.8010 C.3    76  ALA76       0.0290
     56  N         30.9570  -22.3500   31.7220 N.3   110  ILE110     -0.1231
     57  CA        31.6780  -22.1950   32.9850 C.3   110  ILE110      0.1692
     58  C         30.8000  -21.4410   33.9960 C.2   110  ILE110      0.2592
     59  O         30.6450  -21.9270   35.1130 O.2   110  ILE110     -0.2718
     60  CB        33.0730  -21.5260   32.7720 C.3   110  ILE110      0.0266
     61  CG1       34.0790  -22.6080   32.2270 C.3   110  ILE110      0.0019
     62  CG2       33.6000  -20.8170   34.0570 C.3   110  ILE110      0.0020
     63  CD1       35.4510  -22.0590   31.6870 C.3   110  ILE110      0.0001
     64  N         30.1810  -20.3070   33.5900 N.am  111  TYR111     -0.1976
     65  CA        29.3310  -19.5150   34.4900 C.3   111  TYR111      0.1639
     66  C         28.0020  -20.1940   34.7710 C.2   111  TYR111      0.2290
     67  O         27.5050  -20.0650   35.8820 O.2   111  TYR111     -0.2864
     68  CB        29.1440  -18.0820   33.9740 C.3   111  TYR111      0.0560
     69  CG        30.4700  -17.3770   33.8370 C.ar  111  TYR111     -0.0198
     70  CD1       31.4190  -17.4280   34.8580 C.ar  111  TYR111     -0.0009
     71  CD2       30.8260  -16.7470   32.6490 C.ar  111  TYR111     -0.0009
     72  CE1       32.6850  -16.8590   34.7000 C.ar  111  TYR111      0.0417
     73  CE2       32.0840  -16.1630   32.4850 C.ar  111  TYR111      0.0417
     74  CZ        33.0040  -16.2050   33.5190 C.ar  111  TYR111      0.1957
     75  OH        34.2310  -15.6000   33.3650 O.3   111  TYR111     -0.2866
     76  N         27.6060  -23.5240   35.0320 N.3   113  MET113     -0.1230
     77  CA        27.9590  -24.6010   35.9530 C.3   113  MET113      0.1702
     78  C         28.4480  -24.0710   37.2900 C.2   113  MET113      0.2592
     79  O         28.2690  -24.7420   38.2950 O.2   113  MET113     -0.2718
     80  CB        28.9940  -25.5130   35.3220 C.3   113  MET113      0.0401
     81  CG        28.4930  -26.1210   34.0300 C.3   113  MET113      0.0596
     82  SD        29.4710  -27.5240   33.5080 S.3   113  MET113     -0.1393
     83  CE        31.1740  -26.8070   33.5440 C.3   113  MET113      0.0692
     84  N         29.0420  -22.8630   37.3010 N.am  114  LEU114     -0.1980
     85  CA        29.5040  -22.1930   38.5110 C.3   114  LEU114      0.1596
     86  C         28.2930  -21.8850   39.4120 C.2   114  LEU114      0.2287
     87  O         28.3880  -22.0620   40.6170 O.2   114  LEU114     -0.2864
     88  CB        30.2790  -20.9200   38.1280 C.3   114  LEU114      0.0297
     89  CG        30.9420  -20.1210   39.2400 C.3   114  LEU114      0.0022
     90  CD1       32.0450  -20.9200   39.8990 C.3   114  LEU114      0.0001
     91  CD2       31.4800  -18.8100   38.7050 C.3   114  LEU114      0.0001
     92  N         27.3320  -24.4980   41.9210 N.3   117  LEU117     -0.1245
     93  CA        28.2600  -24.5790   43.0470 C.3   117  LEU117      0.1561
     94  C         28.1320  -23.3840   44.0090 C.2   117  LEU117      0.2260
     95  O         28.8460  -23.3190   45.0200 O.2   117  LEU117     -0.2867
     96  CB        29.6790  -24.6320   42.4500 C.3   117  LEU117      0.0270
     97  CG        30.2750  -26.0140   42.0970 C.3   117  LEU117      0.0019
     98  CD1       29.2990  -26.9220   41.3620 C.3   117  LEU117      0.0001
     99  CD2       31.5270  -25.8620   41.2760 C.3   117  LEU117      0.0001
    100  N         31.4250  -23.3260   46.2630 N.3   124  LEU124     -0.1245
    101  CA        32.1420  -24.5780   46.4920 C.3   124  LEU124      0.1561
    102  C         33.3610  -24.6380   45.5720 C.2   124  LEU124      0.2260
    103  O         33.2330  -24.4050   44.3650 O.2   124  LEU124     -0.2867
    104  CB        31.2310  -25.7880   46.2330 C.3   124  LEU124      0.0270
    105  CG        30.2130  -26.1420   47.3060 C.3   124  LEU124      0.0019
    106  CD1       29.3410  -27.2860   46.8520 C.3   124  LEU124      0.0001
    107  CD2       30.8870  -26.4910   48.6360 C.3   124  LEU124      0.0001
    108  N         35.7000  -12.8700   49.0010 N.3   137  LEU137     -0.1245
    109  CA        36.0500  -12.5680   47.6100 C.3   137  LEU137      0.1561
    110  C         35.8360  -11.0810   47.3070 C.2   137  LEU137      0.2260
    111  O         36.6670  -10.4700   46.6320 O.2   137  LEU137     -0.2867
    112  CB        35.2430  -13.4430   46.6400 C.3   137  LEU137      0.0270
    113  CG        35.7350  -14.8890   46.5030 C.3   137  LEU137      0.0019
    114  CD1       34.6230  -15.7970   46.0210 C.3   137  LEU137      0.0001
    115  CD2       36.9610  -14.9790   45.6020 C.3   137  LEU137      0.0001
    116  N         38.6220   -8.5890   48.6720 N.3   140  LEU140     -0.1245
    117  CA        39.9020   -8.5470   47.9620 C.3   140  LEU140      0.1561
    118  C         40.1190   -7.1620   47.3470 C.2   140  LEU140      0.2260
    119  O         39.1500   -6.5000   46.9530 O.2   140  LEU140     -0.2867
    120  CB        39.9900   -9.6460   46.8860 C.3   140  LEU140      0.0270
    121  CG        39.9780  -11.1020   47.3830 C.3   140  LEU140      0.0019
    122  CD1       39.7590  -12.0730   46.2340 C.3   140  LEU140      0.0001
    123  CD2       41.2670  -11.4540   48.1170 C.3   140  LEU140      0.0001
    124  N         40.3430   -7.0610   41.8560 N.3   144  PHE144     -0.1241
    125  CA        40.0290   -8.4410   42.1820 C.3   144  PHE144      0.1605
    126  C         38.7240   -8.6670   42.9050 C.2   144  PHE144      0.2264
    127  O         38.0490   -9.6420   42.6940 O.2   144  PHE144     -0.2867
    128  CB        41.1980   -9.0680   42.9320 C.3   144  PHE144      0.0534
    129  CG        42.4140   -9.2020   42.0980 C.ar  144  PHE144     -0.0203
    130  CD1       43.3790   -8.2380   42.1080 C.ar  144  PHE144     -0.0042
    131  CD2       42.5630  -10.2580   41.2480 C.ar  144  PHE144     -0.0042
    132  CE1       44.4720   -8.3540   41.3150 C.ar  144  PHE144     -0.0003
    133  CE2       43.6490  -10.3670   40.4620 C.ar  144  PHE144     -0.0003
    134  CZ        44.6050   -9.4250   40.4940 C.ar  144  PHE144     -0.0000
    135  N         35.6380   -9.2410   40.5260 N.3   147  PHE147     -0.1227
    136  CA        35.5590  -10.3290   39.5540 C.3   147  PHE147      0.1736
    137  C         34.3850  -11.3000   39.7870 C.2   147  PHE147      0.2595
    138  O         33.6080  -11.5140   38.8530 O.2   147  PHE147     -0.2718
    139  CB        36.8810  -11.1130   39.4780 C.3   147  PHE147      0.0547
    140  CG        37.8580  -10.5880   38.4490 C.ar  147  PHE147     -0.0202
    141  CD1       37.6390  -10.7900   37.0880 C.ar  147  PHE147     -0.0042
    142  CD2       39.0080   -9.9100   38.8390 C.ar  147  PHE147     -0.0042
    143  CE1       38.5510  -10.3160   36.1380 C.ar  147  PHE147     -0.0003
    144  CE2       39.9150   -9.4320   37.8880 C.ar  147  PHE147     -0.0003
    145  CZ        39.6790   -9.6340   36.5450 C.ar  147  PHE147     -0.0000
    146  N         34.2380  -11.8600   41.0000 N.am  148  MET148     -0.1979
    147  CA        33.2020  -12.8730   41.2500 C.3   148  MET148      0.1605
    148  C         31.8010  -12.3300   41.5570 C.2   148  MET148      0.2287
    149  O         30.8310  -13.0750   41.3870 O.2   148  MET148     -0.2864
    150  CB        33.6200  -13.8240   42.3830 C.3   148  MET148      0.0413
    151  CG        34.5390  -14.9360   41.9190 C.3   148  MET148      0.0598
    152  SD        33.6670  -16.1970   40.9580 S.3   148  MET148     -0.1393
    153  CE        33.9970  -17.5970   41.9460 C.3   148  MET148      0.0692
    154  N         29.0320  -12.7510   38.9180 N.3   151  LYS151     -0.1245
    155  CA        28.7730  -14.2000   38.7890 C.3   151  LYS151      0.1561
    156  C         27.8020  -14.6520   39.8860 C.2   151  LYS151      0.2260
    157  O         26.8600  -15.3820   39.5790 O.2   151  LYS151     -0.2867
    158  CB        30.0770  -15.0250   38.8340 C.3   151  LYS151      0.0271
    159  CG        30.8890  -14.9630   37.5430 C.3   151  LYS151      0.0035
    160  CD        31.8120  -13.7660   37.5240 C.3   151  LYS151      0.0206
    161  CE        32.6390  -13.6380   36.2690 C.3   151  LYS151      0.1093
    162  NZ        33.0550  -12.2240   36.0410 N.3   151  LYS151     -0.1314
    163  N         33.5170   -9.7220   31.9890 N.3   233  HIS233     -0.1241
    164  CA        34.7040  -10.4140   32.5040 C.3   233  HIS233      0.1621
    165  C         35.9300  -10.0570   31.6630 C.2   233  HIS233      0.2264
    166  O         36.9810   -9.7750   32.2330 O.2   233  HIS233     -0.2867
    167  CB        34.4740  -11.9380   32.5370 C.3   233  HIS233      0.0745
    168  CG        35.5730  -12.7140   33.1840 C.ar  233  HIS233      0.0817
    169  ND1       35.6580  -12.8400   34.5540 N.ar  233  HIS233     -0.2268
    170  CD2       36.5880  -13.3990   32.6160 C.ar  233  HIS233      0.1154
    171  CE1       36.7160  -13.6000   34.7810 C.ar  233  HIS233      0.1986
    172  NE2       37.3050  -13.9650   33.6430 N.ar  233  HIS233     -0.2212
    173  N         42.4470  -17.0540   28.6630 N.3   258  LEU258     -0.1245
    174  CA        41.7440  -17.1870   29.9000 C.3   258  LEU258      0.1561
    175  C         41.2190  -18.6150   30.0300 C.2   258  LEU258      0.2260
    176  O         41.0500  -19.1550   31.1170 O.2   258  LEU258     -0.2867
    177  CB        40.6000  -16.1860   29.8940 C.3   258  LEU258      0.0270
    178  CG        39.6700  -16.3390   31.1410 C.3   258  LEU258      0.0019
    179  CD1       40.3830  -15.8950   32.3940 C.3   258  LEU258      0.0001
    180  CD2       38.4040  -15.5510   30.8470 C.3   258  LEU258      0.0001
@<TRIPOS>BOND
     1   173   174    1
     2   177   174    1
     3   177   178    1
     4   174   175    1
     5   175   176    2
     6   180   178    1
     7   178   179    1
     8    54    53    2
     9   165   166    2
    10   165   164    1
    11    63    61    1
    12    56    57    1
    13    53    52    1
    14   163   164    1
    15    61    60    1
    16    73    71   ar
    17    73    74   ar
    18    48    47    2
    19   164   167    1
    20   167   168    1
    21   170   168   ar
    22   170   172   ar
    23    71    69   ar
    24    60    57    1
    25    60    62    1
    26    57    58    1
    27   168   169   ar
    28    52    51    1
    29    52    55    1
    30    47    46    1
    31    75    74    1
    32    82    83    1
    33    82    81    1
    34    74    72   ar
    35    64    58   am
    36    64    65    1
    37   172   171   ar
    38    69    68    1
    39    69    70   ar
    40    68    65    1
    41    58    59    2
    42    81    80    1
    43    49    46    1
    44    49    50    1
    45    46    45    1
    46    65    66    1
    47   169   171   ar
    48    72    70   ar
    49    66    67    2
    50    76    77    1
    51    80    77    1
    52    45    36   am
    53    37    36    2
    54    77    78    1
    55   162   161    1
    56    27    25   ar
    57    27    26   ar
    58   143   145   ar
    59   143   141   ar
    60    36    35    1
    61   161   160    1
    62   145   144   ar
    63    25    23   ar
    64    26    24   ar
    65   141   140   ar
    66    44    42    1
    67    31    30    2
    68    78    84   am
    69    78    79    2
    70    84    85    1
    71    43    42    1
    72   160   159    1
    73   159   158    1
    74    42    41    2
    75    35    34    1
    76    35    38    1
    77   144   142   ar
    78    30    29    1
    79    23    22   ar
    80    88    85    1
    81    88    89    1
    82    41    40    1
    83    24    22   ar
    84   140   142   ar
    85   140   139    1
    86    85    86    1
    87    91    89    1
    88    40    39    1
    89   155   158    1
    90   155   154    1
    91   155   156    1
    92    38    39    1
    93    22    21    1
    94   138   137    2
    95    20    19    2
    96    89    90    1
    97    29    32    1
    98    29    28    1
    99    86    87    2
   100   139   136    1
   101    32    33    1
   102   136   137    1
   103   136   135    1
   104   157   156    2
   105     4     3    2
   106   137   146   am
   107     1     2    1
   108    19    18    1
   109     3     2    1
   110    21    18    1
   111   133   134   ar
   112   133   131   ar
   113   134   132   ar
   114    18    17    1
   115     2     5    1
   116   152   151    1
   117   152   153    1
   118   146   147    1
   119   131   129   ar
   120   147   148    1
   121   147   150    1
   122    99    97    1
   123   132   130   ar
   124    98    97    1
   125   149   148    2
   126     5     6    1
   127   124   125    1
   128   151   150    1
   129    92    93    1
   130    97    96    1
   131   129   130   ar
   132   129   128    1
   133   125   126    1
   134   125   128    1
   135    17    11   am
   136    12    11    2
   137    96    93    1
   138   127   126    2
   139     6     8    1
   140     6     7    1
   141    11    10    1
   142    93    94    1
   143    94    95    2
   144   103   102    2
   145    10     9    1
   146    10    13    1
   147    15    13    1
   148    13    14    1
   149   102   101    1
   150   115   113    1
   151   114   113    1
   152   104   101    1
   153   104   105    1
   154   122   121    1
   155   100   101    1
   156   113   112    1
   157   111   110    2
   158   112   109    1
   159    14    16    1
   160   106   105    1
   161   120   121    1
   162   120   117    1
   163   119   118    2
   164   105   107    1
   165   110   109    1
   166   118   117    1
   167   121   123    1
   168   109   108    1
   169   117   116    1
