@<TRIPOS>MOLECULE
tmp/3sz1B00.pdb
 157 149 0 0 0
SMALL
GASTEIGER

@<TRIPOS>ATOM
      1  N         43.0540  -29.8090   48.8420 N.3    53  LYS53      -0.1231
      2  CA        43.9290  -30.3100   47.7840 C.3    53  LYS53       0.1693
      3  C         43.9790  -29.3080   46.6040 C.2    53  LYS53       0.2592
      4  O         43.1280  -29.3510   45.7030 O.2    53  LYS53      -0.2718
      5  CB        43.4660  -31.7040   47.3130 C.3    53  LYS53       0.0285
      6  CG        44.3070  -32.3810   46.2680 C.3    53  LYS53       0.0035
      7  CD        45.5870  -32.8440   46.8870 C.3    53  LYS53       0.0206
      8  CE        46.3390  -33.7860   45.9430 C.3    53  LYS53       0.1093
      9  NZ        46.9380  -33.0750   44.8270 N.3    53  LYS53      -0.1314
     10  N         44.9610  -28.3820   46.6470 N.am   54  PHE54      -0.1962
     11  CA        45.1960  -27.3820   45.6040 C.3    54  PHE54       0.1771
     12  C         46.3780  -27.7950   44.7590 C.2    54  PHE54       0.2619
     13  O         47.3490  -28.3380   45.2920 O.2    54  PHE54      -0.2715
     14  CB        45.4260  -25.9840   46.1920 C.3    54  PHE54       0.0574
     15  CG        44.1890  -25.3510   46.7780 C.ar   54  PHE54      -0.0200
     16  CD1       44.1610  -24.9450   48.1080 C.ar   54  PHE54      -0.0042
     17  CD2       43.0460  -25.1660   46.0020 C.ar   54  PHE54      -0.0042
     18  CE1       43.0140  -24.3570   48.6500 C.ar   54  PHE54      -0.0003
     19  CE2       41.8970  -24.5940   46.5490 C.ar   54  PHE54      -0.0003
     20  CZ        41.8890  -24.1920   47.8680 C.ar   54  PHE54      -0.0000
     21  N         46.2790  -27.5560   43.4620 N.am   55  LYS55      -0.1963
     22  CA        47.3460  -27.8070   42.5390 C.3    55  LYS55       0.1728
     23  C         47.9760  -26.6260   41.8570 C.2    55  LYS55       0.2616
     24  O         48.8180  -26.7870   41.0450 O.2    55  LYS55      -0.2715
     25  CB        46.8660  -28.7990   41.5260 C.3    55  LYS55       0.0311
     26  CG        46.7100  -30.1420   42.0990 C.3    55  LYS55       0.0038
     27  CD        45.8960  -30.9570   41.2130 C.3    55  LYS55       0.0206
     28  CE        45.2380  -32.1020   41.9220 C.3    55  LYS55       0.1093
     29  NZ        44.1300  -32.6060   41.0720 N.3    55  LYS55      -0.1314
     30  N         47.5450  -25.4380   42.2070 N.am   56  HIS56      -0.1973
     31  CA        48.0540  -24.1970   41.6090 C.3    56  HIS56       0.1656
     32  C         49.1180  -23.4540   42.4390 C.2    56  HIS56       0.2291
     33  O         49.6490  -22.4510   41.9580 O.2    56  HIS56      -0.2864
     34  CB        46.8810  -23.2360   41.3030 C.3    56  HIS56       0.0771
     35  CG        46.2290  -22.6580   42.5260 C.ar   56  HIS56       0.0820
     36  ND1       45.3070  -23.3810   43.2640 N.ar   56  HIS56      -0.2267
     37  CD2       46.3910  -21.4440   43.1020 C.ar   56  HIS56       0.1154
     38  CE1       44.9370  -22.5870   44.2560 C.ar   56  HIS56       0.1986
     39  NE2       45.5590  -21.4090   44.1980 N.ar   56  HIS56      -0.2212
     40  N         44.4020  -16.4030   44.5560 N.3    65  ILE65      -0.1245
     41  CA        43.0010  -16.8220   44.3700 C.3    65  ILE65       0.1561
     42  C         42.6520  -16.7150   42.8750 C.2    65  ILE65       0.2260
     43  O         42.0380  -17.6350   42.3340 O.2    65  ILE65      -0.2867
     44  CB        42.0120  -16.0050   45.2580 C.3    65  ILE65       0.0252
     45  CG1       42.3320  -16.1750   46.7600 C.3    65  ILE65       0.0019
     46  CG2       40.5360  -16.3780   44.9610 C.3    65  ILE65       0.0019
     47  CD1       41.5820  -15.2250   47.6820 C.3    65  ILE65       0.0001
     48  N         44.1150  -19.5490   41.0400 N.3    68  GLY68      -0.1210
     49  CA        43.3790  -20.7400   41.4470 C.3    68  GLY68       0.1956
     50  C         42.1450  -20.9280   40.5920 C.2    68  GLY68       0.2612
     51  O         41.8120  -22.0570   40.2170 O.2    68  GLY68      -0.2717
     52  N         41.4820  -19.8010   40.2530 N.am   69  CYS69      -0.1970
     53  CA        40.3000  -19.7370   39.3850 C.3    69  CYS69       0.1712
     54  C         40.6850  -20.0630   37.9500 C.2    69  CYS69       0.2296
     55  O         39.9100  -20.7220   37.2600 O.2    69  CYS69      -0.2864
     56  CB        39.6290  -18.3690   39.4810 C.3    69  CYS69       0.0983
     57  SG        38.8240  -18.0580   41.0700 S.3    69  CYS69      -0.0798
     58  N         43.3140  -21.9780   37.0630 N.3    71  PHE71      -0.1227
     59  CA        43.6100  -23.4130   37.0940 C.3    71  PHE71       0.1736
     60  C         42.3410  -24.2310   36.8950 C.2    71  PHE71       0.2595
     61  O         42.3280  -25.1400   36.0660 O.2    71  PHE71      -0.2718
     62  CB        44.2930  -23.8300   38.4200 C.3    71  PHE71       0.0547
     63  CG        44.7920  -25.2660   38.3980 C.ar   71  PHE71      -0.0202
     64  CD1       43.9380  -26.3240   38.6960 C.ar   71  PHE71      -0.0042
     65  CD2       46.0970  -25.5590   38.0150 C.ar   71  PHE71      -0.0042
     66  CE1       44.3740  -27.6490   38.5880 C.ar   71  PHE71      -0.0003
     67  CE2       46.5350  -26.8850   37.9230 C.ar   71  PHE71      -0.0003
     68  CZ        45.6700  -27.9190   38.2010 C.ar   71  PHE71      -0.0000
     69  N         41.2730  -23.9050   37.6630 N.am   72  ARG72      -0.1980
     70  CA        39.9930  -24.6050   37.6160 C.3    72  ARG72       0.1597
     71  C         39.2910  -24.3850   36.2630 C.2    72  ARG72       0.2287
     72  O         38.7260  -25.3410   35.7210 O.2    72  ARG72      -0.2864
     73  CB        39.1030  -24.1930   38.8040 C.3    72  ARG72       0.0334
     74  CG        37.6840  -24.7920   38.8200 C.3    72  ARG72       0.0492
     75  CD        37.6540  -26.3050   38.7720 C.3    72  ARG72       0.2205
     76  NE        36.3610  -26.7760   38.2710 N.pl3  72  ARG72      -0.0865
     77  CZ        36.1820  -27.8950   37.5830 C.cat  72  ARG72       0.5346
     78  NH1       37.2070  -28.6940   37.3200 N.pl3  72  ARG72       0.1354
     79  NH2       34.9740  -28.2280   37.1530 N.pl3  72  ARG72       0.1354
     80  N         40.6980  -26.7480   33.7260 N.3    75  GLU75      -0.1245
     81  CA        40.1440  -28.0920   33.9860 C.3    75  GLU75       0.1567
     82  C         38.7130  -28.2080   33.4670 C.2    75  GLU75       0.2260
     83  O         38.3500  -29.2340   32.8780 O.2    75  GLU75      -0.2867
     84  CB        40.1140  -28.4000   35.4830 C.3    75  GLU75       0.0388
     85  CG        41.4360  -28.5830   36.1970 C.3    75  GLU75       0.1160
     86  CD        41.2040  -29.1180   37.5980 C.2    75  GLU75       0.3649
     87  OE1       40.3920  -28.5200   38.3400 O.co2  75  GLU75      -0.2457
     88  OE2       41.7740  -30.1800   37.9280 O.co2  75  GLU75      -0.2457
     89  N         29.0420  -22.8630   37.3010 N.3   114  LEU114     -0.1245
     90  CA        29.5040  -22.1930   38.5110 C.3   114  LEU114      0.1561
     91  C         28.2930  -21.8850   39.4120 C.2   114  LEU114      0.2260
     92  O         28.3880  -22.0620   40.6170 O.2   114  LEU114     -0.2867
     93  CB        30.2790  -20.9200   38.1280 C.3   114  LEU114      0.0270
     94  CG        30.9420  -20.1210   39.2400 C.3   114  LEU114      0.0019
     95  CD1       32.0450  -20.9200   39.8990 C.3   114  LEU114      0.0001
     96  CD2       31.4800  -18.8100   38.7050 C.3   114  LEU114      0.0001
     97  N         27.3320  -24.4980   41.9210 N.3   117  LEU117     -0.1245
     98  CA        28.2600  -24.5790   43.0470 C.3   117  LEU117      0.1561
     99  C         28.1320  -23.3840   44.0090 C.2   117  LEU117      0.2260
    100  O         28.8460  -23.3190   45.0200 O.2   117  LEU117     -0.2867
    101  CB        29.6790  -24.6320   42.4500 C.3   117  LEU117      0.0270
    102  CG        30.2750  -26.0140   42.0970 C.3   117  LEU117      0.0019
    103  CD1       29.2990  -26.9220   41.3620 C.3   117  LEU117      0.0001
    104  CD2       31.5270  -25.8620   41.2760 C.3   117  LEU117      0.0001
    105  N         30.8330  -19.9470   47.2790 N.3   123  VAL123     -0.1231
    106  CA        31.0200  -20.9080   46.2020 C.3   123  VAL123      0.1692
    107  C         31.8550  -22.1150   46.6640 C.2   123  VAL123      0.2592
    108  O         32.8670  -21.9500   47.3350 O.2   123  VAL123     -0.2718
    109  CB        31.6320  -20.1980   44.9400 C.3   123  VAL123      0.0266
    110  CG1       33.0020  -19.5710   45.2190 C.3   123  VAL123      0.0020
    111  CG2       31.6830  -21.1250   43.7230 C.3   123  VAL123      0.0020
    112  N         31.4250  -23.3260   46.2630 N.am  124  LEU124     -0.1966
    113  CA        32.1420  -24.5780   46.4920 C.3   124  LEU124      0.1728
    114  C         33.3610  -24.6380   45.5720 C.2   124  LEU124      0.2616
    115  O         33.2330  -24.4050   44.3650 O.2   124  LEU124     -0.2715
    116  CB        31.2310  -25.7880   46.2330 C.3   124  LEU124      0.0311
    117  CG        30.2130  -26.1420   47.3060 C.3   124  LEU124      0.0022
    118  CD1       29.3410  -27.2860   46.8520 C.3   124  LEU124      0.0001
    119  CD2       30.8870  -26.4910   48.6360 C.3   124  LEU124      0.0001
    120  N         34.5160  -24.9830   46.0950 N.am  125  ILE125     -0.1963
    121  CA        35.7100  -25.0860   45.2870 C.3   125  ILE125      0.1727
    122  C         36.3980  -26.4360   45.5010 C.2   125  ILE125      0.2616
    123  O         36.0780  -27.1360   46.4160 O.2   125  ILE125     -0.2715
    124  CB        36.6910  -23.9540   45.5500 C.3   125  ILE125      0.0290
    125  CG1       37.3180  -24.1300   46.9020 C.3   125  ILE125      0.0022
    126  CG2       36.0240  -22.6560   45.5030 C.3   125  ILE125      0.0023
    127  CD1       38.1040  -23.0010   47.3200 C.3   125  ILE125      0.0001
    128  N         37.2920  -26.8010   44.5910 N.am  126  SER126     -0.1950
    129  CA        38.0870  -28.0230   44.6700 C.3   126  SER126      0.1924
    130  C         37.3050  -29.2930   44.8880 C.2   126  SER126      0.2314
    131  O         37.4730  -29.9720   45.8560 O.2   126  SER126     -0.2863
    132  CB        39.1660  -27.9010   45.7140 C.3   126  SER126      0.2116
    133  OG        39.8850  -29.0910   45.8070 O.3   126  SER126     -0.2180
    134  N         34.4910  -21.0100   49.5210 N.3   132  MET132     -0.1245
    135  CA        34.9700  -19.6360   49.6400 C.3   132  MET132      0.1570
    136  C         33.7760  -18.7060   49.7010 C.2   132  MET132      0.2261
    137  O         32.8930  -18.7860   48.8430 O.2   132  MET132     -0.2867
    138  CB        35.9230  -19.2490   48.4980 C.3   132  MET132      0.0387
    139  CG        36.8120  -18.0680   48.8700 C.3   132  MET132      0.0595
    140  SD        38.1800  -17.8320   47.7520 S.3   132  MET132     -0.1393
    141  CE        39.2030  -19.2310   48.1580 C.3   132  MET132      0.0692
    142  N         35.7000  -12.8700   49.0010 N.3   137  LEU137     -0.1245
    143  CA        36.0500  -12.5680   47.6100 C.3   137  LEU137      0.1561
    144  C         35.8360  -11.0810   47.3070 C.2   137  LEU137      0.2260
    145  O         36.6670  -10.4700   46.6320 O.2   137  LEU137     -0.2867
    146  CB        35.2430  -13.4430   46.6400 C.3   137  LEU137      0.0270
    147  CG        35.7350  -14.8890   46.5030 C.3   137  LEU137      0.0019
    148  CD1       34.6230  -15.7970   46.0210 C.3   137  LEU137      0.0001
    149  CD2       36.9610  -14.9790   45.6020 C.3   137  LEU137      0.0001
    150  N         34.2380  -11.8600   41.0000 N.3   148  MET148     -0.1245
    151  CA        33.2020  -12.8730   41.2500 C.3   148  MET148      0.1570
    152  C         31.8010  -12.3300   41.5570 C.2   148  MET148      0.2261
    153  O         30.8310  -13.0750   41.3870 O.2   148  MET148     -0.2867
    154  CB        33.6200  -13.8240   42.3830 C.3   148  MET148      0.0387
    155  CG        34.5390  -14.9360   41.9190 C.3   148  MET148      0.0595
    156  SD        33.6670  -16.1970   40.9580 S.3   148  MET148     -0.1393
    157  CE        33.9970  -17.5970   41.9460 C.3   148  MET148      0.0692
@<TRIPOS>BOND
     1    83    82    2
     2    82    81    1
     3    80    81    1
     4    81    84    1
     5    84    85    1
     6    72    71    2
     7    61    60    2
     8    85    86    1
     9    71    70    1
    10    60    59    1
    11    60    69   am
    12    58    59    1
    13    59    62    1
    14    79    77    1
    15    55    54    2
    16    89    90    1
    17    78    77    1
    18    77    76    2
    19    86    88   ar
    20    86    87   ar
    21    70    69    1
    22    70    73    1
    23    67    65   ar
    24    67    68   ar
    25    54    53    1
    26    65    63   ar
    27    93    90    1
    28    93    94    1
    29    68    66   ar
    30    76    75    1
    31    63    62    1
    32    63    64   ar
    33    90    91    1
    34    66    64   ar
    35    96    94    1
    36    75    74    1
    37    73    74    1
    38    94    95    1
    39    53    56    1
    40    53    52    1
    41    91    92    2
    42    56    57    1
    43    51    50    2
    44    52    50   am
    45    50    49    1
    46   156   155    1
    47   156   157    1
    48   150   151    1
    49    48    49    1
    50    24    23    2
    51    29    28    1
    52    27    28    1
    53    27    26    1
    54   151   152    1
    55   151   154    1
    56   104   102    1
    57    34    31    1
    58    34    35    1
    59   103   102    1
    60   153   152    2
    61    25    26    1
    62    25    22    1
    63    31    30    1
    64    31    32    1
    65    23    30   am
    66    23    22    1
    67   155   154    1
    68    97    98    1
    69    33    32    2
    70   102   101    1
    71    43    42    2
    72   101    98    1
    73    35    37   ar
    74    35    36   ar
    75    22    21    1
    76    42    41    1
    77    98    99    1
    78    37    39   ar
    79    36    38   ar
    80    21    12   am
    81   111   109    1
    82    99   100    2
    83    39    38   ar
    84   115   114    2
    85    41    40    1
    86    41    44    1
    87   128   129    1
    88   128   122   am
    89   129   130    1
    90   129   132    1
    91    12    13    2
    92    12    11    1
    93     9     8    1
    94   130   131    2
    95   109   110    1
    96   109   106    1
    97    46    44    1
    98    44    45    1
    99   121   122    1
   100   121   124    1
   101   121   120    1
   102   122   123    2
   103   126   124    1
   104   124   125    1
   105   114   120   am
   106   114   113    1
   107   149   147    1
   108    11    14    1
   109    11    10    1
   110     4     3    2
   111   132   133    1
   112     8     7    1
   113    17    19   ar
   114    17    15   ar
   115   148   147    1
   116    14    15    1
   117   106   107    1
   118   106   105    1
   119   116   113    1
   120   116   117    1
   121   112   113    1
   122   112   107   am
   123     6     7    1
   124     6     5    1
   125   147   146    1
   126    19    20   ar
   127     3    10   am
   128     3     2    1
   129   145   144    2
   130   146   143    1
   131   107   108    2
   132    45    47    1
   133    15    16   ar
   134   118   117    1
   135   125   127    1
   136   117   119    1
   137   144   143    1
   138     5     2    1
   139   143   142    1
   140   140   141    1
   141   140   139    1
   142     2     1    1
   143    20    18   ar
   144    16    18   ar
   145   138   139    1
   146   138   135    1
   147   137   136    2
   148   134   135    1
   149   135   136    1
