@<TRIPOS>MOLECULE
tmp/3sz1A01.pdb
 136 128 0 0 0
SMALL
GASTEIGER

@<TRIPOS>ATOM
      1  N          1.8170    2.5320   15.3620 N.3    20  PHE20      -0.1241
      2  CA         2.9540    2.6760   14.4530 C.3    20  PHE20       0.1605
      3  C          2.4790    2.9250   13.0240 C.2    20  PHE20       0.2264
      4  O          2.0050    1.9990   12.3870 O.2    20  PHE20      -0.2867
      5  CB         3.8870    1.4420   14.5510 C.3    20  PHE20       0.0534
      6  CG         4.3390    1.1330   15.9650 C.ar   20  PHE20      -0.0203
      7  CD1        5.2560    1.9440   16.6120 C.ar   20  PHE20      -0.0042
      8  CD2        3.8510    0.0270   16.6430 C.ar   20  PHE20      -0.0042
      9  CE1        5.6750    1.6560   17.9180 C.ar   20  PHE20      -0.0003
     10  CE2        4.2730   -0.2630   17.9540 C.ar   20  PHE20      -0.0003
     11  CZ         5.1760    0.5580   18.5830 C.ar   20  PHE20      -0.0000
     12  N         18.0720   11.4180   12.6110 N.3    67  CYS67      -0.1221
     13  CA        17.9110   10.1150   13.2640 C.3    67  CYS67       0.1808
     14  C         17.4610   10.2940   14.7060 C.2    67  CYS67       0.2601
     15  O         16.6730    9.4850   15.2030 O.2    67  CYS67      -0.2717
     16  CB        19.2010    9.3110   13.1960 C.3    67  CYS67       0.0970
     17  SG        19.6510    8.7950   11.5280 S.3    67  CYS67      -0.0800
     18  N         17.9570   11.3650   15.3680 N.am   68  GLN68      -0.1979
     19  CA        17.6130   11.7120   16.7490 C.3    68  GLN68       0.1601
     20  C         16.1520   12.1320   16.8310 C.2    68  GLN68       0.2287
     21  O         15.4640   11.6890   17.7460 O.2    68  GLN68      -0.2864
     22  CB        18.5420   12.8070   17.3230 C.3    68  GLN68       0.0394
     23  CG        20.0340   12.4190   17.4510 C.3    68  GLN68       0.0908
     24  CD        20.3020   11.0400   18.0310 C.2    68  GLN68       0.2608
     25  OE1       20.1730   10.8020   19.2350 O.2    68  GLN68      -0.2717
     26  NE2       20.7010   10.1040   17.1840 N.am   68  GLN68      -0.0878
     27  N         13.7170   11.2180   14.6890 N.3    70  ARG70      -0.1231
     28  CA        12.9110   10.0240   14.4250 C.3    70  ARG70       0.1694
     29  C         12.8870    9.1370   15.6840 C.2    70  ARG70       0.2592
     30  O         11.8220    8.6190   16.0230 O.2    70  ARG70      -0.2718
     31  CB        13.4010    9.2590   13.1670 C.3    70  ARG70       0.0321
     32  CG        12.6960    7.9200   12.8820 C.3    70  ARG70       0.0489
     33  CD        11.1840    8.0220   12.7510 C.3    70  ARG70       0.2205
     34  NE        10.5380    6.7430   13.0450 N.pl3  70  ARG70      -0.0865
     35  CZ         9.3140    6.6120   13.5500 C.cat  70  ARG70       0.5346
     36  NH1        8.5860    7.6870   13.8300 N.pl3  70  ARG70       0.1354
     37  NH2        8.8130    5.4060   13.7870 N.pl3  70  ARG70       0.1354
     38  N         14.0310    9.0220   16.4010 N.am   71  SER71      -0.1952
     39  CA        14.1280    8.2630   17.6570 C.3    71  SER71       0.1924
     40  C         13.1340    8.8080   18.7020 C.2    71  SER71       0.2314
     41  O         12.4380    8.0120   19.3180 O.2    71  SER71      -0.2863
     42  CB        15.5500    8.2920   18.2100 C.3    71  SER71       0.2116
     43  OG        16.4150    7.4520   17.4640 O.3    71  SER71      -0.2180
     44  N          9.6890    7.7860   17.6690 N.3    74  ALA74      -0.1245
     45  CA         9.5700    6.3510   17.9310 C.3    74  ALA74       0.1562
     46  C          9.2980    6.0960   19.4200 C.2    74  ALA74       0.2260
     47  O          8.3890    5.3280   19.7460 O.2    74  ALA74      -0.2867
     48  CB        10.8270    5.6270   17.4760 C.3    74  ALA74       0.0290
     49  N          5.6750    6.7530   20.0910 N.3    77  GLU77      -0.1182
     50  CA         4.8490    5.6760   19.5450 C.3    77  GLU77       0.1915
     51  C          4.9220    4.4430   20.4340 C.2    77  GLU77       0.2634
     52  O          3.8850    3.8360   20.7000 O.2    77  GLU77      -0.2714
     53  CB         5.2870    5.3280   18.1080 C.2    77  GLU77       0.0085
     54  CG         5.0720    6.4290   17.0820 C.2    77  GLU77       0.0835
     55  CD         5.8210    6.2660   15.7680 C.2    77  GLU77       0.3877
     56  OE1        6.3210    5.1540   15.4860 O.co2  77  GLU77      -0.2406
     57  OE2        5.9010    7.2550   15.0100 O.co2  77  GLU77      -0.2406
     58  N          6.1470    4.0810   20.9130 N.am   78  ILE78      -0.1977
     59  CA         6.3590    2.9230   21.7960 C.3    78  ILE78       0.1596
     60  C          5.6390    3.1550   23.1380 C.2    78  ILE78       0.2287
     61  O          4.9880    2.2360   23.6460 O.2    78  ILE78      -0.2864
     62  CB         7.8740    2.5920   21.9890 C.3    78  ILE78       0.0276
     63  CG1        8.5220    2.1900   20.6530 C.3    78  ILE78       0.0022
     64  CG2        8.0760    1.4690   23.0360 C.3    78  ILE78       0.0022
     65  CD1       10.0590    2.4400   20.5930 C.3    78  ILE78       0.0001
     66  N         13.3480    0.1330   19.2040 N.3   108  ILE108     -0.1231
     67  CA        13.7280    1.0080   18.0950 C.3   108  ILE108      0.1692
     68  C         14.5290    0.2090   17.0490 C.2   108  ILE108      0.2592
     69  O         14.1870    0.2770   15.8730 O.2   108  ILE108     -0.2718
     70  CB        14.4990    2.2770   18.5950 C.3   108  ILE108      0.0266
     71  CG1       13.5250    3.3160   19.1710 C.3   108  ILE108      0.0019
     72  CG2       15.3650    2.9110   17.4770 C.3   108  ILE108      0.0020
     73  CD1       14.1810    4.5210   19.9550 C.3   108  ILE108      0.0001
     74  N         15.5380   -0.5860   17.4830 N.am  109  TYR109     -0.1976
     75  CA        16.3730   -1.3700   16.5670 C.3   109  TYR109      0.1639
     76  C         15.6270   -2.5630   16.0040 C.2   109  TYR109      0.2290
     77  O         15.8650   -2.9140   14.8560 O.2   109  TYR109     -0.2864
     78  CB        17.7010   -1.7790   17.2210 C.3   109  TYR109      0.0560
     79  CG        18.4660   -0.5560   17.6750 C.ar  109  TYR109     -0.0198
     80  CD1       18.6210    0.5440   16.8330 C.ar  109  TYR109     -0.0009
     81  CD2       18.9390   -0.4500   18.9770 C.ar  109  TYR109     -0.0009
     82  CE1       19.2210    1.7180   17.2780 C.ar  109  TYR109      0.0417
     83  CE2       19.5580    0.7120   19.4290 C.ar  109  TYR109      0.0417
     84  CZ        19.7030    1.7900   18.5720 C.ar  109  TYR109      0.1957
     85  OH        20.3180    2.9370   18.9960 O.3   109  TYR109     -0.2866
     86  N         12.3450   -2.5430   15.2680 N.3   111  MET111     -0.1230
     87  CA        11.4540   -1.9430   14.2890 C.3   111  MET111      0.1702
     88  C         12.2160   -1.2960   13.1240 C.2   111  MET111      0.2592
     89  O         11.6940   -1.2320   12.0170 O.2   111  MET111     -0.2718
     90  CB        10.5340   -0.9360   14.9840 C.3   111  MET111      0.0401
     91  CG         9.7340   -1.5730   16.1120 C.3   111  MET111      0.0596
     92  SD         8.3440   -0.5920   16.6770 S.3   111  MET111     -0.1393
     93  CE         7.3010   -0.7120   15.2380 C.3   111  MET111      0.0692
     94  N         13.4550   -0.8620   13.3630 N.am  112  LEU112     -0.1980
     95  CA        14.3340   -0.3010   12.3430 C.3   112  LEU112      0.1596
     96  C         14.6690   -1.3800   11.3010 C.2   112  LEU112      0.2287
     97  O         14.6920   -1.0730   10.1100 O.2   112  LEU112     -0.2864
     98  CB        15.6020    0.2660   12.9910 C.3   112  LEU112      0.0297
     99  CG        16.6010    1.0000   12.1000 C.3   112  LEU112      0.0022
    100  CD1       16.0120    2.2720   11.5080 C.3   112  LEU112      0.0001
    101  CD2       17.8500    1.3330   12.8870 C.3   112  LEU112      0.0001
    102  N         12.4160   -1.6030    8.3350 N.3   115  LEU115     -0.1245
    103  CA        12.6090   -0.5110    7.3760 C.3   115  LEU115      0.1561
    104  C         13.9130   -0.6550    6.5710 C.2   115  LEU115      0.2260
    105  O         14.2020    0.1690    5.6940 O.2   115  LEU115     -0.2867
    106  CB        12.6210    0.8040    8.1750 C.3   115  LEU115      0.0270
    107  CG        11.2820    1.5270    8.4320 C.3   115  LEU115      0.0019
    108  CD1       10.1730    0.5880    8.9080 C.3   115  LEU115      0.0001
    109  CD2       11.4750    2.6410    9.4380 C.3   115  LEU115      0.0001
    110  N         25.2910    3.5620   11.9870 N.3   146  MET146     -0.1245
    111  CA        24.2330    2.6960   11.4720 C.3   146  MET146      0.1570
    112  C         24.6940    1.2910   11.0630 C.2   146  MET146      0.2261
    113  O         23.8500    0.3950   10.9830 O.2   146  MET146     -0.2867
    114  CB        23.5310    3.3760   10.2920 C.3   146  MET146      0.0387
    115  CG        22.4650    4.3590   10.7250 C.3   146  MET146      0.0595
    116  SD        20.9800    3.5490   11.3840 S.3   146  MET146     -0.1393
    117  CE        19.7870    4.1150   10.2380 C.3   146  MET146      0.0692
    118  N         23.5820   -1.7420   13.1620 N.3   149  LYS149     -0.1245
    119  CA        22.1220   -1.8580   13.0300 C.3   149  LYS149      0.1561
    120  C         21.7740   -2.6190   11.7480 C.2   149  LYS149      0.2260
    121  O         20.9300   -3.5080   11.7920 O.2   149  LYS149     -0.2867
    122  CB        21.4470   -0.4700   13.0610 C.3   149  LYS149      0.0271
    123  CG        21.3780    0.1680   14.4520 C.3   149  LYS149      0.0035
    124  CD        22.6300    0.9530   14.7870 C.3   149  LYS149      0.0206
    125  CE        22.6020    1.6240   16.1350 C.3   149  LYS149      0.1093
    126  NZ        23.9750    1.9050   16.6140 N.3   149  LYS149     -0.1314
    127  N         25.8880    1.6280   20.9300 N.3   231  HIS231     -0.1241
    128  CA        25.3110    2.9250   20.5740 C.3   231  HIS231      0.1621
    129  C         25.5680    3.9750   21.6640 C.2   231  HIS231      0.2264
    130  O         25.9580    5.1010   21.3470 O.2   231  HIS231     -0.2867
    131  CB        23.8130    2.7880   20.2870 C.3   231  HIS231      0.0745
    132  CG        23.1900    4.0360   19.7340 C.ar  231  HIS231      0.0817
    133  ND1       23.2630    4.3420   18.3880 N.ar  231  HIS231     -0.2268
    134  CD2       22.4720    5.0000   20.3630 C.ar  231  HIS231      0.1154
    135  CE1       22.5930    5.4730   18.2420 C.ar  231  HIS231      0.1986
    136  NE2       22.1070    5.9120   19.4030 N.ar  231  HIS231     -0.2212
@<TRIPOS>BOND
     1   105   104    2
     2   104   103    1
     3   103   106    1
     4   103   102    1
     5   106   107    1
     6   107   108    1
     7   107   109    1
     8    97    96    2
     9   117   116    1
    10   114   115    1
    11   114   111    1
    12   115   116    1
    13   113   112    2
    14   112   111    1
    15    96    95    1
    16   111   110    1
    17   100    99    1
    18    17    16    1
    19   120   121    2
    20   120   119    1
    21    89    88    2
    22    99   101    1
    23    99    98    1
    24    95    98    1
    25    95    94    1
    26     4     3    2
    27    12    13    1
    28    33    32    1
    29    33    34    1
    30    32    31    1
    31     3     2    1
    32   119   122    1
    33   119   118    1
    34    34    35    2
    35   122   123    1
    36    88    94   am
    37    88    87    1
    38    31    28    1
    39    16    13    1
    40    13    14    1
    41    35    37    1
    42    35    36    1
    43    87    90    1
    44    87    86    1
    45    28    27    1
    46    28    29    1
    47   123   124    1
    48     2     5    1
    49     2     1    1
    50     5     6    1
    51    14    15    2
    52    14    18   am
    53   124   125    1
    54    77    76    2
    55    90    91    1
    56    57    55   ar
    57    93    92    1
    58    18    19    1
    59    56    55   ar
    60    29    30    2
    61    29    38   am
    62    55    54    1
    63    69    68    2
    64     6     7   ar
    65     6     8   ar
    66    76    75    1
    67    91    92    1
    68   125   126    1
    69    38    39    1
    70    75    78    1
    71    75    74    1
    72     7     9   ar
    73     8    10   ar
    74    19    20    1
    75    19    22    1
    76    20    21    2
    77    80    82   ar
    78    80    79   ar
    79    68    74   am
    80    68    67    1
    81    54    53    2
    82    26    24   am
    83    78    79    1
    84    82    84   ar
    85    22    23    1
    86    23    24    1
    87    43    42    1
    88    48    45    1
    89    72    70    1
    90    39    42    1
    91    39    40    1
    92    44    45    1
    93    79    81   ar
    94     9    11   ar
    95    45    46    1
    96    10    11   ar
    97    24    25    2
    98    67    70    1
    99    67    66    1
   100    53    50    1
   101   135   133   ar
   102   135   136   ar
   103   133   132   ar
   104    84    85    1
   105    84    83   ar
   106    70    71    1
   107    40    41    2
   108    81    83   ar
   109    71    73    1
   110   136   134   ar
   111    46    47    2
   112    50    49    1
   113    50    51    1
   114   132   131    1
   115   132   134   ar
   116   131   128    1
   117    51    52    2
   118    51    58   am
   119   128   127    1
   120   128   129    1
   121    65    63    1
   122    63    62    1
   123    58    59    1
   124   130   129    2
   125    59    62    1
   126    59    60    1
   127    62    64    1
   128    60    61    2
