@<TRIPOS>MOLECULE
tmp/3sz3A00.pdb
 110 102 0 0 0
SMALL
GASTEIGER

@<TRIPOS>ATOM
      1  N         -5.6900   19.5660   17.4670 N.3    10  LEU10      -0.1245
      2  CA        -4.4910   18.7720   17.5070 C.3    10  LEU10       0.1561
      3  C         -3.5200   19.2790   16.4440 C.2    10  LEU10       0.2260
      4  O         -3.8730   19.3890   15.2530 O.2    10  LEU10      -0.2867
      5  CB        -4.8020   17.3200   17.2820 C.3    10  LEU10       0.0270
      6  CG        -3.5180   16.4920   17.4040 C.3    10  LEU10       0.0019
      7  CD1       -3.7000   15.3270   18.3490 C.3    10  LEU10       0.0001
      8  CD2       -3.0300   16.0590   16.0710 C.3    10  LEU10       0.0001
      9  N          0.3770   18.6520   14.8170 N.3    12  GLY12      -0.1225
     10  CA         1.4940   17.7680   14.6580 C.3    12  GLY12       0.1811
     11  C          2.7750   18.5470   14.5370 C.2    12  GLY12       0.2280
     12  O          2.8760   19.5090   13.7360 O.2    12  GLY12      -0.2866
     13  N          6.8110   18.1800   13.7980 N.3    14  GLN14      -0.1245
     14  CA         7.7870   17.2600   13.2330 C.3    14  GLN14       0.1566
     15  C          9.0700   17.2490   14.0410 C.2    14  GLN14       0.2260
     16  O          9.6550   18.3390   14.2780 O.2    14  GLN14      -0.2867
     17  CB         8.1850   17.7250   11.8270 C.3    14  GLN14       0.0367
     18  CG         7.0980   17.8250   10.8180 C.3    14  GLN14       0.0905
     19  CD         6.3180   16.5950   10.6910 C.2    14  GLN14       0.2608
     20  OE1        5.0800   16.6380   10.6330 O.2    14  GLN14      -0.2717
     21  NE2        7.0010   15.4620   10.6490 N.am   14  GLN14      -0.0878
     22  N          1.5000   17.0600   19.3530 N.3    43  CYS43      -0.1235
     23  CA         2.0050   15.7110   19.2170 C.3    43  CYS43       0.1677
     24  C          3.2950   15.7990   18.4000 C.2    43  CYS43       0.2270
     25  O          3.2600   16.1580   17.2090 O.2    43  CYS43      -0.2867
     26  CB         0.9600   14.8540   18.4770 C.3    43  CYS43       0.0956
     27  SG         1.5220   13.1660   18.1570 S.3    43  CYS43      -0.0801
     28  N          5.6420   14.0790   16.2250 N.3    45  VAL45      -0.1245
     29  CA         5.3160   12.9250   15.3910 C.3    45  VAL45       0.1561
     30  C          6.5480   12.1220   14.9570 C.2    45  VAL45       0.2260
     31  O          6.9200   12.0110   13.7890 O.2    45  VAL45      -0.2867
     32  CB         4.3840   13.2870   14.2110 C.3    45  VAL45       0.0252
     33  CG1        2.9910   13.6060   14.6990 C.3    45  VAL45       0.0019
     34  CG2        4.9120   14.4590   13.3980 C.3    45  VAL45       0.0019
     35  N          6.0200    9.2450   12.3630 N.3    48  HIS48      -0.1241
     36  CA         6.0170    9.6770   10.9700 C.3    48  HIS48       0.1621
     37  C          7.4500    9.9840   10.4670 C.2    48  HIS48       0.2264
     38  O          7.7200    9.8730    9.2730 O.2    48  HIS48      -0.2867
     39  CB         5.0710   10.8760   10.7820 C.3    48  HIS48       0.0745
     40  CG         3.6170   10.5070   10.7200 C.ar   48  HIS48       0.0817
     41  ND1        2.7790   10.5510   11.8190 N.ar   48  HIS48      -0.2268
     42  CD2        2.8550   10.0820    9.6870 C.ar   48  HIS48       0.1154
     43  CE1        1.5630   10.1890   11.4540 C.ar   48  HIS48       0.1986
     44  NE2        1.5790    9.9040   10.1630 N.ar   48  HIS48      -0.2212
     45  N          1.2690    6.5540    5.7300 N.3   131  TYR131     -0.1241
     46  CA         1.2650    7.5270    6.8450 C.3   131  TYR131      0.1605
     47  C          0.0230    8.4200    6.9210 C.2   131  TYR131      0.2264
     48  O         -0.2940    8.8900    7.9990 O.2   131  TYR131     -0.2867
     49  CB         2.5630    8.3240    7.0060 C.3   131  TYR131      0.0534
     50  CG         2.7620    9.5720    6.1460 C.ar  131  TYR131     -0.0201
     51  CD1        2.0700   10.7530    6.4020 C.ar  131  TYR131     -0.0009
     52  CD2        3.7230    9.5820    5.1610 C.ar  131  TYR131     -0.0009
     53  CE1        2.2980   11.8840    5.6520 C.ar  131  TYR131      0.0417
     54  CE2        3.9500   10.6970    4.4030 C.ar  131  TYR131      0.0417
     55  CZ         3.2420   11.8470    4.6460 C.ar  131  TYR131      0.1957
     56  OH         3.5010   12.9610    3.8690 O.3   131  TYR131     -0.2866
     57  N         -1.7860    9.3850   10.4130 N.3   135  MET135     -0.1245
     58  CA        -2.1690   10.7830   10.6800 C.3   135  MET135      0.1570
     59  C         -3.6510   10.8750   11.0660 C.2   135  MET135      0.2261
     60  O         -4.0320   11.6080   11.9640 O.2   135  MET135     -0.2867
     61  CB        -1.8900   11.6540    9.4590 C.3   135  MET135      0.0387
     62  CG        -2.3080   13.0870    9.6350 C.3   135  MET135      0.0595
     63  SD        -1.6390   14.0600    8.2950 S.3   135  MET135     -0.1393
     64  CE        -2.5570   15.5990    8.5090 C.3   135  MET135      0.0692
     65  N         -3.9710    9.7430   14.5400 N.3   138  ASP138     -0.1225
     66  CA        -3.4240   10.7480   15.4420 C.3   138  ASP138      0.1805
     67  C         -4.4920   11.7920   15.7960 C.2   138  ASP138      0.2597
     68  O         -4.5690   12.2580   16.9430 O.2   138  ASP138     -0.2718
     69  CB        -2.2710   11.5230   14.7960 C.3   138  ASP138      0.1424
     70  CG        -1.0140   10.7030   14.5040 C.2   138  ASP138      0.3668
     71  OD1       -0.7460    9.6820   15.1700 O.co2 138  ASP138     -0.2456
     72  OD2       -0.2620   11.0900   13.5440 O.co2 138  ASP138     -0.2456
     73  N         -5.2620   12.2210   14.8010 N.am  139  ILE139     -0.1980
     74  CA        -6.3040   13.2310   14.9320 C.3   139  ILE139      0.1595
     75  C         -7.5360   12.6670   15.6540 C.2   139  ILE139      0.2287
     76  O         -8.0330   13.2350   16.6330 O.2   139  ILE139     -0.2864
     77  CB        -6.6800   13.7450   13.5310 C.3   139  ILE139      0.0276
     78  CG1       -5.4960   14.4930   12.9060 C.3   139  ILE139      0.0022
     79  CG2       -7.9260   14.6540   13.5940 C.3   139  ILE139      0.0022
     80  CD1       -5.6010   14.6670   11.4100 C.3   139  ILE139      0.0001
     81  N         -7.6310   21.0130   13.0220 N.3   147  VAL147     -0.1231
     82  CA        -6.2600   20.5790   12.8280 C.3   147  VAL147      0.1678
     83  C         -5.5510   21.5910   11.9300 C.2   147  VAL147      0.2434
     84  O         -5.9720   21.7960   10.7970 O.2   147  VAL147     -0.2733
     85  CB        -6.2180   19.2090   12.1240 C.3   147  VAL147      0.0265
     86  CG1       -4.7780   18.7510   11.9090 C.3   147  VAL147      0.0020
     87  CG2       -7.0260   18.1530   12.9210 C.3   147  VAL147      0.0020
     88  N         -4.4370   22.1960   12.3790 N.am  148  PRO148     -0.2718
     89  CA        -3.6840   23.0650   11.4740 C.3   148  PRO148      0.1535
     90  C         -2.9260   22.2270   10.4700 C.2   148  PRO148      0.2598
     91  O         -2.2270   21.2710   10.8680 O.2   148  PRO148     -0.2715
     92  CB        -2.7230   23.8200   12.4140 C.3   148  PRO148      0.0310
     93  CG        -3.1970   23.5450   13.7800 C.3   148  PRO148      0.0237
     94  CD        -3.8660   22.2210   13.7390 C.3   148  PRO148      0.0939
     95  N         -3.1000   22.5420    9.1810 N.am  149  VAL149     -0.1978
     96  CA        -2.4420   21.7880    8.1170 C.3   149  VAL149      0.1596
     97  C         -1.8370   22.7400    7.1030 C.2   149  VAL149      0.2287
     98  O         -2.4550   23.7340    6.7600 O.2   149  VAL149     -0.2864
     99  CB        -3.4030   20.8020    7.4060 C.3   149  VAL149      0.0276
    100  CG1       -3.6530   19.5760    8.2900 C.3   149  VAL149      0.0022
    101  CG2       -4.7020   21.4790    6.9960 C.3   149  VAL149      0.0022
    102  N         -0.4110   19.0860    3.4420 N.3   153  GLN153     -0.1245
    103  CA        -1.0870   18.1430    4.3610 C.3   153  GLN153      0.1566
    104  C         -2.6140   18.2000    4.2030 C.2   153  GLN153      0.2260
    105  O         -3.3270   17.4740    4.8850 O.2   153  GLN153     -0.2867
    106  CB        -0.7200   18.4110    5.8460 C.3   153  GLN153      0.0367
    107  CG         0.7990   18.4650    6.1890 C.3   153  GLN153      0.0905
    108  CD         1.1180   18.9750    7.6270 C.2   153  GLN153      0.2608
    109  OE1        0.6900   20.0570    8.0360 O.2   153  GLN153     -0.2717
    110  NE2        1.9140   18.2040    8.3670 N.am  153  GLN153     -0.0878
@<TRIPOS>BOND
     1   102   103    1
     2    56    55    1
     3   104   103    1
     4   104   105    2
     5   103   106    1
     6    54    55   ar
     7    54    52   ar
     8    55    53   ar
     9    52    50   ar
    10    53    51   ar
    11    45    46    1
    12   106   107    1
    13    50    51   ar
    14    50    49    1
    15   107   108    1
    16    98    97    2
    17    46    47    1
    18    46    49    1
    19    47    48    2
    20   101    99    1
    21    97    96    1
    22    99    96    1
    23    99   100    1
    24   108   109    2
    25   108   110   am
    26    96    95    1
    27    63    64    1
    28    63    62    1
    29    95    90   am
    30    38    37    2
    31    61    62    1
    32    61    58    1
    33    42    44   ar
    34    42    40   ar
    35    44    43   ar
    36    57    58    1
    37    37    36    1
    38    90    91    2
    39    90    89    1
    40    20    19    2
    41    21    19   am
    42    58    59    1
    43    19    18    1
    44    40    39    1
    45    40    41   ar
    46    39    36    1
    47    84    83    2
    48    18    17    1
    49    36    35    1
    50    59    60    2
    51    80    78    1
    52    43    41   ar
    53    89    88    1
    54    89    92    1
    55    17    14    1
    56    86    85    1
    57    83    88   am
    58    83    82    1
    59    85    82    1
    60    85    87    1
    61    88    94    1
    62    92    93    1
    63    82    81    1
    64    78    77    1
    65    14    13    1
    66    14    15    1
    67    34    32    1
    68    77    79    1
    69    77    74    1
    70    72    70   ar
    71    12    11    2
    72    94    93    1
    73    31    30    2
    74    15    16    2
    75    32    33    1
    76    32    29    1
    77    70    69    1
    78    70    71   ar
    79    11    10    1
    80    65    66    1
    81    10     9    1
    82    69    66    1
    83    73    74    1
    84    73    67   am
    85    74    75    1
    86    30    29    1
    87     4     3    2
    88    29    28    1
    89    66    67    1
    90    75    76    2
    91    67    68    2
    92     8     6    1
    93     3     2    1
    94    25    24    2
    95     5     6    1
    96     5     2    1
    97     6     7    1
    98     1     2    1
    99    27    26    1
   100    24    23    1
   101    26    23    1
   102    23    22    1
