@<TRIPOS>MOLECULE
tmp/3sz4A00.pdb
 127 118 0 0 0
SMALL
GASTEIGER

@<TRIPOS>ATOM
      1  N         29.5150  -20.1540   18.9310 N.3     4  TRP4       -0.1227
      2  CA        29.6900  -19.8090   17.5380 C.3     4  TRP4        0.1737
      3  C         30.2330  -20.9970   16.7430 C.2     4  TRP4        0.2595
      4  O         29.9140  -21.1470   15.5600 O.2     4  TRP4       -0.2718
      5  CB        30.6010  -18.5730   17.4740 C.3     4  TRP4        0.0564
      6  CG        31.4580  -18.3650   16.2390 C.ar    4  TRP4        0.0003
      7  CD1       31.1880  -17.5280   15.1850 C.ar    4  TRP4        0.0946
      8  CD2       32.7580  -18.9370   15.9720 C.ar    4  TRP4        0.0152
      9  NE1       32.2210  -17.5620   14.2730 N.ar    4  TRP4       -0.2442
     10  CE2       33.1970  -18.4170   14.7270 C.ar    4  TRP4        0.0810
     11  CE3       33.5870  -19.8430   16.6540 C.ar    4  TRP4        0.0012
     12  CZ2       34.4310  -18.7850   14.1460 C.ar    4  TRP4        0.0191
     13  CZ3       34.8060  -20.2010   16.0730 C.ar    4  TRP4        0.0001
     14  CH2       35.2110  -19.6750   14.8340 C.ar    4  TRP4        0.0015
     15  N         31.0370  -21.8430   17.3910 N.am    5  PHE5       -0.1976
     16  CA        31.4710  -23.0870   16.7760 C.3     5  PHE5        0.1639
     17  C         30.2620  -23.9050   16.3550 C.2     5  PHE5        0.2290
     18  O         30.2720  -24.5650   15.3120 O.2     5  PHE5       -0.2864
     19  CB        32.3220  -23.8980   17.7430 C.3     5  PHE5        0.0560
     20  CG        33.7940  -23.6170   17.6380 C.ar    5  PHE5       -0.0200
     21  CD1       34.6120  -24.3940   16.8060 C.ar    5  PHE5       -0.0042
     22  CD2       34.3800  -22.5880   18.3880 C.ar    5  PHE5       -0.0042
     23  CE1       36.0030  -24.1470   16.7100 C.ar    5  PHE5       -0.0003
     24  CE2       35.7770  -22.3230   18.3110 C.ar    5  PHE5       -0.0003
     25  CZ        36.5860  -23.1030   17.4630 C.ar    5  PHE5       -0.0000
     26  N         28.4810  -22.4060   13.4080 N.3     8  ARG8       -0.1245
     27  CA        29.2820  -22.7210   12.2230 C.3     8  ARG8        0.1563
     28  C         29.2350  -24.1410   11.7240 C.2     8  ARG8        0.2260
     29  O         29.5770  -24.4120   10.5690 O.2     8  ARG8       -0.2867
     30  CB        30.7230  -22.4420   12.5170 C.3     8  ARG8        0.0307
     31  CG        31.0480  -21.0840   12.1270 C.3     8  ARG8        0.0489
     32  CD        32.3290  -20.7220   12.7250 C.3     8  ARG8        0.2205
     33  NE        33.4670  -21.2230   11.9580 N.pl3   8  ARG8       -0.0865
     34  CZ        33.9970  -20.5950   10.9090 C.cat   8  ARG8        0.5346
     35  NH1       33.4660  -19.4530   10.4660 N.pl3   8  ARG8        0.1354
     36  NH2       35.0500  -21.1170   10.2960 N.pl3   8  ARG8        0.1354
     37  N         31.2680  -20.7960    4.9430 N.3    13  THR13      -0.1203
     38  CA        31.4490  -19.5130    5.5920 C.3    13  THR13       0.1994
     39  C         32.4280  -18.6530    4.8010 C.2    13  THR13       0.2618
     40  O         33.2920  -19.1680    4.0810 O.2    13  THR13      -0.2717
     41  CB        31.8980  -19.6710    7.0540 C.3    13  THR13       0.1784
     42  OG1       33.2250  -20.2000    7.0700 O.3    13  THR13      -0.2211
     43  CG2       30.9630  -20.6190    7.8520 C.3    13  THR13       0.0376
     44  N         32.2770  -17.3360    4.9590 N.am   14  ALA14      -0.1965
     45  CA        33.0160  -16.3170    4.2090 C.3    14  ALA14       0.1728
     46  C         34.4670  -16.6610    3.9240 C.2    14  ALA14       0.2616
     47  O         34.9400  -16.4530    2.8070 O.2    14  ALA14      -0.2715
     48  CB        32.9250  -14.9430    4.9120 C.3    14  ALA14       0.0334
     49  N         35.1840  -17.1620    4.9230 N.am   15  SER15      -0.1950
     50  CA        36.6300  -17.3630    4.7520 C.3    15  SER15       0.1924
     51  C         36.9900  -18.6290    3.9660 C.2    15  SER15       0.2314
     52  O         38.1450  -18.8450    3.6510 O.2    15  SER15      -0.2863
     53  CB        37.3330  -17.3880    6.0950 C.3    15  SER15       0.2116
     54  OG        36.7860  -18.4210    6.8820 O.3    15  SER15      -0.2180
     55  N         39.9060  -30.4850   14.9710 N.3    45  ILE45      -0.1245
     56  CA        40.6540  -29.4240   15.6450 C.3    45  ILE45       0.1561
     57  C         42.1060  -29.4540   15.2230 C.2    45  ILE45       0.2260
     58  O         42.4370  -28.9660   14.1490 O.2    45  ILE45      -0.2867
     59  CB        40.5460  -29.5370   17.1820 C.3    45  ILE45       0.0252
     60  CG1       39.8060  -30.8380   17.6060 C.3    45  ILE45       0.0019
     61  CG2       39.9360  -28.2290   17.7590 C.3    45  ILE45       0.0019
     62  CD1       40.4740  -32.2010   17.1700 C.3    45  ILE45       0.0001
     63  N         46.1670  -14.4150   16.5470 N.3    54  THR54      -0.1218
     64  CA        44.9340  -14.2690   17.3310 C.3    54  THR54       0.1862
     65  C         45.1060  -13.3040   18.5030 C.2    54  THR54       0.2287
     66  O         44.2490  -12.4540   18.7060 O.2    54  THR54      -0.2866
     67  CB        44.4200  -15.6320   17.8430 C.3    54  THR54       0.1770
     68  OG1       44.2500  -16.5130   16.7340 O.3    54  THR54      -0.2211
     69  CG2       43.0860  -15.4860   18.5300 C.3    54  THR54       0.0375
     70  N         28.4180  -15.0520   14.1800 N.3    77  LEU77      -0.1245
     71  CA        28.2170  -15.5490   12.8170 C.3    77  LEU77       0.1561
     72  C         26.9240  -14.9810   12.2800 C.2    77  LEU77       0.2260
     73  O         25.8760  -15.1120   12.9000 O.2    77  LEU77      -0.2867
     74  CB        28.1240  -17.0770   12.8010 C.3    77  LEU77       0.0270
     75  CG        27.8340  -17.7120   11.4360 C.3    77  LEU77       0.0019
     76  CD1       29.1210  -17.9490   10.5910 C.3    77  LEU77       0.0001
     77  CD2       27.0750  -18.9910   11.6570 C.3    77  LEU77       0.0001
     78  N         31.6310  -14.4260    9.5310 N.3    89  SER89      -0.1217
     79  CA        32.0140  -13.8910   10.8440 C.3    89  SER89       0.1889
     80  C         32.9520  -12.7140   10.6370 C.2    89  SER89       0.2288
     81  O         34.1750  -12.8890   10.6960 O.2    89  SER89      -0.2866
     82  CB        32.6670  -14.9620   11.7240 C.3    89  SER89       0.2089
     83  OG        31.8130  -16.0830   11.8800 O.3    89  SER89      -0.2183
     84  N         35.0850   -9.3200   11.5110 N.3    91  ASP91      -0.1239
     85  CA        35.8050   -8.9460   12.7170 C.3    91  ASP91       0.1674
     86  C         35.1230   -7.8170   13.4590 C.2    91  ASP91       0.2266
     87  O         35.4240   -7.5840   14.6220 O.2    91  ASP91      -0.2867
     88  CB        37.2660   -8.6490   12.4070 C.3    91  ASP91       0.1410
     89  CG        38.0410   -9.9140   12.0820 C.2    91  ASP91       0.3668
     90  OD1       37.6580  -10.9880   12.5580 O.co2  91  ASP91      -0.2456
     91  OD2       39.0270   -9.8540   11.3330 O.co2  91  ASP91      -0.2456
     92  N         37.7830   -6.3260    8.6010 N.3   101  GLU101     -0.1245
     93  CA        38.4400   -7.6200    8.4730 C.3   101  GLU101      0.1567
     94  C         39.9300   -7.4210    8.7890 C.2   101  GLU101      0.2260
     95  O         40.6090   -6.6470    8.0980 O.2   101  GLU101     -0.2867
     96  CB        38.2860   -8.1490    7.0430 C.3   101  GLU101      0.0388
     97  CG        39.0160   -9.4230    6.8120 C.3   101  GLU101      0.1160
     98  CD        38.5720  -10.5100    7.7710 C.2   101  GLU101      0.3649
     99  OE1       37.3980  -10.5550    8.2100 O.co2 101  GLU101     -0.2457
    100  OE2       39.4040  -11.3510    8.0930 O.co2 101  GLU101     -0.2457
    101  N         43.8490   -8.8960    9.5680 N.3   103  LYS103     -0.1245
    102  CA        44.8810   -9.9230    9.4690 C.3   103  LYS103      0.1561
    103  C         46.0750   -9.5960   10.3520 C.2   103  LYS103      0.2260
    104  O         46.5390   -8.4500   10.4100 O.2   103  LYS103     -0.2867
    105  CB        45.3950  -10.0550    8.0330 C.3   103  LYS103      0.0271
    106  CG        44.3680  -10.4270    6.9730 C.3   103  LYS103      0.0035
    107  CD        43.4720  -11.5910    7.3680 C.3   103  LYS103      0.0206
    108  CE        42.4960  -11.8130    6.2320 C.3   103  LYS103      0.1093
    109  NZ        41.2830  -12.6150    6.5610 N.3   103  LYS103     -0.1314
    110  N         36.2290  -13.1980    0.6310 N.3   126  GLN126     -0.1245
    111  CA        35.8090  -13.3610    2.0160 C.3   126  GLN126      0.1566
    112  C         35.0220  -12.1540    2.4900 C.2   126  GLN126      0.2260
    113  O         33.9770  -12.2770    3.1560 O.2   126  GLN126     -0.2867
    114  CB        37.0070  -13.5330    2.9110 C.3   126  GLN126      0.0367
    115  CG        36.6010  -13.4860    4.3450 C.3   126  GLN126      0.0905
    116  CD        37.7700  -13.5330    5.2780 C.2   126  GLN126      0.2608
    117  OE1       38.9080  -13.2300    4.9000 O.2   126  GLN126     -0.2717
    118  NE2       37.5070  -13.9300    6.5040 N.am  126  GLN126     -0.0878
    119  N         31.0700  -11.3880    3.3730 N.3   130  GLN130     -0.1245
    120  CA        30.6370  -10.6960    4.5840 C.3   130  GLN130      0.1566
    121  C         29.5670   -9.6380    4.2580 C.2   130  GLN130      0.2260
    122  O         28.5120   -9.5990    4.8940 O.2   130  GLN130     -0.2867
    123  CB        31.8250  -10.0610    5.2750 C.3   130  GLN130      0.0367
    124  CG        32.8190  -11.0700    5.8020 C.3   130  GLN130      0.0905
    125  CD        34.1550  -10.4300    6.1350 C.2   130  GLN130      0.2608
    126  OE1       34.9300  -10.9750    6.8970 O.2   130  GLN130     -0.2717
    127  NE2       34.4250   -9.2690    5.5640 N.am  130  GLN130     -0.0878
@<TRIPOS>BOND
     1   110   111    1
     2   111   112    1
     3   111   114    1
     4   112   113    2
     5    47    46    2
     6   114   115    1
     7   119   120    1
     8    52    51    2
     9    46    45    1
    10    46    49   am
    11    51    50    1
    12    40    39    2
    13    45    48    1
    14    45    44    1
    15   121   120    1
    16   121   122    2
    17   115   116    1
    18   120   123    1
    19    50    49    1
    20    50    53    1
    21    39    44   am
    22    39    38    1
    23   117   116    2
    24    37    38    1
    25   123   124    1
    26   116   118   am
    27   127   125   am
    28    38    41    1
    29   124   125    1
    30    53    54    1
    31   125   126    2
    32   108   109    1
    33   108   107    1
    34    97    96    1
    35    97    98    1
    36   106   107    1
    37   106   105    1
    38    96    93    1
    39    41    42    1
    40    41    43    1
    41    98   100   ar
    42    98    99   ar
    43   105   102    1
    44    95    94    2
    45    93    92    1
    46    93    94    1
    47   102   101    1
    48   102   103    1
    49    78    79    1
    50    36    34    1
    51   103   104    2
    52    35    34    1
    53    29    28    2
    54    76    75    1
    55    80    81    2
    56    80    79    1
    57    79    82    1
    58    34    33    2
    59    91    89   ar
    60    75    77    1
    61    75    74    1
    62    84    85    1
    63    28    27    1
    64    82    83    1
    65    33    32    1
    66    89    88    1
    67    89    90   ar
    68    31    30    1
    69    31    32    1
    70    27    30    1
    71    27    26    1
    72    72    71    1
    73    72    73    2
    74    88    85    1
    75    85    86    1
    76    74    71    1
    77    71    70    1
    78    86    87    2
    79    12    10   ar
    80    12    14   ar
    81    58    57    2
    82     9    10   ar
    83     9     7   ar
    84    10     8   ar
    85    14    13   ar
    86    55    56    1
    87     7     6   ar
    88    57    56    1
    89    18    17    2
    90     4     3    2
    91    56    59    1
    92     8     6   ar
    93     8    11   ar
    94    13    11   ar
    95     6     5    1
    96    17    16    1
    97    63    64    1
    98    23    21   ar
    99    23    25   ar
   100    68    67    1
   101     3    15   am
   102     3     2    1
   103    16    15    1
   104    16    19    1
   105    21    20   ar
   106    62    60    1
   107    59    60    1
   108    59    61    1
   109    64    67    1
   110    64    65    1
   111    25    24   ar
   112     5     2    1
   113     2     1    1
   114    20    19    1
   115    20    22   ar
   116    67    69    1
   117    24    22   ar
   118    65    66    2
