@<TRIPOS>MOLECULE
tmp/3sz5A00.pdb
 238 226 0 0 0
SMALL
GASTEIGER

@<TRIPOS>ATOM
      1  N        -33.1900   14.8390  -22.1900 N.3     4  TRP4       -0.1227
      2  CA       -32.8730   15.3340  -20.8450 C.3     4  TRP4        0.1737
      3  C        -33.9830   15.0600  -19.8030 C.2     4  TRP4        0.2595
      4  O        -33.6710   14.6420  -18.6850 O.2     4  TRP4       -0.2718
      5  CB       -32.4710   16.8280  -20.9160 C.3     4  TRP4        0.0564
      6  CG       -32.4290   17.5990  -19.5920 C.ar    4  TRP4        0.0003
      7  CD1      -31.4320   17.5690  -18.6300 C.ar    4  TRP4        0.0946
      8  CD2      -33.4150   18.5340  -19.1150 C.ar    4  TRP4        0.0152
      9  NE1      -31.7590   18.4150  -17.5840 N.ar    4  TRP4       -0.2442
     10  CE2      -32.9630   19.0190  -17.8580 C.ar    4  TRP4        0.0810
     11  CE3      -34.6430   18.9950  -19.6180 C.ar    4  TRP4        0.0012
     12  CZ2      -33.7020   19.9440  -17.1060 C.ar    4  TRP4        0.0191
     13  CZ3      -35.3720   19.9110  -18.8680 C.ar    4  TRP4        0.0001
     14  CH2      -34.9010   20.3730  -17.6270 C.ar    4  TRP4        0.0015
     15  N        -35.2510   15.2860  -20.1630 N.am    5  PHE5       -0.1976
     16  CA       -36.3840   14.8710  -19.3310 C.3     5  PHE5        0.1639
     17  C        -36.2680   13.4110  -18.9590 C.2     5  PHE5        0.2290
     18  O        -36.6650   12.9970  -17.8600 O.2     5  PHE5       -0.2864
     19  CB       -37.6990   15.0330  -20.0820 C.3     5  PHE5        0.0560
     20  CG       -38.1190   16.4460  -20.2660 C.ar    5  PHE5       -0.0200
     21  CD1      -38.3440   17.2680  -19.1640 C.ar    5  PHE5       -0.0042
     22  CD2      -38.3090   16.9580  -21.5430 C.ar    5  PHE5       -0.0042
     23  CE1      -38.7370   18.5910  -19.3260 C.ar    5  PHE5       -0.0003
     24  CE2      -38.7060   18.2840  -21.7290 C.ar    5  PHE5       -0.0003
     25  CZ       -38.9220   19.1030  -20.6150 C.ar    5  PHE5       -0.0000
     26  N        -34.1130   12.8300  -16.1490 N.3     8  ARG8       -0.1245
     27  CA       -34.7120   13.3490  -14.9190 C.3     8  ARG8        0.1563
     28  C        -35.9370   12.5970  -14.4010 C.2     8  ARG8        0.2260
     29  O        -36.4010   12.8690  -13.2810 O.2     8  ARG8       -0.2867
     30  CB       -35.1600   14.7700  -15.1290 C.3     8  ARG8        0.0307
     31  CG       -34.0950   15.6960  -15.4940 C.3     8  ARG8        0.0489
     32  CD       -34.7920   16.9050  -15.9710 C.3     8  ARG8        0.2205
     33  NE       -35.6690   17.4290  -14.9330 N.pl3   8  ARG8       -0.0865
     34  CZ       -35.2510   18.2110  -13.9390 C.cat   8  ARG8        0.5346
     35  NH1      -33.9650   18.5480  -13.8600 N.pl3   8  ARG8        0.1354
     36  NH2      -36.1100   18.6620  -13.0290 N.pl3   8  ARG8        0.1354
     37  N        -33.7990   16.1910   -7.7630 N.3    13  THR13      -0.1203
     38  CA       -32.8530   17.0510   -8.4420 C.3    13  THR13       0.1994
     39  C        -32.6300   18.3260   -7.6410 C.2    13  THR13       0.2618
     40  O        -33.4990   18.7380   -6.8730 O.2    13  THR13      -0.2717
     41  CB       -33.3380   17.4330   -9.8540 C.3    13  THR13       0.1784
     42  OG1      -34.5840   18.1440   -9.7560 O.3    13  THR13      -0.2211
     43  CG2      -33.4720   16.2240  -10.7840 C.3    13  THR13       0.0376
     44  N        -31.4810   18.9650   -7.8580 N.am   14  ALA14      -0.1965
     45  CA       -31.0130   20.0840   -7.0380 C.3    14  ALA14       0.1728
     46  C        -32.0380   21.1870   -6.8190 C.2    14  ALA14       0.2617
     47  O        -32.1390   21.7410   -5.7190 O.2    14  ALA14      -0.2715
     48  CB       -29.6880   20.6650   -7.5930 C.3    14  ALA14       0.0334
     49  N        -32.8090   21.5110   -7.8470 N.am   15  SER15      -0.1936
     50  CA       -33.7390   22.6400   -7.7310 C.3    15  SER15       0.2055
     51  C        -34.9900   22.3020   -6.9120 C.2    15  SER15       0.2642
     52  O        -35.8240   23.1640   -6.6630 O.2    15  SER15      -0.2714
     53  CB       -34.1170   23.2000   -9.1060 C.3    15  SER15       0.2130
     54  OG       -34.7980   22.2410   -9.8720 O.3    15  SER15      -0.2179
     55  N        -35.1070   21.0490   -6.4880 N.am   16  ARG16      -0.1977
     56  CA       -36.2900   20.6130   -5.7610 C.3    16  ARG16       0.1597
     57  C        -35.9230   20.2330   -4.3450 C.2    16  ARG16       0.2287
     58  O        -36.7710   19.7730   -3.5750 O.2    16  ARG16      -0.2864
     59  CB       -36.9840   19.4520   -6.4910 C.3    16  ARG16       0.0334
     60  CG       -37.5290   19.8040   -7.8830 C.3    16  ARG16       0.0492
     61  CD       -38.3800   21.0860   -7.8630 C.3    16  ARG16       0.2205
     62  NE       -39.5320   20.9650   -6.9720 N.pl3  16  ARG16      -0.0865
     63  CZ       -40.6860   20.3820   -7.3100 C.cat  16  ARG16       0.5346
     64  NH1      -40.8360   19.8680   -8.5250 N.pl3  16  ARG16       0.1354
     65  NH2      -41.6840   20.2800   -6.4290 N.pl3  16  ARG16       0.1354
     66  N        -46.6030   19.6100  -16.9290 N.3    45  ILE45      -0.1245
     67  CA       -46.0320   20.8000  -17.6100 C.3    45  ILE45       0.1561
     68  C        -46.7440   22.1280  -17.2860 C.2    45  ILE45       0.2260
     69  O        -46.1030   23.1260  -16.9190 O.2    45  ILE45      -0.2867
     70  CB       -45.9100   20.6020  -19.1810 C.3    45  ILE45       0.0252
     71  CG1      -46.6450   19.3350  -19.6760 C.3    45  ILE45       0.0019
     72  CG2      -44.4340   20.5290  -19.6040 C.3    45  ILE45       0.0019
     73  CD1      -48.1840   19.3100  -19.4880 C.3    45  ILE45       0.0001
     74  N        -45.2930   30.3140  -16.9280 N.3    46  ASN46      -0.1240
     75  CA       -45.7490   31.7040  -16.8450 C.3    46  ASN46       0.1653
     76  C        -44.7540   32.7190  -17.4440 C.2    46  ASN46       0.2266
     77  O        -43.6780   32.3260  -17.9020 O.2    46  ASN46      -0.2867
     78  CB       -46.1710   32.0730  -15.4080 C.3    46  ASN46       0.1155
     79  CG       -45.0190   32.5820  -14.5510 C.2    46  ASN46       0.2627
     80  OD1      -44.1890   31.8140  -14.0820 O.2    46  ASN46      -0.2716
     81  ND2      -44.9900   33.8830  -14.3180 N.am   46  ASN46      -0.0877
     82  N        -42.8690   35.3560  -16.2720 N.3    48  ALA48      -0.1231
     83  CA       -41.6170   35.5200  -15.5440 C.3    48  ALA48       0.1694
     84  C        -40.6860   34.2970  -15.7000 C.2    48  ALA48       0.2591
     85  O        -39.4550   34.4450  -15.7880 O.2    48  ALA48      -0.2718
     86  CB       -41.9150   35.7910  -14.0680 C.3    48  ALA48       0.0304
     87  N        -41.2880   33.1050  -15.7060 N.am   49  MET49      -0.1979
     88  CA       -40.6130   31.8510  -16.0000 C.3    49  MET49       0.1605
     89  C        -40.0970   31.8630  -17.4190 C.2    49  MET49       0.2287
     90  O        -39.0170   31.3600  -17.6860 O.2    49  MET49      -0.2864
     91  CB       -41.5940   30.6980  -15.8770 C.3    49  MET49       0.0413
     92  CG       -41.5190   29.8990  -14.6070 C.3    49  MET49       0.0598
     93  SD       -42.8580   28.6630  -14.4760 S.3    49  MET49      -0.1393
     94  CE       -43.0420   28.0050  -16.1490 C.3    49  MET49       0.0692
     95  N        -36.9030   34.2810  -17.4910 N.3    52  GLY52      -0.1210
     96  CA       -35.7720   33.5890  -16.8750 C.3    52  GLY52       0.1956
     97  C        -35.0920   32.6200  -17.8280 C.2    52  GLY52       0.2612
     98  O        -33.8740   32.3820  -17.7630 O.2    52  GLY52      -0.2717
     99  N        -35.8950   32.0820  -18.7310 N.am   53  THR53      -0.1952
    100  CA       -35.4520   31.1060  -19.7010 C.3    53  THR53       0.1897
    101  C        -34.7420   31.7310  -20.9140 C.2    53  THR53       0.2313
    102  O        -33.6230   31.3190  -21.2380 O.2    53  THR53      -0.2863
    103  CB       -36.6420   30.2080  -20.1110 C.3    53  THR53       0.1794
    104  OG1      -37.1330   29.5320  -18.9430 O.3    53  THR53      -0.2208
    105  CG2      -36.2370   29.1740  -21.1680 C.3    53  THR53       0.0378
    106  N        -31.4060   33.7030  -19.8950 N.3    56  GLU56      -0.1245
    107  CA       -30.3480   32.9150  -19.2800 C.3    56  GLU56       0.1567
    108  C        -29.0030   33.0230  -20.0480 C.2    56  GLU56       0.2260
    109  O        -27.9740   33.3830  -19.4650 O.2    56  GLU56      -0.2867
    110  CB       -30.8080   31.4720  -19.1470 C.3    56  GLU56       0.0388
    111  CG       -30.3010   30.7840  -17.9230 C.3    56  GLU56       0.1160
    112  CD       -30.3420   29.2740  -18.0610 C.2    56  GLU56       0.3649
    113  OE1      -31.1980   28.6270  -17.3900 O.co2  56  GLU56      -0.2457
    114  OE2      -29.5190   28.7550  -18.8490 O.co2  56  GLU56      -0.2457
    115  N        -27.5330   16.7510  -17.0760 N.3    76  LEU76      -0.1245
    116  CA       -27.7730   16.3040  -15.7260 C.3    76  LEU76       0.1561
    117  C        -26.5850   15.5160  -15.2660 C.2    76  LEU76       0.2260
    118  O        -26.1330   14.5980  -15.9350 O.2    76  LEU76      -0.2867
    119  CB       -29.0140   15.4360  -15.6610 C.3    76  LEU76       0.0270
    120  CG       -29.2920   14.9800  -14.2510 C.3    76  LEU76       0.0019
    121  CD1      -30.1440   16.0050  -13.5450 C.3    76  LEU76       0.0001
    122  CD2      -29.9730   13.6800  -14.3610 C.3    76  LEU76       0.0001
    123  N        -28.5240   19.8210  -12.4010 N.3    88  SER88      -0.1217
    124  CA       -28.3500   20.4600  -13.6860 C.3    88  SER88       0.1889
    125  C        -27.8240   21.8610  -13.4480 C.2    88  SER88       0.2288
    126  O        -28.6200   22.8130  -13.4710 O.2    88  SER88      -0.2866
    127  CB       -29.6840   20.5640  -14.4210 C.3    88  SER88       0.2089
    128  OG       -29.9090   19.4260  -15.2390 O.3    88  SER88      -0.2183
    129  N        -26.0940   25.4700  -14.2130 N.3    90  ASP90      -0.1239
    130  CA       -26.1770   26.3330  -15.3940 C.3    90  ASP90       0.1674
    131  C        -24.8050   26.4420  -16.0380 C.2    90  ASP90       0.2266
    132  O        -24.6780   26.9890  -17.1300 O.2    90  ASP90      -0.2867
    133  CB       -26.7200   27.7200  -15.0410 C.3    90  ASP90       0.1410
    134  CG       -28.1690   27.6900  -14.6240 C.2    90  ASP90       0.3668
    135  OD1      -28.9250   26.8750  -15.1730 O.co2  90  ASP90      -0.2456
    136  OD2      -28.5630   28.4840  -13.7510 O.co2  90  ASP90      -0.2456
    137  N        -24.7760   29.1400  -11.1500 N.3   100  GLU100     -0.1231
    138  CA       -26.2300   29.0410  -11.1020 C.3   100  GLU100      0.1699
    139  C        -26.7520   30.4400  -11.3440 C.2   100  GLU100      0.2592
    140  O        -26.3330   31.3690  -10.6560 O.2   100  GLU100     -0.2718
    141  CB       -26.7160   28.5230   -9.7510 C.3   100  GLU100      0.0402
    142  CG       -28.2360   28.4820   -9.5810 C.3   100  GLU100      0.1161
    143  CD       -28.9670   27.7130  -10.7090 C.2   100  GLU100      0.3649
    144  OE1      -28.4300   26.7030  -11.2350 O.co2 100  GLU100     -0.2457
    145  OE2      -30.0910   28.1320  -11.0820 O.co2 100  GLU100     -0.2457
    146  N        -27.6490   30.5590  -12.3310 N.am  101  ILE101     -0.1966
    147  CA       -28.1720   31.8180  -12.8800 C.3   101  ILE101      0.1727
    148  C        -29.6550   32.0080  -12.5560 C.2   101  ILE101      0.2616
    149  O        -30.4710   31.0990  -12.7450 O.2   101  ILE101     -0.2715
    150  CB       -28.0840   31.8150  -14.4400 C.3   101  ILE101      0.0290
    151  CG1      -26.6820   32.1580  -14.9280 C.3   101  ILE101      0.0022
    152  CG2      -29.0410   32.8390  -15.0580 C.3   101  ILE101      0.0023
    153  CD1      -26.3520   31.6340  -16.3520 C.3   101  ILE101      0.0001
    154  N        -30.0170   33.1990  -12.1020 N.am  102  LYS102     -0.1963
    155  CA       -31.4350   33.5610  -11.9890 C.3   102  LYS102      0.1728
    156  C        -31.6310   34.8120  -12.8090 C.2   102  LYS102      0.2616
    157  O        -30.7560   35.6650  -12.8690 O.2   102  LYS102     -0.2715
    158  CB       -31.8800   33.8380  -10.5330 C.3   102  LYS102      0.0311
    159  CG       -31.5760   32.7550   -9.4860 C.3   102  LYS102      0.0038
    160  CD       -31.8850   31.3700   -9.9990 C.3   102  LYS102      0.0206
    161  CE       -31.5500   30.3530   -8.9500 C.3   102  LYS102      0.1093
    162  NZ       -31.9900   28.9900   -9.3250 N.3   102  LYS102     -0.1314
    163  N        -32.7760   34.8920  -13.4610 N.am  103  CYS103     -0.1954
    164  CA       -33.1900   36.0790  -14.1800 C.3   103  CYS103      0.1828
    165  C        -34.6260   36.3330  -13.7910 C.2   103  CYS103      0.2467
    166  O        -35.5230   36.0820  -14.5850 O.2   103  CYS103     -0.2730
    167  CB       -33.1040   35.8380  -15.6790 C.3   103  CYS103      0.0996
    168  SG       -31.4450   35.5950  -16.2720 S.3   103  CYS103     -0.0797
    169  N        -34.8470   36.8070  -12.5550 N.am  104  PRO104     -0.2715
    170  CA       -36.1520   36.8390  -11.9420 C.3   104  PRO104      0.1536
    171  C        -36.8690   38.1560  -12.2470 C.2   104  PRO104      0.2598
    172  O        -36.3950   38.9490  -13.0920 O.2   104  PRO104     -0.2715
    173  CB       -35.7880   36.8130  -10.4620 C.3   104  PRO104      0.0310
    174  CG       -34.6320   37.7290  -10.3890 C.3   104  PRO104      0.0237
    175  CD       -33.8600   37.4950  -11.7030 C.3   104  PRO104      0.0939
    176  N        -37.9850   38.3820  -11.5470 N.am  105  ASN105     -0.1973
    177  CA       -38.6250   39.6900  -11.4560 C.3   105  ASN105      0.1688
    178  C        -37.6750   40.7270  -10.9320 C.2   105  ASN105      0.2292
    179  O        -36.9960   40.4970   -9.9240 O.2   105  ASN105     -0.2864
    180  CB       -39.7390   39.6600  -10.4240 C.3   105  ASN105      0.1181
    181  CG       -40.9820   38.9940  -10.9200 C.2   105  ASN105      0.2629
    182  OD1      -41.1650   38.7690  -12.1300 O.2   105  ASN105     -0.2716
    183  ND2      -41.8700   38.6690   -9.9780 N.am  105  ASN105     -0.0877
    184  N        -37.3710   41.1880   -7.1870 N.3   108  THR108     -0.1218
    185  CA       -36.6310   40.0840   -6.6070 C.3   108  THR108      0.1862
    186  C        -35.1410   40.3090   -6.7710 C.2   108  THR108      0.2287
    187  O        -34.3920   40.2760   -5.8000 O.2   108  THR108     -0.2866
    188  CB       -37.0090   38.7860   -7.2700 C.3   108  THR108      0.1770
    189  OG1      -38.4250   38.5930   -7.1170 O.3   108  THR108     -0.2211
    190  CG2      -36.2480   37.6360   -6.6370 C.3   108  THR108      0.0375
    191  N        -31.5120   33.4910   -1.6670 N.3   119  LYS119     -0.1245
    192  CA       -32.5080   32.8400   -0.8240 C.3   119  LYS119      0.1561
    193  C        -32.0730   31.4310   -0.3610 C.2   119  LYS119      0.2260
    194  O        -31.3610   30.7350   -1.0930 O.2   119  LYS119     -0.2867
    195  CB       -33.8830   32.8530   -1.5040 C.3   119  LYS119      0.0271
    196  CG       -34.8400   33.8170   -0.8060 C.3   119  LYS119      0.0035
    197  CD       -35.6470   34.7020   -1.7650 C.3   119  LYS119      0.0206
    198  CE       -36.2520   35.8890   -0.9710 C.3   119  LYS119      0.1093
    199  NZ       -37.2730   36.6660   -1.7400 N.3   119  LYS119     -0.1314
    200  N        -33.3340   28.5740   -0.2500 N.3   121  GLU121     -0.1231
    201  CA       -33.6090   27.4430   -1.1480 C.3   121  GLU121      0.1699
    202  C        -32.6080   27.3070   -2.3140 C.2   121  GLU121      0.2592
    203  O        -32.4090   26.2230   -2.8520 O.2   121  GLU121     -0.2718
    204  CB       -35.0620   27.4260   -1.6430 C.3   121  GLU121      0.0402
    205  CG       -35.4580   28.5370   -2.6090 C.3   121  GLU121      0.1161
    206  CD       -36.4380   29.5630   -2.0080 C.2   121  GLU121      0.3649
    207  OE1      -36.3000   29.9340   -0.8020 O.co2 121  GLU121     -0.2457
    208  OE2      -37.3390   30.0010   -2.7760 O.co2 121  GLU121     -0.2457
    209  N        -31.9740   28.4120   -2.6920 N.am  122  TYR122     -0.1976
    210  CA       -30.9460   28.3850   -3.7140 C.3   122  TYR122      0.1639
    211  C        -29.6040   27.9520   -3.1360 C.2   122  TYR122      0.2290
    212  O        -28.7900   27.3090   -3.8230 O.2   122  TYR122     -0.2864
    213  CB       -30.8520   29.7300   -4.3970 C.3   122  TYR122      0.0560
    214  CG       -32.1240   30.1050   -5.1080 C.ar  122  TYR122     -0.0198
    215  CD1      -32.8830   29.1460   -5.7840 C.ar  122  TYR122     -0.0009
    216  CD2      -32.5700   31.4200   -5.1140 C.ar  122  TYR122     -0.0009
    217  CE1      -34.0540   29.5000   -6.4340 C.ar  122  TYR122      0.0417
    218  CE2      -33.7400   31.7880   -5.7740 C.ar  122  TYR122      0.0417
    219  CZ       -34.4760   30.8300   -6.4310 C.ar  122  TYR122      0.1957
    220  OH       -35.6380   31.2050   -7.0750 O.3   122  TYR122     -0.2866
    221  N        -30.0380   24.4750   -3.4290 N.3   125  GLN125     -0.1245
    222  CA       -29.8460   24.0990   -4.8120 C.3   125  GLN125      0.1566
    223  C        -28.3660   23.9780   -5.1340 C.2   125  GLN125      0.2260
    224  O        -27.9280   22.9720   -5.7090 O.2   125  GLN125     -0.2867
    225  CB       -30.4630   25.1150   -5.7450 C.3   125  GLN125      0.0367
    226  CG       -30.5390   24.5890   -7.1440 C.3   125  GLN125      0.0905
    227  CD       -31.0010   25.6170   -8.1370 C.2   125  GLN125      0.2608
    228  OE1      -31.3000   26.7710   -7.7870 O.2   125  GLN125     -0.2717
    229  NE2      -31.0870   25.2040   -9.3940 N.am  125  GLN125     -0.0878
    230  N        -25.7110   20.8750   -6.1760 N.3   129  GLN129     -0.1245
    231  CA       -24.9650   20.8300   -7.4220 C.3   129  GLN129      0.1566
    232  C        -23.5180   20.4660   -7.1120 C.2   129  GLN129      0.2260
    233  O        -22.8970   19.6630   -7.8030 O.2   129  GLN129     -0.2867
    234  CB       -25.0330   22.1770   -8.1180 C.3   129  GLN129      0.0367
    235  CG       -26.3870   22.4990   -8.7130 C.3   129  GLN129      0.0905
    236  CD       -26.5270   23.9700   -9.0490 C.2   129  GLN129      0.2608
    237  OE1      -27.1850   24.3420  -10.0160 O.2   129  GLN129     -0.2717
    238  NE2      -25.9040   24.8170   -8.2480 N.am  129  GLN129     -0.0878
@<TRIPOS>BOND
     1     1     2    1
     2    24    22   ar
     3    24    25   ar
     4    22    20   ar
     5   102   101    2
     6   105   103    1
     7     5     2    1
     8     5     6    1
     9   101   100    1
    10     2     3    1
    11    25    23   ar
    12    20    19    1
    13    20    21   ar
    14    15     3   am
    15    15    16    1
    16   103   100    1
    17   103   104    1
    18    19    16    1
    19   108   109    2
    20   108   107    1
    21   106   107    1
    22     3     4    2
    23   100    99    1
    24    71    73    1
    25    71    70    1
    26    11     8   ar
    27    11    13   ar
    28    72    70    1
    29     6     8   ar
    30     6     7   ar
    31    16    17    1
    32    23    21   ar
    33   107   110    1
    34    70    67    1
    35   110   111    1
    36     8    10   ar
    37    17    18    2
    38    13    14   ar
    39   114   112   ar
    40    99    97   am
    41     7     9   ar
    42   112   111    1
    43   112   113   ar
    44    77    76    2
    45    10     9   ar
    46    10    12   ar
    47    97    98    2
    48    97    96    1
    49    90    89    2
    50    14    12   ar
    51    67    68    1
    52    67    66    1
    53    95    96    1
    54    76    75    1
    55    89    88    1
    56    68    69    2
    57   132   131    2
    58   115   116    1
    59    74    75    1
    60    75    78    1
    61   153   151    1
    62   168   167    1
    63    82    83    1
    64    26    27    1
    65    94    93    1
    66   131   130    1
    67    88    91    1
    68    88    87    1
    69    32    31    1
    70    32    33    1
    71   118   117    2
    72    91    92    1
    73    85    84    2
    74   116   119    1
    75   116   117    1
    76    87    84   am
    77    84    83    1
    78   167   164    1
    79   119   120    1
    80    83    86    1
    81    31    30    1
    82    78    79    1
    83   130   133    1
    84   130   129    1
    85   128   127    1
    86   135   134   ar
    87    30    27    1
    88   152   150    1
    89   133   134    1
    90    33    34    2
    91   151   150    1
    92    27    28    1
    93   134   136   ar
    94    92    93    1
    95   166   165    2
    96    79    81   am
    97    79    80    2
    98   150   147    1
    99   127   124    1
   100    28    29    2
   101   122   120    1
   102   120   121    1
   103   164   165    1
   104   164   163    1
   105    34    35    1
   106    34    36    1
   107   165   169   am
   108   124   125    1
   109   124   123    1
   110   126   125    2
   111   163   156   am
   112   172   171    2
   113   147   148    1
   114   147   146    1
   115   157   156    2
   116   156   155    1
   117   149   148    2
   118   148   154   am
   119   169   170    1
   120   169   175    1
   121   146   139   am
   122   171   170    1
   123   171   176   am
   124   182   181    2
   125   154   155    1
   126   155   158    1
   127   170   173    1
   128   175   174    1
   129   176   177    1
   130   177   178    1
   131   177   180    1
   132   139   138    1
   133   139   140    2
   134   144   143   ar
   135   137   138    1
   136   138   141    1
   137   145   143   ar
   138   178   179    2
   139   181   180    1
   140   181   183   am
   141    43    41    1
   142   143   142    1
   143   158   159    1
   144   173   174    1
   145   237   236    2
   146   160   159    1
   147   160   161    1
   148    54    53    1
   149    41    42    1
   150    41    38    1
   151   141   142    1
   152   229   227   am
   153   162   161    1
   154    53    50    1
   155   236   235    1
   156   236   238   am
   157   235   234    1
   158    64    63    1
   159    38    37    1
   160    38    39    1
   161   227   228    2
   162   227   226    1
   163   234   231    1
   164    60    61    1
   165    60    59    1
   166    61    62    1
   167    44    39   am
   168    44    45    1
   169    49    50    1
   170    49    46   am
   171   233   232    2
   172    50    51    1
   173    39    40    2
   174    48    45    1
   175   231   232    1
   176   231   230    1
   177    63    62    2
   178    63    65    1
   179   188   189    1
   180   188   190    1
   181   188   185    1
   182   184   185    1
   183   226   225    1
   184   220   219    1
   185    45    46    1
   186    51    52    2
   187    51    55   am
   188    46    47    2
   189   186   185    1
   190   186   187    2
   191    59    56    1
   192    55    56    1
   193   217   219   ar
   194   217   215   ar
   195   219   218   ar
   196   215   214   ar
   197   218   216   ar
   198    56    57    1
   199   225   222    1
   200   224   223    2
   201   223   222    1
   202   216   214   ar
   203   214   213    1
   204   222   221    1
   205   213   210    1
   206    57    58    2
   207   212   211    2
   208   210   211    1
   209   210   209    1
   210   203   202    2
   211   208   206   ar
   212   209   202   am
   213   205   206    1
   214   205   204    1
   215   202   201    1
   216   206   207   ar
   217   197   198    1
   218   197   196    1
   219   199   198    1
   220   191   192    1
   221   204   201    1
   222   195   192    1
   223   195   196    1
   224   201   200    1
   225   194   193    2
   226   192   193    1
