@<TRIPOS>MOLECULE
tmp/3sz9G00.pdb
 165 159 0 0 0
SMALL
GASTEIGER

@<TRIPOS>ATOM
      1  N         60.1670  126.8610  144.6300 N.3   114  VAL114     -0.1245
      2  CA        61.1830  126.1230  143.8890 C.3   114  VAL114      0.1561
      3  C         60.5090  124.9360  143.2360 C.2   114  VAL114      0.2260
      4  O         60.4350  124.8670  142.0170 O.2   114  VAL114     -0.2867
      5  CB        62.3940  125.6720  144.7780 C.3   114  VAL114      0.0252
      6  CG1       63.4060  124.8490  143.9600 C.3   114  VAL114      0.0019
      7  CG2       63.0720  126.8920  145.4410 C.3   114  VAL114      0.0019
      8  N         59.3730  124.6320  139.2700 N.3   118  MET118     -0.1245
      9  CA        60.1760  123.8190  138.3600 C.3   118  MET118      0.1570
     10  C         59.3290  122.7350  137.7100 C.2   118  MET118      0.2261
     11  O         59.5550  122.3570  136.5500 O.2   118  MET118     -0.2867
     12  CB        61.3820  123.2140  139.0880 C.3   118  MET118      0.0387
     13  CG        62.4280  124.2520  139.4850 C.3   118  MET118      0.0595
     14  SD        63.8380  123.5470  140.3750 S.3   118  MET118     -0.1393
     15  CE        64.6400  122.6490  139.0450 C.3   118  MET118      0.0692
     16  N         62.2560  108.6380  143.1510 N.3   161  PRO161     -0.2116
     17  CA        62.5830  108.6310  144.5580 C.3   161  PRO161      0.1372
     18  C         61.7930  109.7020  145.2990 C.2   161  PRO161      0.2244
     19  O         60.8740  110.3030  144.7250 O.2   161  PRO161     -0.2868
     20  CB        64.0750  108.9510  144.5400 C.3   161  PRO161      0.0268
     21  CG        64.1880  109.9560  143.4640 C.3   161  PRO161      0.0207
     22  CD        63.1530  109.5340  142.4010 C.3   161  PRO161      0.0892
     23  N         63.0540  112.4490  147.2330 N.3   163  ASN163     -0.1225
     24  CA        63.6590  113.7260  147.5930 C.3   163  ASN163      0.1785
     25  C         63.0170  114.9280  146.8910 C.2   163  ASN163      0.2597
     26  O         62.9270  116.0090  147.4850 O.2   163  ASN163     -0.2718
     27  CB        65.1790  113.7050  147.3960 C.3   163  ASN163      0.1169
     28  CG        65.5820  113.4290  145.9550 C.2   163  ASN163      0.2627
     29  OD1       64.7510  113.0110  145.1440 O.2   163  ASN163     -0.2716
     30  ND2       66.8610  113.6650  145.6230 N.am  163  ASN163     -0.0877
     31  N         62.6000  114.7580  145.6340 N.am  164  PHE164     -0.1976
     32  CA        61.7970  115.7830  144.9480 C.3   164  PHE164      0.1639
     33  C         60.6010  115.1000  144.3000 C.2   164  PHE164      0.2290
     34  O         60.6090  114.8250  143.1110 O.2   164  PHE164     -0.2864
     35  CB        62.6010  116.5140  143.8700 C.3   164  PHE164      0.0560
     36  CG        63.7860  117.2570  144.3980 C.ar  164  PHE164     -0.0200
     37  CD1       65.0020  116.6120  144.5810 C.ar  164  PHE164     -0.0042
     38  CD2       63.6820  118.5900  144.7100 C.ar  164  PHE164     -0.0042
     39  CE1       66.1000  117.2970  145.0670 C.ar  164  PHE164     -0.0003
     40  CE2       64.7800  119.2950  145.2130 C.ar  164  PHE164     -0.0003
     41  CZ        65.9850  118.6460  145.3910 C.ar  164  PHE164     -0.0000
     42  N         58.7390  117.0300  141.3500 N.3   167  LEU167     -0.1231
     43  CA        59.6350  117.4380  140.2870 C.3   167  LEU167      0.1693
     44  C         60.1570  116.2080  139.5640 C.2   167  LEU167      0.2591
     45  O         60.2480  116.2090  138.3500 O.2   167  LEU167     -0.2718
     46  CB        60.7650  118.3180  140.8140 C.3   167  LEU167      0.0284
     47  CG        61.7850  118.7940  139.7790 C.3   167  LEU167      0.0019
     48  CD1       61.0930  119.5530  138.6230 C.3   167  LEU167      0.0001
     49  CD2       62.8650  119.6640  140.4070 C.3   167  LEU167      0.0001
     50  N         60.4920  115.1480  140.2940 N.am  168  MET168     -0.1979
     51  CA        60.8660  113.8960  139.6320 C.3   168  MET168      0.1605
     52  C         59.7440  113.3050  138.7950 C.2   168  MET168      0.2287
     53  O         60.0050  112.7790  137.7050 O.2   168  MET168     -0.2864
     54  CB        61.3760  112.8530  140.6220 C.3   168  MET168      0.0413
     55  CG        62.6300  113.2670  141.3550 C.3   168  MET168      0.0598
     56  SD        64.0180  113.3400  140.2150 S.3   168  MET168     -0.1393
     57  CE        64.0990  115.0900  139.8420 C.3   168  MET168      0.0692
     58  N         59.7070  115.4060  135.6210 N.3   171  TRP171     -0.1241
     59  CA        60.9020  115.1290  134.8100 C.3   171  TRP171      0.1605
     60  C         60.7740  113.8380  134.0250 C.2   171  TRP171      0.2264
     61  O         61.3850  113.6950  132.9690 O.2   171  TRP171     -0.2867
     62  CB        62.1610  115.0080  135.6820 C.3   171  TRP171      0.0550
     63  CG        62.7730  116.3070  136.1030 C.ar  171  TRP171      0.0003
     64  CD1       62.2130  117.5520  136.0360 C.ar  171  TRP171      0.0946
     65  CD2       64.0840  116.4860  136.6520 C.ar  171  TRP171      0.0152
     66  NE1       63.0990  118.5000  136.5120 N.ar  171  TRP171     -0.2442
     67  CE2       64.2490  117.8690  136.9030 C.ar  171  TRP171      0.0810
     68  CE3       65.1420  115.6080  136.9440 C.ar  171  TRP171      0.0012
     69  CZ2       65.4160  118.3940  137.4470 C.ar  171  TRP171      0.0191
     70  CZ3       66.3120  116.1360  137.4820 C.ar  171  TRP171      0.0001
     71  CH2       66.4320  117.5190  137.7270 C.ar  171  TRP171      0.0015
     72  N         65.4940  106.4520  139.0070 N.3   238  THR238     -0.1218
     73  CA        66.2790  107.3900  139.8060 C.3   238  THR238      0.1862
     74  C         66.2970  106.9400  141.2760 C.2   238  THR238      0.2287
     75  O         65.2560  106.7440  141.8900 O.2   238  THR238     -0.2866
     76  CB        65.7180  108.8350  139.6990 C.3   238  THR238      0.1770
     77  OG1       65.8520  109.3050  138.3510 O.3   238  THR238     -0.2211
     78  CG2       66.5060  109.7600  140.5970 C.3   238  THR238      0.0375
     79  N         69.4690  107.5290  136.8650 N.3   262  GLU262     -0.1231
     80  CA        70.0140  108.6770  137.5870 C.3   262  GLU262      0.1699
     81  C         70.3320  108.2530  139.0230 C.2   262  GLU262      0.2592
     82  O         69.4230  107.9540  139.8210 O.2   262  GLU262     -0.2718
     83  CB        69.0180  109.8380  137.5210 C.3   262  GLU262      0.0402
     84  CG        68.5900  110.2010  136.0720 C.3   262  GLU262      0.1161
     85  CD        69.4140  111.3480  135.4640 C.2   262  GLU262      0.3649
     86  OE1       70.0790  112.0690  136.2410 O.co2 262  GLU262     -0.2457
     87  OE2       69.4010  111.5380  134.2250 O.co2 262  GLU262     -0.2457
     88  N         71.6220  108.2040  139.3550 N.am  263  LEU263     -0.1980
     89  CA        72.0370  107.6440  140.6390 C.3   263  LEU263      0.1596
     90  C         72.6870  108.6490  141.5830 C.2   263  LEU263      0.2287
     91  O         72.3740  109.8490  141.5580 O.2   263  LEU263     -0.2864
     92  CB        72.9170  106.4060  140.4310 C.3   263  LEU263      0.0297
     93  CG        72.3890  105.4730  139.3350 C.3   263  LEU263      0.0022
     94  CD1       73.3560  104.3040  139.1030 C.3   263  LEU263      0.0001
     95  CD2       70.9590  104.9960  139.6440 C.3   263  LEU263      0.0001
     96  N         74.6420  126.5320  150.2720 N.3   286  PHE286     -0.1241
     97  CA        73.4780  126.1040  149.4930 C.3   286  PHE286      0.1605
     98  C         73.7710  124.7590  148.8030 C.2   286  PHE286      0.2264
     99  O         72.9860  123.8010  148.8820 O.2   286  PHE286     -0.2867
    100  CB        73.1040  127.1990  148.4610 C.3   286  PHE286      0.0534
    101  CG        71.9100  126.8520  147.6040 C.ar  286  PHE286     -0.0203
    102  CD1       72.0670  126.2360  146.3780 C.ar  286  PHE286     -0.0042
    103  CD2       70.6260  127.1350  148.0330 C.ar  286  PHE286     -0.0042
    104  CE1       70.9440  125.9090  145.6060 C.ar  286  PHE286     -0.0003
    105  CE2       69.5260  126.8190  147.2750 C.ar  286  PHE286     -0.0003
    106  CZ        69.6800  126.1950  146.0640 C.ar  286  PHE286     -0.0000
    107  N         71.0830  122.3240  150.6880 N.3   290  PHE290     -0.1241
    108  CA        69.7830  122.4580  150.0150 C.3   290  PHE290      0.1605
    109  C         68.9630  121.1870  150.1960 C.2   290  PHE290      0.2264
    110  O         69.4990  120.0810  150.1040 O.2   290  PHE290     -0.2867
    111  CB        69.9360  122.8170  148.5170 C.3   290  PHE290      0.0534
    112  CG        68.6110  122.9670  147.7970 C.ar  290  PHE290     -0.0203
    113  CD1       68.2570  122.0970  146.7720 C.ar  290  PHE290     -0.0042
    114  CD2       67.7160  123.9520  148.1730 C.ar  290  PHE290     -0.0042
    115  CE1       67.0310  122.2140  146.1150 C.ar  290  PHE290     -0.0003
    116  CE2       66.4850  124.0860  147.5310 C.ar  290  PHE290     -0.0003
    117  CZ        66.1430  123.2180  146.4970 C.ar  290  PHE290     -0.0000
    118  N         70.0200  115.7890  148.0040 N.3   295  CYS295     -0.1221
    119  CA        70.1810  116.0240  146.5680 C.3   295  CYS295      0.1808
    120  C         71.2370  115.0940  146.0080 C.2   295  CYS295      0.2601
    121  O         72.3270  114.9910  146.5690 O.2   295  CYS295     -0.2717
    122  CB        70.6230  117.4580  146.2820 C.3   295  CYS295      0.0970
    123  SG        69.4130  118.7040  146.7200 S.3   295  CYS295     -0.0800
    124  N         70.9050  114.4320  144.9060 N.am  296  CYS296     -0.1956
    125  CA        71.8610  113.5440  144.2560 C.3   296  CYS296      0.1843
    126  C         73.1450  114.3120  143.9380 C.2   296  CYS296      0.2625
    127  O         74.2330  113.7430  144.0000 O.2   296  CYS296     -0.2714
    128  CB        71.2780  112.9740  142.9580 C.3   296  CYS296      0.0997
    129  SG        70.6220  114.2170  141.8190 S.3   296  CYS296     -0.0797
    130  N         73.0100  115.5990  143.6080 N.am  297  CYS297     -0.1968
    131  CA        74.1450  116.3970  143.1500 C.3   297  CYS297      0.1712
    132  C         74.7500  117.3090  144.2270 C.2   297  CYS297      0.2296
    133  O         75.5150  118.2400  143.9130 O.2   297  CYS297     -0.2864
    134  CB        73.7730  117.1730  141.8770 C.3   297  CYS297      0.0983
    135  SG        72.3610  118.2510  142.1290 S.3   297  CYS297     -0.0798
    136  N         73.6710  124.0820  141.5710 N.3   451  ASP451     -0.1239
    137  CA        72.2770  123.6350  141.5470 C.3   451  ASP451      0.1674
    138  C         71.4380  124.5050  140.6250 C.2   451  ASP451      0.2266
    139  O         70.2740  124.7750  140.9180 O.2   451  ASP451     -0.2867
    140  CB        71.6710  123.6550  142.9560 C.3   451  ASP451      0.1410
    141  CG        71.9900  122.4040  143.7450 C.2   451  ASP451      0.3668
    142  OD1       72.4380  121.4230  143.1140 O.co2 451  ASP451     -0.2456
    143  OD2       71.8180  122.3930  144.9920 O.co2 451  ASP451     -0.2456
    144  N         69.5370  124.4310  137.5200 N.3   453  PHE453     -0.1241
    145  CA        68.8860  123.5970  136.5390 C.3   453  PHE453      0.1605
    146  C         67.9380  124.4300  135.7080 C.2   453  PHE453      0.2264
    147  O         67.2680  125.3270  136.2200 O.2   453  PHE453     -0.2867
    148  CB        68.0560  122.5370  137.2440 C.3   453  PHE453      0.0534
    149  CG        68.8750  121.5950  138.0710 C.ar  453  PHE453     -0.0203
    150  CD1       69.1720  121.8910  139.3950 C.ar  453  PHE453     -0.0042
    151  CD2       69.3630  120.4240  137.5220 C.ar  453  PHE453     -0.0042
    152  CE1       69.9270  121.0220  140.1670 C.ar  453  PHE453     -0.0003
    153  CE2       70.1240  119.5470  138.2940 C.ar  453  PHE453     -0.0003
    154  CZ        70.4040  119.8510  139.6210 C.ar  453  PHE453     -0.0000
    155  N         70.8780  116.8060  132.1810 N.3   459  PHE459     -0.1241
    156  CA        71.4070  116.4670  133.4880 C.3   459  PHE459      0.1605
    157  C         71.4460  114.9420  133.6140 C.2   459  PHE459      0.2264
    158  O         70.5150  114.2500  133.1730 O.2   459  PHE459     -0.2867
    159  CB        70.5030  117.0600  134.5810 C.3   459  PHE459      0.0534
    160  CG        70.9100  116.6650  135.9680 C.ar  459  PHE459     -0.0203
    161  CD1       71.9590  117.3170  136.6070 C.ar  459  PHE459     -0.0042
    162  CD2       70.2490  115.6340  136.6320 C.ar  459  PHE459     -0.0042
    163  CE1       72.3450  116.9480  137.9040 C.ar  459  PHE459     -0.0003
    164  CE2       70.6210  115.2570  137.9270 C.ar  459  PHE459     -0.0003
    165  CZ        71.6680  115.9140  138.5650 C.ar  459  PHE459     -0.0000
@<TRIPOS>BOND
     1   155   156    1
     2    61    60    2
     3   158   157    2
     4   156   157    1
     5   156   159    1
     6    60    59    1
     7    87    85   ar
     8   159   160    1
     9    59    58    1
    10    59    62    1
    11    85    84    1
    12    85    86   ar
    13    62    63    1
    14   146   147    2
    15   146   145    1
    16   160   161   ar
    17   160   162   ar
    18    64    63   ar
    19    64    66   ar
    20    84    83    1
    21    63    65   ar
    22    66    67   ar
    23   145   148    1
    24   145   144    1
    25    11    10    2
    26   161   163   ar
    27   162   164   ar
    28    65    67   ar
    29    65    68   ar
    30    79    80    1
    31    67    69   ar
    32    68    70   ar
    33   148   149    1
    34    69    71   ar
    35    70    71   ar
    36    83    80    1
    37   151   149   ar
    38   151   153   ar
    39    80    81    1
    40    53    52    2
    41    10     9    1
    42   163   165   ar
    43   164   165   ar
    44   149   150   ar
    45   153   154   ar
    46    45    44    2
    47    77    76    1
    48     9    12    1
    49     9     8    1
    50    48    47    1
    51    52    51    1
    52    72    73    1
    53    81    88   am
    54    81    82    2
    55    15    14    1
    56    12    13    1
    57    94    93    1
    58    93    95    1
    59    93    92    1
    60    88    89    1
    61   150   152   ar
    62    13    14    1
    63    44    43    1
    64    44    50   am
    65   154   152   ar
    66    51    50    1
    67    51    54    1
    68    76    73    1
    69    76    78    1
    70    47    49    1
    71    47    46    1
    72    73    74    1
    73    57    56    1
    74    56    55    1
    75    43    46    1
    76    43    42    1
    77    92    89    1
    78    54    55    1
    79   138   139    2
    80   138   137    1
    81    89    90    1
    82    74    75    2
    83   137   136    1
    84   137   140    1
    85    91    90    2
    86   129   128    1
    87   134   135    1
    88   134   131    1
    89     4     3    2
    90    22    16    1
    91    22    21    1
    92   140   141    1
    93   128   125    1
    94    34    33    2
    95   142   141   ar
    96   131   130    1
    97   131   132    1
    98    16    17    1
    99     3     2    1
   100    21    20    1
   101   130   126   am
   102   141   143   ar
   103    35    36    1
   104    35    32    1
   105     2     1    1
   106     2     5    1
   107   133   132    2
   108   126   127    2
   109   126   125    1
   110     6     5    1
   111   125   124    1
   112    33    32    1
   113    36    37   ar
   114    36    38   ar
   115    20    17    1
   116    17    18    1
   117    37    39   ar
   118    38    40   ar
   119    19    18    2
   120     5     7    1
   121   124   120   am
   122    32    31    1
   123    39    41   ar
   124    29    28    2
   125    40    41   ar
   126   104   106   ar
   127   104   102   ar
   128    30    28   am
   129    31    25   am
   130    28    27    1
   131   120   119    1
   132   120   121    2
   133   106   105   ar
   134   115   117   ar
   135   115   113   ar
   136   122   119    1
   137   122   123    1
   138   102   101   ar
   139   117   116   ar
   140   119   118    1
   141   113   112   ar
   142    25    26    2
   143    25    24    1
   144    23    24    1
   145   105   103   ar
   146    27    24    1
   147   116   114   ar
   148   101   103   ar
   149   101   100    1
   150   112   114   ar
   151   112   111    1
   152   100    97    1
   153   111   108    1
   154    98    99    2
   155    98    97    1
   156    97    96    1
   157   108   109    1
   158   108   107    1
   159   110   109    2
