@<TRIPOS>MOLECULE
tmp/3szbB00.pdb
 162 153 0 0 0
SMALL
GASTEIGER

@<TRIPOS>ATOM
      1  N         -0.5140    8.0310   17.6740 N.3    61  GLU61      -0.1231
      2  CA         0.4450    8.9690   18.2360 C.3    61  GLU61       0.1699
      3  C         -0.1330    9.6770   19.4560 C.2    61  GLU61       0.2592
      4  O          0.5300   10.5480   19.9970 O.2    61  GLU61      -0.2718
      5  CB         0.9710    9.9600   17.2030 C.3    61  GLU61       0.0402
      6  CG         1.8070    9.2520   16.1140 C.3    61  GLU61       0.1161
      7  CD         2.2170   10.1760   14.9750 C.2    61  GLU61       0.3649
      8  OE1        1.8400   11.3830   14.9510 O.co2  61  GLU61      -0.2457
      9  OE2        2.9350    9.6590   14.0890 O.co2  61  GLU61      -0.2457
     10  N         -1.3460    9.3090   19.8900 N.am   62  GLU62      -0.1979
     11  CA        -1.9620   10.0110   21.0220 C.3    62  GLU62       0.1602
     12  C         -2.9590    9.1960   21.8460 C.2    62  GLU62       0.2287
     13  O         -2.6990    8.8850   23.0130 O.2    62  GLU62      -0.2864
     14  CB        -2.5980   11.3210   20.5350 C.3    62  GLU62       0.0415
     15  CG        -3.2840   12.1050   21.6200 C.3    62  GLU62       0.1163
     16  CD        -3.4540   13.5810   21.3150 C.2    62  GLU62       0.3649
     17  OE1       -3.1940   14.0660   20.1850 O.co2  62  GLU62      -0.2457
     18  OE2       -3.8520   14.3090   22.2510 O.co2  62  GLU62      -0.2457
     19  N         -2.2790    5.7000   23.7620 N.3    65  TYR65      -0.1241
     20  CA        -1.5080    5.6920   25.0030 C.3    65  TYR65       0.1605
     21  C         -2.4040    5.9260   26.1850 C.2    65  TYR65       0.2264
     22  O         -2.0810    5.5050   27.2890 O.2    65  TYR65      -0.2867
     23  CB        -0.3820    6.7060   24.9520 C.3    65  TYR65       0.0534
     24  CG         0.5850    6.3790   23.8430 C.ar   65  TYR65      -0.0201
     25  CD1        0.7880    7.2700   22.7860 C.ar   65  TYR65      -0.0009
     26  CD2        1.2610    5.1660   23.8370 C.ar   65  TYR65      -0.0009
     27  CE1        1.6760    6.9570   21.7510 C.ar   65  TYR65       0.0417
     28  CE2        2.1420    4.8360   22.8080 C.ar   65  TYR65       0.0417
     29  CZ         2.3320    5.7320   21.7730 C.ar   65  TYR65       0.1957
     30  OH         3.2120    5.3960   20.7840 O.3    65  TYR65      -0.2866
     31  N         -0.8140   20.6460   22.4570 N.3   114  ASN114     -0.1225
     32  CA        -0.1550   19.9490   21.3460 C.3   114  ASN114      0.1785
     33  C         -0.5610   18.4950   21.2250 C.2   114  ASN114      0.2597
     34  O         -0.6170   17.9520   20.1030 O.2   114  ASN114     -0.2718
     35  CB         1.3610   20.0960   21.4190 C.3   114  ASN114      0.1169
     36  CG         1.9330   19.5030   22.6870 C.2   114  ASN114      0.2627
     37  OD1        1.3770   19.6910   23.7650 O.2   114  ASN114     -0.2716
     38  ND2        3.0430   18.8070   22.5680 N.am  114  ASN114     -0.0877
     39  N         -0.8400   17.8540   22.3700 N.am  115  TYR115     -0.1976
     40  CA        -1.5290   16.5720   22.4270 C.3   115  TYR115      0.1639
     41  C         -2.6730   16.7490   23.3980 C.2   115  TYR115      0.2290
     42  O         -2.5960   16.3380   24.5610 O.2   115  TYR115     -0.2864
     43  CB        -0.5970   15.4320   22.8820 C.3   115  TYR115      0.0560
     44  CG         0.4800   15.1460   21.8690 C.ar  115  TYR115     -0.0198
     45  CD1        0.3260   14.1490   20.9240 C.ar  115  TYR115     -0.0009
     46  CD2        1.6500   15.8960   21.8450 C.ar  115  TYR115     -0.0009
     47  CE1        1.3280   13.8780   19.9810 C.ar  115  TYR115      0.0417
     48  CE2        2.6590   15.6650   20.8970 C.ar  115  TYR115      0.0417
     49  CZ         2.4930   14.6620   19.9790 C.ar  115  TYR115      0.1957
     50  OH         3.4920   14.4480   19.0430 O.3   115  TYR115     -0.2866
     51  N         -4.2870   13.4470   24.9790 N.3   118  ASN118     -0.1225
     52  CA        -3.4350   12.6800   25.8650 C.3   118  ASN118      0.1785
     53  C         -3.0220   13.4890   27.1180 C.2   118  ASN118      0.2597
     54  O         -3.0490   12.9620   28.2400 O.2   118  ASN118     -0.2718
     55  CB        -2.1980   12.1640   25.1270 C.3   118  ASN118      0.1169
     56  CG        -1.3450   11.2940   26.0240 C.2   118  ASN118      0.2627
     57  OD1       -1.4510   10.0600   26.0140 O.2   118  ASN118     -0.2716
     58  ND2       -0.5460   11.9290   26.8480 N.am  118  ASN118     -0.0877
     59  N         -2.6660   14.7500   26.9240 N.am  119  LEU119     -0.1980
     60  CA        -2.1000   15.5400   28.0080 C.3   119  LEU119      0.1596
     61  C         -3.1540   16.1730   28.9290 C.2   119  LEU119      0.2287
     62  O         -2.8280   16.9660   29.8380 O.2   119  LEU119     -0.2864
     63  CB        -1.0970   16.5660   27.4490 C.3   119  LEU119      0.0297
     64  CG         0.0660   15.8470   26.7180 C.3   119  LEU119      0.0022
     65  CD1        0.9130   16.8580   25.9620 C.3   119  LEU119      0.0001
     66  CD2        0.9210   15.0140   27.7060 C.3   119  LEU119      0.0001
     67  N          1.1350   20.7250   32.4560 N.3   186  THR186     -0.1218
     68  CA         2.0290   20.5310   31.3070 C.3   186  THR186      0.1862
     69  C          2.0340   21.8450   30.5260 C.2   186  THR186      0.2287
     70  O          0.9760   22.3800   30.1780 O.2   186  THR186     -0.2866
     71  CB         1.5880   19.3740   30.4070 C.3   186  THR186      0.1770
     72  OG1        1.3940   18.2000   31.2040 O.3   186  THR186     -0.2211
     73  CG2        2.6390   19.0500   29.3560 C.3   186  THR186      0.0375
     74  N          5.3950   19.5130   34.2170 N.3   209  GLU209     -0.1245
     75  CA         5.9890   18.9110   33.0250 C.3   209  GLU209      0.1567
     76  C          6.2530   20.0520   32.0650 C.2   209  GLU209      0.2260
     77  O          5.3170   20.5710   31.4780 O.2   209  GLU209     -0.2867
     78  CB         4.9960   17.8910   32.4480 C.3   209  GLU209      0.0388
     79  CG         4.7420   16.6870   33.4070 C.3   209  GLU209      0.1160
     80  CD         5.7180   15.5520   33.2470 C.2   209  GLU209      0.3649
     81  OE1        6.5450   15.6240   32.3100 O.co2 209  GLU209     -0.2457
     82  OE2        5.6150   14.5960   34.0930 O.co2 209  GLU209     -0.2457
     83  N          7.0010   14.7390   13.4900 N.3   237  MET237     -0.1245
     84  CA         5.6540   14.3050   13.8850 C.3   237  MET237      0.1570
     85  C          4.9690   15.5090   14.5450 C.2   237  MET237      0.2261
     86  O          5.6370   16.3630   15.1400 O.2   237  MET237     -0.2867
     87  CB         5.6710   13.0950   14.8180 C.3   237  MET237      0.0387
     88  CG         6.0430   13.3460   16.2500 C.3   237  MET237      0.0595
     89  SD         5.5150   11.9730   17.3890 S.3   237  MET237     -0.1393
     90  CE         6.2730   10.5640   16.6130 C.3   237  MET237      0.0692
     91  N          6.1390   18.7550   19.7890 N.3   242  THR242     -0.1203
     92  CA         6.2000   17.7080   20.8040 C.3   242  THR242      0.1994
     93  C          7.2020   18.0660   21.8790 C.2   242  THR242      0.2618
     94  O          8.3130   18.5160   21.5870 O.2   242  THR242     -0.2717
     95  CB         6.6080   16.3810   20.1470 C.3   242  THR242      0.1784
     96  OG1        5.7700   16.1320   19.0090 O.3   242  THR242     -0.2211
     97  CG2        6.5470   15.2180   21.1250 C.3   242  THR242      0.0376
     98  N          6.8110   17.8760   23.1410 N.am  243  CYS243     -0.1955
     99  CA         7.6590   18.2170   24.2760 C.3   243  CYS243      0.1843
    100  C          9.0020   17.4910   24.2770 C.2   243  CYS243      0.2625
    101  O          9.9900   18.0610   24.7250 O.2   243  CYS243     -0.2714
    102  CB         6.9140   17.9040   25.5790 C.3   243  CYS243      0.0997
    103  SG         6.6460   16.1610   25.7670 S.3   243  CYS243     -0.0797
    104  N          9.0310   16.2620   23.7370 N.am  244  VAL244     -0.1977
    105  CA        10.2760   15.5060   23.6690 C.3   244  VAL244      0.1596
    106  C         10.7630   15.3160   22.2330 C.2   244  VAL244      0.2287
    107  O         11.5750   14.4270   21.9560 O.2   244  VAL244     -0.2864
    108  CB        10.2150   14.1680   24.4470 C.3   244  VAL244      0.0276
    109  CG1       10.0110   14.4350   25.9790 C.3   244  VAL244      0.0022
    110  CG2        9.1900   13.1550   23.8460 C.3   244  VAL244      0.0022
    111  N         14.1090   18.2110   28.9580 N.3   361  LEU361     -0.1245
    112  CA        13.1330   17.1840   29.3170 C.3   361  LEU361      0.1561
    113  C         13.5730   15.7870   28.8520 C.2   361  LEU361      0.2260
    114  O         13.4240   14.7950   29.5560 O.2   361  LEU361     -0.2867
    115  CB        11.7840   17.5450   28.6890 C.3   361  LEU361      0.0270
    116  CG        10.5930   16.6590   29.0030 C.3   361  LEU361      0.0019
    117  CD1       10.3570   16.5330   30.5230 C.3   361  LEU361      0.0001
    118  CD2        9.3740   17.2830   28.3330 C.3   361  LEU361      0.0001
    119  N         11.4800    9.8400   21.3300 N.3   391  ILE391     -0.1245
    120  CA        10.0390    9.8240   21.7000 C.3   391  ILE391      0.1561
    121  C          9.6370    8.6250   22.5530 C.2   391  ILE391      0.2260
    122  O          8.9760    8.7780   23.5960 O.2   391  ILE391     -0.2867
    123  CB         9.0390    9.8710   20.4790 C.3   391  ILE391      0.0252
    124  CG1        9.3930   10.9580   19.4540 C.3   391  ILE391      0.0019
    125  CG2        7.5960   10.0710   20.9770 C.3   391  ILE391      0.0019
    126  CD1        9.5100   12.3420   20.0300 C.3   391  ILE391      0.0001
    127  N          9.0290    7.7740   26.5760 N.3   394  ILE394     -0.1231
    128  CA         7.9250    8.2950   27.4020 C.3   394  ILE394      0.1692
    129  C          6.6140    7.5270   27.1700 C.2   394  ILE394      0.2592
    130  O          5.5520    7.9560   27.6350 O.2   394  ILE394     -0.2718
    131  CB         7.7250    9.8220   27.2030 C.3   394  ILE394      0.0266
    132  CG1        6.9680   10.1450   25.8880 C.3   394  ILE394      0.0019
    133  CG2        9.0660   10.5420   27.3340 C.3   394  ILE394      0.0020
    134  CD1        6.4140   11.5830   25.8150 C.3   394  ILE394      0.0001
    135  N          6.6890    6.3980   26.4720 N.am  395  THR395     -0.1953
    136  CA         5.4730    5.6430   26.1190 C.3   395  THR395      0.1897
    137  C          5.4500    4.3020   26.8240 C.2   395  THR395      0.2313
    138  O          4.5730    3.4550   26.5770 O.2   395  THR395     -0.2863
    139  CB         5.3740    5.3850   24.5950 C.3   395  THR395      0.1794
    140  OG1        6.4500    4.5310   24.1760 O.3   395  THR395     -0.2208
    141  CG2        5.4080    6.6920   23.8150 C.3   395  THR395      0.0378
    142  N          7.7420    9.3980   33.4990 N.3   401  PHE401     -0.1241
    143  CA         7.9810   10.5140   32.6100 C.3   401  PHE401      0.1605
    144  C          7.9110   11.8370   33.3470 C.2   401  PHE401      0.2264
    145  O          6.8790   12.1940   33.9040 O.2   401  PHE401     -0.2867
    146  CB         6.9090   10.4650   31.5010 C.3   401  PHE401      0.0534
    147  CG         6.8590   11.6830   30.6430 C.ar  401  PHE401     -0.0203
    148  CD1        8.0310   12.1770   30.0520 C.ar  401  PHE401     -0.0042
    149  CD2        5.6400   12.3070   30.3890 C.ar  401  PHE401     -0.0042
    150  CE1        8.0050   13.2840   29.2310 C.ar  401  PHE401     -0.0003
    151  CE2        5.5980   13.4190   29.5630 C.ar  401  PHE401     -0.0003
    152  CZ         6.8000   13.9140   28.9900 C.ar  401  PHE401     -0.0000
    153  N          2.8220    8.4490   34.7810 N.3   413  HIS413     -0.1241
    154  CA         2.7230    7.2470   33.9170 C.3   413  HIS413      0.1621
    155  C          2.8060    5.9750   34.7480 C.2   413  HIS413      0.2264
    156  O          3.6740    5.8390   35.6170 O.2   413  HIS413     -0.2867
    157  CB         3.7370    7.2040   32.7730 C.3   413  HIS413      0.0745
    158  CG         3.4630    8.1840   31.6730 C.ar  413  HIS413      0.0817
    159  ND1        4.2140    8.2000   30.5200 N.ar  413  HIS413     -0.2268
    160  CD2        2.4870    9.1120   31.5050 C.ar  413  HIS413      0.1154
    161  CE1        3.7460    9.1380   29.7050 C.ar  413  HIS413      0.1986
    162  NE2        2.6900    9.6960   30.2740 N.ar  413  HIS413     -0.2212
@<TRIPOS>BOND
     1    83    84    1
     2    84    85    1
     3    84    87    1
     4     9     7   ar
     5    85    86    2
     6    87    88    1
     7     8     7   ar
     8     7     6    1
     9     6     5    1
    10    88    89    1
    11    90    89    1
    12     5     2    1
    13     1     2    1
    14     2     3    1
    15    96    95    1
    16    50    49    1
    17   124   126    1
    18   124   123    1
    19     3    10   am
    20     3     4    2
    21    91    92    1
    22    10    11    1
    23    49    47   ar
    24    49    48   ar
    25    47    45   ar
    26    34    33    2
    27    95    92    1
    28    95    97    1
    29    17    16   ar
    30   123   125    1
    31   123   120    1
    32    14    11    1
    33    14    15    1
    34    30    29    1
    35    92    93    1
    36    48    46   ar
    37    45    44   ar
    38    11    12    1
    39    33    32    1
    40    33    39   am
    41    16    15    1
    42    16    18   ar
    43   119   120    1
    44    32    35    1
    45    32    31    1
    46    35    36    1
    47    94    93    2
    48   120   121    1
    49    27    29   ar
    50    27    25   ar
    51    29    28   ar
    52    46    44   ar
    53    12    13    2
    54    44    43    1
    55    93    98   am
    56   107   106    2
    57   106   105    1
    58    39    40    1
    59    40    43    1
    60    40    41    1
    61   121   122    2
    62    38    36   am
    63    36    37    2
    64    25    24   ar
    65    28    26   ar
    66    98    99    1
    67    41    42    2
    68   105   104    1
    69   105   108    1
    70   104   100   am
    71    19    20    1
    72   141   139    1
    73    26    24   ar
    74    24    23    1
    75   110   108    1
    76   140   139    1
    77    99   100    1
    78    99   102    1
    79   100   101    2
    80   108   109    1
    81   139   136    1
    82    23    20    1
    83    51    52    1
    84    20    21    1
    85    55    52    1
    86    55    56    1
    87   102   103    1
    88   134   132    1
    89    52    53    1
    90   132   131    1
    91    65    64    1
    92    57    56    2
    93    56    58   am
    94   136   135    1
    95   136   137    1
    96    21    22    2
    97   135   129   am
    98   127   128    1
    99   138   137    2
   100    64    63    1
   101    64    66    1
   102    59    53   am
   103    59    60    1
   104    53    54    2
   105   129   128    1
   106   129   130    2
   107   131   133    1
   108   131   128    1
   109    63    60    1
   110    60    61    1
   111   118   116    1
   112   115   116    1
   113   115   112    1
   114   113   112    1
   115   113   114    2
   116    61    62    2
   117   111   112    1
   118   152   150   ar
   119   152   151   ar
   120   116   117    1
   121   150   148   ar
   122    73    71    1
   123   151   149   ar
   124   161   162   ar
   125   161   159   ar
   126   148   147   ar
   127    70    69    2
   128   162   160   ar
   129   149   147   ar
   130    71    72    1
   131    71    68    1
   132   159   158   ar
   133    69    68    1
   134   147   146    1
   135    68    67    1
   136    77    76    2
   137   146   143    1
   138   160   158   ar
   139   158   157    1
   140    76    75    1
   141    81    80   ar
   142    78    75    1
   143    78    79    1
   144   143   144    1
   145   143   142    1
   146   157   154    1
   147    75    74    1
   148    80    79    1
   149    80    82   ar
   150   144   145    2
   151   154   155    1
   152   154   153    1
   153   155   156    2
