@<TRIPOS>MOLECULE
tmp/3szgB01.pdb
 114 107 0 0 0
SMALL
GASTEIGER

@<TRIPOS>ATOM
      1  N         69.9890   13.5260  -55.4440 N.3   366  GLY366     -0.1210
      2  CA        70.9540   13.7660  -56.4960 C.3   366  GLY366      0.1956
      3  C         70.5450   15.0150  -57.2570 C.2   366  GLY366      0.2612
      4  O         69.4540   15.0530  -57.8360 O.2   366  GLY366     -0.2717
      5  N         71.4230   16.0220  -57.2420 N.am  367  VAL367     -0.1965
      6  CA        71.2010   17.3160  -57.8720 C.3   367  VAL367      0.1727
      7  C         72.0740   17.4440  -59.0970 C.2   367  VAL367      0.2616
      8  O         73.2700   17.3480  -59.0120 O.2   367  VAL367     -0.2715
      9  CB        71.4520   18.4810  -56.8710 C.3   367  VAL367      0.0290
     10  CG1       70.3020   18.5530  -55.8440 C.3   367  VAL367      0.0023
     11  CG2       72.7730   18.2980  -56.1510 C.3   367  VAL367      0.0023
     12  N         71.4790   17.6330  -60.2570 N.am  368  SER368     -0.1950
     13  CA        72.2690   17.6410  -61.4810 C.3   368  SER368      0.1924
     14  C         72.3580   19.0350  -62.0570 C.2   368  SER368      0.2314
     15  O         72.9990   19.2470  -63.0830 O.2   368  SER368     -0.2863
     16  CB        71.5430   16.8240  -62.5180 C.3   368  SER368      0.2116
     17  OG        70.3050   17.4680  -62.7940 O.3   368  SER368     -0.2180
     18  N         64.0350   19.4940  -62.7700 N.3   372  ASP372     -0.1225
     19  CA        63.4330   18.5670  -61.8230 C.3   372  ASP372      0.1805
     20  C         64.0980   18.5060  -60.4480 C.2   372  ASP372      0.2598
     21  O         63.4400   18.7390  -59.4030 O.2   372  ASP372     -0.2718
     22  CB        63.3310   17.1550  -62.4110 C.3   372  ASP372      0.1424
     23  CG        62.3260   17.0550  -63.5550 C.2   372  ASP372      0.3668
     24  OD1       61.4580   17.9120  -63.6580 O.co2 372  ASP372     -0.2456
     25  OD2       62.3950   16.0850  -64.3460 O.co2 372  ASP372     -0.2456
     26  N         65.3890   18.1840  -60.4380 N.am  373  SER373     -0.1952
     27  CA        66.0470   17.9420  -59.1730 C.3   373  SER373      0.1924
     28  C         66.1850   19.2560  -58.4060 C.2   373  SER373      0.2314
     29  O         66.1870   19.2820  -57.1620 O.2   373  SER373     -0.2863
     30  CB        67.3880   17.2430  -59.3890 C.3   373  SER373      0.2116
     31  OG        68.2410   18.0060  -60.2280 O.3   373  SER373     -0.2180
     32  N         73.7660   15.6120  -53.5960 N.3   397  PHE397     -0.1227
     33  CA        74.9160   14.9770  -54.2510 C.3   397  PHE397      0.1736
     34  C         74.9960   15.2760  -55.7320 C.2   397  PHE397      0.2595
     35  O         74.0390   15.0920  -56.5020 O.2   397  PHE397     -0.2718
     36  CB        74.9400   13.4610  -54.0390 C.3   397  PHE397      0.0547
     37  CG        75.2670   13.0570  -52.6380 C.ar  397  PHE397     -0.0202
     38  CD1       74.2650   12.9500  -51.6960 C.ar  397  PHE397     -0.0042
     39  CD2       76.5820   12.8120  -52.2490 C.ar  397  PHE397     -0.0042
     40  CE1       74.5540   12.5840  -50.3890 C.ar  397  PHE397     -0.0003
     41  CE2       76.8930   12.4430  -50.9280 C.ar  397  PHE397     -0.0003
     42  CZ        75.8810   12.3280  -50.0060 C.ar  397  PHE397     -0.0000
     43  N         76.1680   15.7640  -56.1170 N.am  398  ALA398     -0.1966
     44  CA        76.5820   15.8140  -57.5100 C.3   398  ALA398      0.1728
     45  C         77.2440   14.4570  -57.8050 C.2   398  ALA398      0.2616
     46  O         78.0500   13.9500  -57.0090 O.2   398  ALA398     -0.2715
     47  CB        77.5840   16.9870  -57.7490 C.3   398  ALA398      0.0334
     48  N         76.8980   13.8800  -58.9460 N.am  399  LEU399     -0.1964
     49  CA        77.2810   12.5050  -59.2710 C.3   399  LEU399      0.1713
     50  C         77.7100   12.4380  -60.7280 C.2   399  LEU399      0.2458
     51  O         77.0750   11.7370  -61.5490 O.2   399  LEU399     -0.2730
     52  CB        76.0840   11.5800  -59.0710 C.3   399  LEU399      0.0310
     53  CG        75.6290   11.4540  -57.6270 C.3   399  LEU399      0.0022
     54  CD1       74.1800   10.9990  -57.6080 C.3   399  LEU399      0.0001
     55  CD2       76.4900   10.4720  -56.8920 C.3   399  LEU399      0.0001
     56  N         78.7860   13.1760  -61.0630 N.am  400  PRO400     -0.2716
     57  CA        79.2080   13.2610  -62.4690 C.3   400  PRO400      0.1536
     58  C         79.7120   11.8990  -62.9530 C.2   400  PRO400      0.2599
     59  O         80.2920   11.1250  -62.1730 O.2   400  PRO400     -0.2715
     60  CB        80.3400   14.3010  -62.4360 C.3   400  PRO400      0.0310
     61  CG        80.9000   14.1820  -61.0180 C.3   400  PRO400      0.0237
     62  CD        79.7340   13.8330  -60.1340 C.3   400  PRO400      0.0939
     63  N         79.4550   11.5990  -64.2250 N.am  401  GLY401     -0.1955
     64  CA        79.8780   10.3470  -64.8220 C.3   401  GLY401      0.1869
     65  C         80.7490   10.5920  -66.0290 C.2   401  GLY401      0.2309
     66  O         81.8780   11.0400  -65.8730 O.2   401  GLY401     -0.2863
     67  N         73.2240    5.6330  -64.9900 N.3   443  ALA443     -0.1245
     68  CA        72.0120    6.0370  -64.2830 C.3   443  ALA443      0.1562
     69  C         71.7620    5.1100  -63.0750 C.2   443  ALA443      0.2260
     70  O         71.4090    5.5500  -61.9810 O.2   443  ALA443     -0.2867
     71  CB        70.8320    6.0600  -65.2200 C.3   443  ALA443      0.0290
     72  N         74.2970    5.8800  -60.0510 N.3   446  ARG446     -0.1245
     73  CA        73.6700    7.0010  -59.3300 C.3   446  ARG446      0.1563
     74  C         72.6770    6.6370  -58.2280 C.2   446  ARG446      0.2260
     75  O         72.8680    6.9560  -57.0430 O.2   446  ARG446     -0.2867
     76  CB        73.0430    7.9700  -60.3240 C.3   446  ARG446      0.0307
     77  CG        74.1320    8.7500  -61.0500 C.3   446  ARG446      0.0489
     78  CD        73.6620    9.9440  -61.7720 C.3   446  ARG446      0.2205
     79  NE        74.8180   10.4880  -62.4800 N.pl3 446  ARG446     -0.0865
     80  CZ        75.0060   10.3930  -63.7910 C.cat 446  ARG446      0.5346
     81  NH1       74.0870    9.8290  -64.5500 N.pl3 446  ARG446      0.1354
     82  NH2       76.1010   10.8920  -64.3420 N.pl3 446  ARG446      0.1354
     83  N         73.1310    6.5230  -54.0500 N.3   450  LEU450     -0.1245
     84  CA        72.2550    7.2900  -53.1730 C.3   450  LEU450      0.1561
     85  C         71.6060    6.3280  -52.1600 C.2   450  LEU450      0.2260
     86  O         71.5720    6.5930  -50.9480 O.2   450  LEU450     -0.2867
     87  CB        71.2270    8.0730  -53.9810 C.3   450  LEU450      0.0270
     88  CG        71.8210    9.0620  -54.9630 C.3   450  LEU450      0.0019
     89  CD1       70.7260    9.5900  -55.8940 C.3   450  LEU450      0.0001
     90  CD2       72.3740   10.2010  -54.1370 C.3   450  LEU450      0.0001
     91  N         62.8110   12.3310  -58.2590 N.3   464  THR464     -0.1218
     92  CA        62.6560   13.6420  -58.9110 C.3   464  THR464      0.1862
     93  C         62.0880   13.5340  -60.3250 C.2   464  THR464      0.2287
     94  O         61.8210   14.5300  -60.9660 O.2   464  THR464     -0.2866
     95  CB        64.0210   14.4390  -59.0000 C.3   464  THR464      0.1770
     96  OG1       64.9060   13.7640  -59.9080 O.3   464  THR464     -0.2211
     97  CG2       64.6580   14.5730  -57.6330 C.3   464  THR464      0.0375
     98  N         57.5410   12.1590  -67.5880 N.3   469  GLU469     -0.1245
     99  CA        58.5490   11.0560  -67.7530 C.3   469  GLU469      0.1567
    100  C         57.8880    9.7170  -67.4020 C.2   469  GLU469      0.2260
    101  O         58.1190    8.7570  -68.1020 O.2   469  GLU469     -0.2867
    102  CB        59.8490   11.3090  -66.9850 C.3   469  GLU469      0.0388
    103  CG        60.6280   12.5510  -67.5310 C.3   469  GLU469      0.1160
    104  CD        61.6740   13.1350  -66.5690 C.2   469  GLU469      0.3649
    105  OE1       61.5670   12.8920  -65.3420 O.co2 469  GLU469     -0.2457
    106  OE2       62.5830   13.8710  -67.0490 O.co2 469  GLU469     -0.2457
    107  N         66.9720    5.9140  -62.1480 N.3   481  ASP481     -0.1239
    108  CA        66.2270    7.0860  -61.6580 C.3   481  ASP481      0.1674
    109  C         64.7020    6.8850  -61.3810 C.2   481  ASP481      0.2266
    110  O         64.1010    7.6280  -60.6030 O.2   481  ASP481     -0.2867
    111  CB        66.4550    8.2430  -62.6430 C.3   481  ASP481      0.1410
    112  CG        66.3220    7.7970  -64.0930 C.2   481  ASP481      0.3668
    113  OD1       67.3520    7.4720  -64.7260 O.co2 481  ASP481     -0.2456
    114  OD2       65.2020    7.7350  -64.5980 O.co2 481  ASP481     -0.2456
@<TRIPOS>BOND
     1   101   100    2
     2    99    98    1
     3    99   100    1
     4    99   102    1
     5   103   102    1
     6   103   104    1
     7   106   104   ar
     8   104   105   ar
     9    65    66    2
    10    65    64    1
    11    71    68    1
    12    67    68    1
    13    64    63    1
    14   113   112   ar
    15   114   112   ar
    16    81    80    1
    17    25    23   ar
    18    82    80    1
    19    68    69    1
    20    63    58   am
    21   112   111    1
    22    80    79    2
    23    24    23   ar
    24    23    22    1
    25    15    14    2
    26    69    70    2
    27    58    57    1
    28    58    59    2
    29    17    16    1
    30    18    19    1
    31   111   108    1
    32    16    13    1
    33    79    78    1
    34    57    60    1
    35    57    56    1
    36    60    61    1
    37    22    19    1
    38   107   108    1
    39    14    13    1
    40    19    20    1
    41    78    77    1
    42   108   109    1
    43    51    50    2
    44    13    12    1
    45   109   110    2
    46    56    50   am
    47    56    62    1
    48    77    76    1
    49    61    62    1
    50    94    93    2
    51    50    49    1
    52    20    26   am
    53    20    21    2
    54    26    27    1
    55    93    92    1
    56    76    73    1
    57    12     7   am
    58    31    30    1
    59    72    73    1
    60    96    95    1
    61    30    27    1
    62    73    74    1
    63    49    52    1
    64    49    48    1
    65    27    28    1
    66     7     8    2
    67     7     6    1
    68    52    53    1
    69    95    92    1
    70    95    97    1
    71    48    45   am
    72    92    91    1
    73    28    29    2
    74    74    75    2
    75     6     5    1
    76     6     9    1
    77     4     3    2
    78    45    44    1
    79    45    46    2
    80    47    44    1
    81    53    54    1
    82    53    55    1
    83    44    43    1
    84     3     5   am
    85     3     2    1
    86     9    11    1
    87     9    10    1
    88    35    34    2
    89     2     1    1
    90    43    34   am
    91    89    88    1
    92    34    33    1
    93    88    90    1
    94    88    87    1
    95    33    36    1
    96    33    32    1
    97    83    84    1
    98    36    37    1
    99    87    84    1
   100    84    85    1
   101    37    39   ar
   102    37    38   ar
   103    39    41   ar
   104    85    86    2
   105    38    40   ar
   106    41    42   ar
   107    40    42   ar
