@<TRIPOS>MOLECULE
tmp/3szjA00.pdb
 153 146 0 0 0
SMALL
GASTEIGER

@<TRIPOS>ATOM
      1  N          9.0990   15.9790    6.9780 N.3    14  ASN14      -0.1240
      2  CA         9.2230   15.4770    5.6110 C.3    14  ASN14       0.1653
      3  C          9.2200   16.5700    4.5640 C.2    14  ASN14       0.2266
      4  O          9.2070   17.7600    4.9000 O.2    14  ASN14      -0.2867
      5  CB         8.2140   14.3620    5.2810 C.3    14  ASN14       0.1155
      6  CG         6.7880   14.8530    5.1170 C.2    14  ASN14       0.2627
      7  OD1        6.5310   16.0370    4.8780 O.2    14  ASN14      -0.2716
      8  ND2        5.8320   13.9240    5.2360 N.am   14  ASN14      -0.0877
      9  N          7.1060   17.6600    2.6230 N.3    16  ASP16      -0.1239
     10  CA         5.8880   18.4790    2.5650 C.3    16  ASP16       0.1674
     11  C          5.7090   19.3400    3.8130 C.2    16  ASP16       0.2266
     12  O          4.7470   20.0970    3.9230 O.2    16  ASP16      -0.2867
     13  CB         4.6640   17.5930    2.3500 C.3    16  ASP16       0.1410
     14  CG         4.5250   17.1640    0.9200 C.2    16  ASP16       0.3668
     15  OD1        4.0360   17.9750    0.0980 O.co2  16  ASP16      -0.2456
     16  OD2        4.9260   16.0280    0.5920 O.co2  16  ASP16      -0.2456
     17  N          5.4280   18.1180    6.9460 N.3    18  SER18      -0.1217
     18  CA         4.7250   17.4060    8.0080 C.3    18  SER18       0.1889
     19  C          5.7130   16.9390    9.0570 C.2    18  SER18       0.2288
     20  O          6.8600   16.5980    8.7400 O.2    18  SER18      -0.2866
     21  CB         3.9830   16.1890    7.4460 C.3    18  SER18       0.2089
     22  OG         3.0750   16.6090    6.4440 O.3    18  SER18      -0.2183
     23  N          1.5590   13.2090   15.0840 N.3    35  TYR35      -0.1241
     24  CA         1.8990   13.5800   13.7180 C.3    35  TYR35       0.1605
     25  C          1.1140   14.8200   13.3430 C.2    35  TYR35       0.2264
     26  O         -0.0940   14.8950   13.6340 O.2    35  TYR35      -0.2867
     27  CB         1.4930   12.4390   12.7780 C.3    35  TYR35       0.0534
     28  CG         2.1030   12.5280   11.3980 C.ar   35  TYR35      -0.0201
     29  CD1        1.4820   13.2720   10.3750 C.ar   35  TYR35      -0.0009
     30  CD2        3.3000   11.8630   11.1060 C.ar   35  TYR35      -0.0009
     31  CE1        2.0610   13.3590    9.0980 C.ar   35  TYR35       0.0417
     32  CE2        3.8730   11.9370    9.8540 C.ar   35  TYR35       0.0417
     33  CZ         3.2710   12.6850    8.8540 C.ar   35  TYR35       0.1957
     34  OH         3.8590   12.7190    7.6130 O.3    35  TYR35      -0.2866
     35  N          0.1670   16.8470    9.9010 N.3    37  ASN37      -0.1240
     36  CA         0.1990   16.8520    8.4500 C.3    37  ASN37       0.1653
     37  C          0.1640   18.2820    7.9330 C.2    37  ASN37       0.2266
     38  O         -0.6720   19.0960    8.3650 O.2    37  ASN37      -0.2867
     39  CB        -1.0450   16.0760    7.9480 C.3    37  ASN37       0.1155
     40  CG        -1.2570   16.1920    6.4650 C.2    37  ASN37       0.2627
     41  OD1       -0.3200   16.0780    5.6750 O.2    37  ASN37      -0.2716
     42  ND2       -2.5290   16.4110    6.0600 N.am   37  ASN37      -0.0877
     43  N          0.7700   18.5380    4.2520 N.3    39  ALA39      -0.1245
     44  CA         0.8490   18.2890    2.8030 C.3    39  ALA39       0.1562
     45  C         -0.3510   18.8350    2.0600 C.2    39  ALA39       0.2260
     46  O         -1.4840   18.4870    2.3720 O.2    39  ALA39      -0.2867
     47  CB         1.0090   16.7980    2.5110 C.3    39  ALA39       0.0290
     48  N         -4.2350   17.2250    0.9260 N.3    42  PHE42      -0.1227
     49  CA        -4.7920   16.3770    1.9660 C.3    42  PHE42       0.1736
     50  C         -5.4570   17.2510    3.0040 C.2    42  PHE42       0.2595
     51  O         -4.9780   18.3690    3.2620 O.2    42  PHE42      -0.2718
     52  CB        -3.6990   15.5230    2.6390 C.3    42  PHE42       0.0547
     53  CG        -3.0560   14.5220    1.7080 C.ar   42  PHE42      -0.0202
     54  CD1       -1.9440   14.8850    0.9710 C.ar   42  PHE42      -0.0042
     55  CD2       -3.5620   13.2310    1.5700 C.ar   42  PHE42      -0.0042
     56  CE1       -1.3240   13.9810    0.0990 C.ar   42  PHE42      -0.0003
     57  CE2       -2.9490   12.3110    0.6900 C.ar   42  PHE42      -0.0003
     58  CZ        -1.8250   12.6930   -0.0310 C.ar   42  PHE42      -0.0000
     59  N         -6.5550   16.7670    3.5830 N.am   43  ALA43      -0.1966
     60  CA        -7.2060   17.4590    4.7160 C.3    43  ALA43       0.1728
     61  C         -6.5260   17.0550    6.0460 C.2    43  ALA43       0.2616
     62  O         -5.4120   16.5310    6.0290 O.2    43  ALA43      -0.2715
     63  CB        -8.7440   17.2100    4.7300 C.3    43  ALA43       0.0334
     64  N         -7.1470   17.3470    7.1840 N.am   44  CYS44      -0.1968
     65  CA        -6.5370   17.0280    8.4820 C.3    44  CYS44       0.1712
     66  C         -5.1320   17.6040    8.6060 C.2    44  CYS44       0.2296
     67  O         -4.2040   16.9200    9.0610 O.2    44  CYS44      -0.2864
     68  CB        -6.5330   15.5100    8.7540 C.3    44  CYS44       0.0983
     69  SG        -8.1930   14.8740    9.0970 S.3    44  CYS44      -0.0798
     70  N         -6.5170    9.1470   11.5940 N.3    66  TRP66      -0.1241
     71  CA        -6.8480   10.5550   11.3260 C.3    66  TRP66       0.1605
     72  C         -8.1770   10.9620   11.9950 C.2    66  TRP66       0.2264
     73  O         -9.1560   11.3510   11.3360 O.2    66  TRP66      -0.2867
     74  CB        -6.8490   10.8230    9.8080 C.3    66  TRP66       0.0550
     75  CG        -5.4980   10.5590    9.1740 C.ar   66  TRP66       0.0003
     76  CD1       -5.1470    9.4840    8.3640 C.ar   66  TRP66       0.0946
     77  CD2       -4.3180   11.3760    9.2820 C.ar   66  TRP66       0.0152
     78  NE1       -3.8280    9.5800    8.0070 N.ar   66  TRP66      -0.2442
     79  CE2       -3.2990   10.7360    8.5290 C.ar   66  TRP66       0.0810
     80  CE3       -4.0250   12.5870    9.9230 C.ar   66  TRP66       0.0012
     81  CZ2       -2.0060   11.2610    8.4190 C.ar   66  TRP66       0.0191
     82  CZ3       -2.7430   13.1020    9.8180 C.ar   66  TRP66       0.0001
     83  CH2       -1.7510   12.4410    9.0720 C.ar   66  TRP66       0.0015
     84  N        -10.7040   12.6160    9.2000 N.3    73  CYS73      -0.1235
     85  CA       -10.5950   12.2880    7.7800 C.3    73  CYS73       0.1677
     86  C        -10.9380   10.8290    7.4710 C.2    73  CYS73       0.2270
     87  O        -10.7460   10.3910    6.3220 O.2    73  CYS73      -0.2867
     88  CB        -9.1990   12.6400    7.2430 C.3    73  CYS73       0.0956
     89  SG        -8.9320   14.4320    7.1930 S.3    73  CYS73      -0.0801
     90  N         -9.8040    7.8630    8.0170 N.3    75  SER75      -0.1217
     91  CA        -8.7300    7.1290    7.3570 C.3    75  SER75       0.1889
     92  C         -7.5820    6.8410    8.3030 C.2    75  SER75       0.2288
     93  O         -7.5210    7.3950    9.3980 O.2    75  SER75      -0.2866
     94  CB        -8.2040    7.9360    6.1650 C.3    75  SER75       0.2089
     95  OG        -9.2600    8.3240    5.3080 O.3    75  SER75      -0.2183
     96  N         -3.1660    6.1460    7.9560 N.3    77  THR77      -0.1218
     97  CA        -1.9300    5.9910    7.1580 C.3    77  THR77       0.1862
     98  C         -0.9230    5.1220    7.9010 C.2    77  THR77       0.2287
     99  O         -0.7970    5.2210    9.1210 O.2    77  THR77      -0.2866
    100  CB        -1.3050    7.3550    6.8290 C.3    77  THR77       0.1770
    101  OG1       -2.2940    8.1160    6.1370 O.3    77  THR77      -0.2211
    102  CG2       -0.0770    7.1880    5.9010 C.3    77  THR77       0.0375
    103  N          3.1930    3.9640    7.5440 N.3    79  TRP79      -0.1241
    104  CA         4.5010    4.1310    6.9200 C.3    79  TRP79       0.1605
    105  C          5.4050    2.9570    7.2960 C.2    79  TRP79       0.2264
    106  O          5.4120    2.5020    8.4610 O.2    79  TRP79      -0.2867
    107  CB         5.1820    5.3970    7.4400 C.3    79  TRP79       0.0550
    108  CG         4.6220    6.7580    7.0200 C.ar   79  TRP79       0.0003
    109  CD1        5.1180    7.5880    6.0370 C.ar   79  TRP79       0.0946
    110  CD2        3.5040    7.4580    7.6120 C.ar   79  TRP79       0.0152
    111  NE1        4.3730    8.7670    5.9850 N.ar   79  TRP79      -0.2442
    112  CE2        3.3860    8.7070    6.9430 C.ar   79  TRP79       0.0810
    113  CE3        2.6090    7.1580    8.6690 C.ar   79  TRP79       0.0012
    114  CZ2        2.4110    9.6530    7.3050 C.ar   79  TRP79       0.0191
    115  CZ3        1.6260    8.0900    9.0070 C.ar   79  TRP79       0.0001
    116  CH2        1.5400    9.3220    8.3380 C.ar   79  TRP79       0.0015
    117  N          4.4770    4.8450    2.1480 N.3    96  TRP96      -0.1241
    118  CA         3.2210    4.8550    2.9280 C.3    96  TRP96       0.1605
    119  C          2.0040    4.3390    2.1670 C.2    96  TRP96       0.2264
    120  O          1.9790    4.3350    0.9250 O.2    96  TRP96      -0.2867
    121  CB         2.8980    6.2320    3.5090 C.3    96  TRP96       0.0550
    122  CG         2.8410    7.3920    2.5310 C.ar   96  TRP96       0.0003
    123  CD1        3.8440    8.2710    2.2460 C.ar   96  TRP96       0.0946
    124  CD2        1.7130    7.7870    1.7340 C.ar   96  TRP96       0.0152
    125  NE1        3.4180    9.1760    1.2900 N.ar   96  TRP96      -0.2442
    126  CE2        2.1100    8.9110    0.9690 C.ar   96  TRP96       0.0810
    127  CE3        0.3970    7.3000    1.6050 C.ar   96  TRP96       0.0012
    128  CZ2        1.2330    9.5690    0.0790 C.ar   96  TRP96       0.0191
    129  CZ3       -0.4600    7.9280    0.7220 C.ar   96  TRP96       0.0001
    130  CH2       -0.0370    9.0600   -0.0400 C.ar   96  TRP96       0.0015
    131  N         -2.4450    4.6170    2.5950 N.3    98  LEU98      -0.1245
    132  CA        -3.5500    5.3030    3.2600 C.3    98  LEU98       0.1561
    133  C         -4.8360    4.5600    2.9040 C.2    98  LEU98       0.2260
    134  O         -5.1590    4.4300    1.7280 O.2    98  LEU98      -0.2867
    135  CB        -3.5890    6.7720    2.7900 C.3    98  LEU98       0.0270
    136  CG        -4.6990    7.7900    3.1000 C.3    98  LEU98       0.0019
    137  CD1       -5.0860    7.8720    4.5570 C.3    98  LEU98       0.0001
    138  CD2       -4.2610    9.1750    2.6210 C.3    98  LEU98       0.0001
    139  N         -9.0860    4.1020    3.6390 N.3   100  VAL100     -0.1245
    140  CA       -10.2490    4.8930    4.0270 C.3   100  VAL100      0.1561
    141  C        -11.3890    3.9940    4.5230 C.2   100  VAL100      0.2260
    142  O        -11.6950    2.9550    3.9230 O.2   100  VAL100     -0.2867
    143  CB       -10.7390    5.7660    2.8490 C.3   100  VAL100      0.0252
    144  CG1      -11.8610    6.6870    3.3020 C.3   100  VAL100      0.0019
    145  CG2       -9.5780    6.6030    2.2680 C.3   100  VAL100      0.0019
    146  N          7.6210    9.1860    1.4780 N.3   114  ASP114     -0.1239
    147  CA         8.0210   10.3520    2.2920 C.3   114  ASP114      0.1674
    148  C          9.4330   10.1180    2.8080 C.2   114  ASP114      0.2266
    149  O          9.7780    9.0080    3.2210 O.2   114  ASP114     -0.2867
    150  CB         7.1710   10.5070    3.5500 C.3   114  ASP114      0.1410
    151  CG         5.7830   11.1260    3.3030 C.2   114  ASP114      0.3668
    152  OD1        5.5390   11.7620    2.2360 O.co2 114  ASP114     -0.2456
    153  OD2        4.9400   10.9780    4.2220 O.co2 114  ASP114     -0.2456
@<TRIPOS>BOND
     1   130   128   ar
     2   130   129   ar
     3    58    56   ar
     4    58    57   ar
     5   128   126   ar
     6    15    14   ar
     7    56    54   ar
     8    16    14   ar
     9    57    55   ar
    10   129   127   ar
    11    14    13    1
    12   120   119    2
    13    48    49    1
    14   126   125   ar
    15   126   124   ar
    16    54    53   ar
    17   125   123   ar
    18   146   147    1
    19    55    53   ar
    20   127   124   ar
    21    53    52    1
    22   134   133    2
    23   124   122   ar
    24    49    52    1
    25    49    50    1
    26    45    46    2
    27    45    44    1
    28   117   118    1
    29   119   118    1
    30   152   151   ar
    31   123   122   ar
    32   145   143    1
    33   147   148    1
    34   147   150    1
    35    13    10    1
    36    47    44    1
    37   122   121    1
    38    10     9    1
    39    10    11    1
    40   131   132    1
    41   138   136    1
    42   135   136    1
    43   135   132    1
    44    44    43    1
    45   148   149    2
    46   143   144    1
    47   143   140    1
    48   133   132    1
    49   118   121    1
    50    50    51    2
    51    50    59   am
    52   136   137    1
    53   151   150    1
    54   151   153   ar
    55    59    60    1
    56   139   140    1
    57    11    12    2
    58   142   141    2
    59   140   141    1
    60     3     4    2
    61     3     2    1
    62    60    63    1
    63    60    61    1
    64     7     6    2
    65     6     8   am
    66     6     5    1
    67     5     2    1
    68    95    94    1
    69     2     1    1
    70    41    40    2
    71   102   100    1
    72   111   109   ar
    73   111   112   ar
    74    62    61    2
    75   109   108   ar
    76    61    64   am
    77    42    40   am
    78   101   100    1
    79    94    91    1
    80    87    86    2
    81    22    21    1
    82    40    39    1
    83   100    97    1
    84   104   105    1
    85   104   107    1
    86   104   103    1
    87   112   114   ar
    88   112   110   ar
    89    17    18    1
    90   108   107    1
    91   108   110   ar
    92    97    98    1
    93    97    96    1
    94    64    65    1
    95    89    88    1
    96    89    69    1
    97    88    85    1
    98   105   106    2
    99   114   116   ar
   100    91    90    1
   101    91    92    1
   102    21    18    1
   103    86    85    1
   104   110   113   ar
   105    34    33    1
   106    85    84    1
   107    98    99    2
   108    37    38    2
   109    37    36    1
   110    39    36    1
   111    78    76   ar
   112    78    79   ar
   113    18    19    1
   114    92    93    2
   115   116   115   ar
   116    76    75   ar
   117    81    79   ar
   118    81    83   ar
   119    36    35    1
   120    65    66    1
   121    65    68    1
   122    79    77   ar
   123    66    67    2
   124   113   115   ar
   125    20    19    2
   126    68    69    1
   127    33    31   ar
   128    33    32   ar
   129    83    82   ar
   130    31    29   ar
   131    75    77   ar
   132    75    74    1
   133    77    80   ar
   134    74    71    1
   135    82    80   ar
   136    32    30   ar
   137    29    28   ar
   138    30    28   ar
   139    71    70    1
   140    71    72    1
   141    73    72    2
   142    28    27    1
   143    27    24    1
   144    25    26    2
   145    25    24    1
   146    24    23    1
