@<TRIPOS>MOLECULE
tmp/3sznA00.pdb
 166 164 0 0 0
SMALL
GASTEIGER

@<TRIPOS>ATOM
      1  N        -17.9180  -11.1300  -26.9550 N.3    26  THR26      -0.1203
      2  CA       -16.6130  -11.7550  -26.9000 C.3    26  THR26       0.1994
      3  C        -15.6140  -10.7300  -26.3800 C.2    26  THR26       0.2617
      4  O        -15.6470   -9.5730  -26.7900 O.2    26  THR26      -0.2717
      5  CB       -16.1940  -12.2580  -28.2910 C.3    26  THR26       0.1784
      6  OG1      -17.0950  -13.3010  -28.7050 O.3    26  THR26      -0.2211
      7  CG2      -14.8050  -12.8120  -28.2710 C.3    26  THR26       0.0376
      8  N        -14.7610  -11.1650  -25.4600 N.am   27  LEU27      -0.1979
      9  CA       -13.6360  -10.3500  -24.9760 C.3    27  LEU27       0.1596
     10  C        -12.4700  -11.2310  -24.5550 C.2    27  LEU27       0.2287
     11  O        -12.4830  -12.4310  -24.7790 O.2    27  LEU27      -0.2864
     12  CB       -14.0630   -9.3940  -23.8460 C.3    27  LEU27       0.0297
     13  CG       -14.9600   -9.9100  -22.7050 C.3    27  LEU27       0.0022
     14  CD1      -14.2970  -11.0690  -21.9360 C.3    27  LEU27       0.0001
     15  CD2      -15.3250   -8.8000  -21.7400 C.3    27  LEU27       0.0001
     16  N        -18.5230   -8.0890  -16.9940 N.3    41  HIS41      -0.1241
     17  CA       -19.4500   -7.5070  -17.9660 C.3    41  HIS41       0.1621
     18  C        -19.6000   -8.3340  -19.2710 C.2    41  HIS41       0.2264
     19  O        -20.4530   -8.0210  -20.0970 O.2    41  HIS41      -0.2867
     20  CB       -19.2010   -6.0000  -18.2090 C.3    41  HIS41       0.0745
     21  CG       -17.9680   -5.6850  -19.0070 C.ar   41  HIS41       0.0817
     22  ND1      -17.0060   -4.7950  -18.5730 N.ar   41  HIS41      -0.2268
     23  CD2      -17.5750   -6.0870  -20.2400 C.ar   41  HIS41       0.1154
     24  CE1      -16.0570   -4.6910  -19.4890 C.ar   41  HIS41       0.1986
     25  NE2      -16.3740   -5.4700  -20.5070 N.ar   41  HIS41      -0.2212
     26  N        -26.1510   -3.0170  -19.4280 N.3    49  MET49      -0.1245
     27  CA       -25.0570   -2.1720  -18.9140 C.3    49  MET49       0.1570
     28  C        -25.4710   -0.9200  -18.1490 C.2    49  MET49       0.2261
     29  O        -24.6750   -0.3800  -17.3860 O.2    49  MET49      -0.2867
     30  CB       -24.0590   -1.7900  -20.0190 C.3    49  MET49       0.0387
     31  CG       -22.9360   -2.8100  -20.2950 C.3    49  MET49       0.0595
     32  SD       -22.2130   -3.7460  -18.9120 S.3    49  MET49      -0.1393
     33  CE       -21.1500   -2.5550  -18.1180 C.3    49  MET49       0.0692
     34  N         -6.9490    1.9430  -26.4700 N.3   140  PHE140     -0.1227
     35  CA        -7.8420    0.7830  -26.4960 C.3   140  PHE140      0.1736
     36  C         -9.0400    1.0350  -27.3980 C.2   140  PHE140      0.2595
     37  O         -9.6050    2.1330  -27.4040 O.2   140  PHE140     -0.2718
     38  CB        -8.4020    0.5190  -25.1090 C.3   140  PHE140      0.0547
     39  CG        -7.4050    0.0070  -24.1010 C.ar  140  PHE140     -0.0202
     40  CD1       -7.0830    0.7770  -22.9820 C.ar  140  PHE140     -0.0042
     41  CD2       -6.8390   -1.2610  -24.2230 C.ar  140  PHE140     -0.0042
     42  CE1       -6.1960    0.3010  -22.0100 C.ar  140  PHE140     -0.0003
     43  CE2       -5.9520   -1.7450  -23.2490 C.ar  140  PHE140     -0.0003
     44  CZ        -5.6420   -0.9540  -22.1380 C.ar  140  PHE140     -0.0000
     45  N         -9.4470    0.0020  -28.1230 N.am  141  LEU141     -0.1966
     46  CA       -10.6380    0.0650  -28.9760 C.3   141  LEU141      0.1728
     47  C        -11.6650   -0.9480  -28.4990 C.2   141  LEU141      0.2616
     48  O        -11.3910   -1.7290  -27.5930 O.2   141  LEU141     -0.2715
     49  CB       -10.2620   -0.2280  -30.4370 C.3   141  LEU141      0.0311
     50  CG        -9.1930    0.6710  -31.0690 C.3   141  LEU141      0.0022
     51  CD1       -8.9720    0.2450  -32.5100 C.3   141  LEU141      0.0001
     52  CD2       -9.5900    2.1490  -31.0080 C.3   141  LEU141      0.0001
     53  N        -12.8520   -0.9550  -29.1120 N.am  142  ASN142     -0.1958
     54  CA       -13.8090   -2.0420  -28.8650 C.3   142  ASN142      0.1819
     55  C        -13.1260   -3.3990  -28.9940 C.2   142  ASN142      0.2622
     56  O        -12.3020   -3.5970  -29.8880 O.2   142  ASN142     -0.2715
     57  CB       -14.9880   -1.9530  -29.8420 C.3   142  ASN142      0.1195
     58  CG       -15.9000   -0.7740  -29.5480 C.2   142  ASN142      0.2630
     59  OD1      -15.6830   -0.0310  -28.6040 O.2   142  ASN142     -0.2716
     60  ND2      -16.9290   -0.6000  -30.3730 N.am  142  ASN142     -0.0877
     61  N        -13.4460   -4.3160  -28.0850 N.am  143  GLY143     -0.1940
     62  CA       -12.8680   -5.6730  -28.1020 C.3   143  GLY143      0.2014
     63  C        -11.6600   -5.8380  -27.1970 C.2   143  GLY143      0.2640
     64  O        -11.1720   -6.9530  -27.0000 O.2   143  GLY143     -0.2714
     65  N        -11.1560   -4.7250  -26.6590 N.am  144  SER144     -0.1935
     66  CA        -9.9370   -4.7530  -25.8510 C.3   144  SER144      0.2055
     67  C        -10.1480   -5.1490  -24.3830 C.2   144  SER144      0.2643
     68  O         -9.1730   -5.3280  -23.6580 O.2   144  SER144     -0.2714
     69  CB        -9.2340   -3.3880  -25.8880 C.3   144  SER144      0.2130
     70  OG       -10.0590   -2.3920  -25.3100 O.3   144  SER144     -0.2179
     71  N        -11.3960   -5.2840  -23.9240 N.am  145  CYS145     -0.1967
     72  CA       -11.5820   -5.5910  -22.5010 C.3   145  CYS145      0.1712
     73  C        -10.9920   -6.9370  -22.1460 C.2   145  CYS145      0.2296
     74  O        -10.9720   -7.8600  -22.9790 O.2   145  CYS145     -0.2864
     75  CB       -13.0350   -5.4600  -22.0550 C.3   145  CYS145      0.0983
     76  SG       -13.5820   -3.7260  -22.0350 S.3   145  CYS145     -0.0798
     77  N         -8.4060   -4.6190  -18.1140 N.3   163  HIS163     -0.1226
     78  CA        -9.0890   -3.4650  -18.6970 C.3   163  HIS163      0.1752
     79  C        -10.6180   -3.6230  -18.7700 C.2   163  HIS163      0.2596
     80  O        -11.0860   -4.6370  -19.2480 O.2   163  HIS163     -0.2718
     81  CB        -8.5710   -3.2080  -20.1150 C.3   163  HIS163      0.0759
     82  CG        -9.1530   -1.9700  -20.7000 C.ar  163  HIS163      0.0818
     83  ND1       -9.1750   -0.7880  -19.9980 N.ar  163  HIS163     -0.2268
     84  CD2       -9.7760   -1.7280  -21.8740 C.ar  163  HIS163      0.1154
     85  CE1       -9.7830    0.1370  -20.7150 C.ar  163  HIS163      0.1986
     86  NE2      -10.1640   -0.4080  -21.8560 N.ar  163  HIS163     -0.2212
     87  N        -11.3780   -2.6030  -18.3580 N.am  164  HIS164     -0.1961
     88  CA       -12.8590   -2.6790  -18.3560 C.3   164  HIS164      0.1787
     89  C        -13.5640   -1.5630  -19.1330 C.2   164  HIS164      0.2620
     90  O        -14.6000   -1.8110  -19.7410 O.2   164  HIS164     -0.2715
     91  CB       -13.4510   -2.6800  -16.9290 C.3   164  HIS164      0.0785
     92  CG       -13.1760   -3.9190  -16.1270 C.ar  164  HIS164      0.0821
     93  ND1      -14.1830   -4.7570  -15.6710 N.ar  164  HIS164     -0.2267
     94  CD2      -12.0180   -4.4310  -15.6510 C.ar  164  HIS164      0.1154
     95  CE1      -13.6470   -5.7440  -14.9730 C.ar  164  HIS164      0.1986
     96  NE2      -12.3350   -5.5610  -14.9310 N.ar  164  HIS164     -0.2212
     97  N        -13.0580   -0.3310  -19.0640 N.am  165  MET165     -0.1963
     98  CA       -13.8320    0.7820  -19.6220 C.3   165  MET165      0.1736
     99  C        -13.0400    2.0020  -20.0490 C.2   165  MET165      0.2616
    100  O        -11.8860    2.1810  -19.6580 O.2   165  MET165     -0.2715
    101  CB       -14.9160    1.2100  -18.6420 C.3   165  MET165      0.0427
    102  CG       -14.3700    1.7150  -17.3640 C.3   165  MET165      0.0599
    103  SD       -15.6830    1.8020  -16.1480 S.3   165  MET165     -0.1393
    104  CE       -16.2920    3.4440  -16.4610 C.3   165  MET165      0.0692
    105  N        -13.6890    2.8300  -20.8660 N.am  166  GLU166     -0.1963
    106  CA       -13.1370    4.1040  -21.2720 C.3   166  GLU166      0.1733
    107  C        -14.0430    5.1980  -20.7340 C.2   166  GLU166      0.2616
    108  O        -15.2760    5.0780  -20.7710 O.2   166  GLU166     -0.2715
    109  CB       -13.0170    4.1940  -22.8060 C.3   166  GLU166      0.0429
    110  CG       -12.3670    5.4980  -23.2800 C.3   166  GLU166      0.1163
    111  CD       -12.0370    5.5110  -24.7720 C.2   166  GLU166      0.3649
    112  OE1      -12.6340    6.3470  -25.4930 O.co2 166  GLU166     -0.2457
    113  OE2      -11.1810    4.7190  -25.2290 O.co2 166  GLU166     -0.2457
    114  N        -13.4220    6.2470  -20.2080 N.am  167  LEU167     -0.1977
    115  CA       -14.1460    7.3800  -19.6290 C.3   167  LEU167      0.1596
    116  C        -14.3230    8.4740  -20.6750 C.2   167  LEU167      0.2287
    117  O        -13.7010    8.4070  -21.7370 O.2   167  LEU167     -0.2864
    118  CB       -13.3850    7.8890  -18.4010 C.3   167  LEU167      0.0297
    119  CG       -13.3690    6.8580  -17.2680 C.3   167  LEU167      0.0022
    120  CD1      -12.3640    7.2280  -16.2130 C.3   167  LEU167      0.0001
    121  CD2      -14.7470    6.7250  -16.6430 C.3   167  LEU167      0.0001
    122  N         -8.6530    5.5690  -19.3810 N.3   172  HIS172     -0.1241
    123  CA        -9.0810    4.1820  -19.2080 C.3   172  HIS172      0.1621
    124  C         -9.1400    3.7480  -17.7660 C.2   172  HIS172      0.2264
    125  O         -8.3710    4.2330  -16.9460 O.2   172  HIS172     -0.2867
    126  CB        -8.1780    3.2870  -20.0420 C.3   172  HIS172      0.0745
    127  CG        -8.2710    3.6200  -21.4930 C.ar  172  HIS172      0.0817
    128  ND1       -7.2800    4.2970  -22.1770 N.ar  172  HIS172     -0.2268
    129  CD2       -9.3020    3.4830  -22.3570 C.ar  172  HIS172      0.1154
    130  CE1       -7.6800    4.5180  -23.4170 C.ar  172  HIS172      0.1986
    131  NE2       -8.9050    4.0360  -23.5520 N.ar  172  HIS172     -0.2212
    132  N        -17.2280    2.1200  -11.4850 N.3   186  VAL186     -0.1231
    133  CA       -18.0890    0.9380  -11.4180 C.3   186  VAL186      0.1692
    134  C        -18.3090    0.3950  -12.8290 C.2   186  VAL186      0.2592
    135  O        -18.2340    1.1570  -13.7950 O.2   186  VAL186     -0.2718
    136  CB       -19.4480    1.2630  -10.7330 C.3   186  VAL186      0.0266
    137  CG1      -19.2310    1.6520   -9.2680 C.3   186  VAL186      0.0020
    138  CG2      -20.1970    2.3830  -11.4770 C.3   186  VAL186      0.0020
    139  N        -18.5470   -0.9150  -12.9530 N.am  187  ASP187     -0.1960
    140  CA       -18.8150   -1.5210  -14.2650 C.3   187  ASP187      0.1840
    141  C        -20.3070   -1.4670  -14.6080 C.2   187  ASP187      0.2622
    142  O        -20.9840   -2.4980  -14.7180 O.2   187  ASP187     -0.2715
    143  CB       -18.2390   -2.9500  -14.4010 C.3   187  ASP187      0.1450
    144  CG       -18.6220   -3.8730  -13.2480 C.2   187  ASP187      0.3671
    145  OD1      -19.2600   -3.4230  -12.2770 O.co2 187  ASP187     -0.2456
    146  OD2      -18.2580   -5.0650  -13.3120 O.co2 187  ASP187     -0.2456
    147  N        -20.8030   -0.2420  -14.7440 N.am  188  ARG188     -0.1963
    148  CA       -22.1520    0.0440  -15.2270 C.3   188  ARG188      0.1729
    149  C        -22.1610    1.4420  -15.8450 C.2   188  ARG188      0.2616
    150  O        -21.1880    2.2020  -15.6960 O.2   188  ARG188     -0.2715
    151  CB       -23.1990   -0.0680  -14.1060 C.3   188  ARG188      0.0348
    152  CG       -23.0020    0.8720  -12.9140 C.3   188  ARG188      0.0492
    153  CD       -24.0020    0.5700  -11.8110 C.3   188  ARG188      0.2205
    154  NE       -23.4520    0.8020  -10.4750 N.pl3 188  ARG188     -0.0865
    155  CZ       -23.6440    1.9020   -9.7500 C.cat 188  ARG188      0.5346
    156  NH1      -24.3810    2.9070  -10.2190 N.pl3 188  ARG188      0.1354
    157  NH2      -23.0950    2.0020   -8.5430 N.pl3 188  ARG188      0.1354
    158  N        -23.2440    1.7770  -16.5450 N.am  189  GLN189     -0.1977
    159  CA       -23.3730    3.1040  -17.1430 C.3   189  GLN189      0.1601
    160  C        -23.7890    4.1410  -16.1240 C.2   189  GLN189      0.2287
    161  O        -24.8970    4.1040  -15.5780 O.2   189  GLN189     -0.2864
    162  CB       -24.3630    3.1070  -18.3070 C.3   189  GLN189      0.0394
    163  CG       -23.9950    4.1070  -19.3950 C.3   189  GLN189      0.0908
    164  CD       -22.7130    3.7200  -20.1190 C.2   189  GLN189      0.2608
    165  OE1      -22.4710    2.5390  -20.3920 O.2   189  GLN189     -0.2717
    166  NE2      -21.8830    4.7140  -20.4270 N.am  189  GLN189     -0.0878
@<TRIPOS>BOND
     1    51    50    1
     2    50    52    1
     3    50    49    1
     4    49    46    1
     5    60    58   am
     6    56    55    2
     7    57    58    1
     8    57    54    1
     9    58    59    2
    10    53    54    1
    11    53    47   am
    12    55    54    1
    13    55    61   am
    14    46    47    1
    15    46    45    1
    16     6     5    1
    17    47    48    2
    18     5     7    1
    19     5     2    1
    20    45    36   am
    21    62    61    1
    22    62    63    1
    23    37    36    2
    24    36    35    1
    25    63    64    2
    26    63    65   am
    27     1     2    1
    28     2     3    1
    29     4     3    2
    30    65    66    1
    31    35    34    1
    32    35    38    1
    33     3     8   am
    34    69    66    1
    35    69    70    1
    36    66    67    1
    37   112   111   ar
    38     8     9    1
    39   113   111   ar
    40    38    39    1
    41     9    10    1
    42     9    12    1
    43    11    10    2
    44   111   110    1
    45    67    71   am
    46    67    68    2
    47    41    39   ar
    48    41    43   ar
    49    39    40   ar
    50    71    72    1
    51    12    13    1
    52   131   130   ar
    53   131   129   ar
    54   130   128   ar
    55   110   109    1
    56    43    44   ar
    57    40    42   ar
    58    74    73    2
    59   109   106    1
    60    13    14    1
    61    13    15    1
    62    72    73    1
    63    72    75    1
    64   129   127   ar
    65   128   127   ar
    66    44    42   ar
    67    75    76    1
    68    84    86   ar
    69    84    82   ar
    70    86    85   ar
    71   117   116    2
    72   127   126    1
    73   106   105    1
    74   106   107    1
    75   105    99   am
    76   108   107    2
    77   107   114   am
    78    85    83   ar
    79    82    81    1
    80    82    83   ar
    81   116   115    1
    82    25    23   ar
    83    25    24   ar
    84   166   164   am
    85   165   164    2
    86    31    30    1
    87    31    32    1
    88    23    21   ar
    89   114   115    1
    90   164   163    1
    91    81    78    1
    92    19    18    2
    93    99   100    2
    94    99    98    1
    95   126   123    1
    96    30    27    1
    97    90    89    2
    98   115   118    1
    99    98    97    1
   100    98   101    1
   101    24    22   ar
   102    26    27    1
   103   163   162    1
   104   122   123    1
   105    18    17    1
   106    80    79    2
   107   123   124    1
   108    89    97   am
   109    89    88    1
   110    21    22   ar
   111    21    20    1
   112    27    28    1
   113    32    33    1
   114    79    78    1
   115    79    87   am
   116    78    77    1
   117   101   102    1
   118   118   119    1
   119    87    88    1
   120    88    91    1
   121   162   159    1
   122    20    17    1
   123    28    29    2
   124    17    16    1
   125   124   125    2
   126   102   103    1
   127   119   121    1
   128   119   120    1
   129   159   158    1
   130   159   160    1
   131    91    92    1
   132   158   149   am
   133   104   103    1
   134    92    93   ar
   135    92    94   ar
   136   160   161    2
   137   149   150    2
   138   149   148    1
   139    93    95   ar
   140    94    96   ar
   141   148   147    1
   142   148   151    1
   143    95    96   ar
   144   147   141   am
   145   142   141    2
   146   141   140    1
   147   143   140    1
   148   143   144    1
   149   140   139    1
   150   151   152    1
   151   135   134    2
   152   146   144   ar
   153   144   145   ar
   154   139   134   am
   155   152   153    1
   156   134   133    1
   157   153   154    1
   158   132   133    1
   159   138   136    1
   160   133   136    1
   161   136   137    1
   162   154   155    2
   163   156   155    1
   164   155   157    1
