@<TRIPOS>MOLECULE
tmp/3szvA06.pdb
 137 131 0 0 0
SMALL
GASTEIGER

@<TRIPOS>ATOM
      1  N         13.0590  -37.5460   27.3390 N.3    87  LEU87      -0.1245
      2  CA        12.7660  -37.6580   25.9190 C.3    87  LEU87       0.1561
      3  C         11.8670  -36.5020   25.4990 C.2    87  LEU87       0.2260
      4  O         10.8680  -36.2100   26.1690 O.2    87  LEU87      -0.2867
      5  CB        12.0470  -38.9830   25.6440 C.3    87  LEU87       0.0270
      6  CG        11.5160  -39.1680   24.2200 C.3    87  LEU87       0.0019
      7  CD1       12.6560  -39.2480   23.2330 C.3    87  LEU87       0.0001
      8  CD2       10.6570  -40.4340   24.1410 C.3    87  LEU87       0.0001
      9  N         13.0130  -36.2790   17.4810 N.3   114  ALA114     -0.1245
     10  CA        13.0260  -36.8210   18.8260 C.3   114  ALA114      0.1562
     11  C         14.4370  -36.7180   19.3750 C.2   114  ALA114      0.2260
     12  O         15.4150  -37.0080   18.6660 O.2   114  ALA114     -0.2867
     13  CB        12.5500  -38.2710   18.8210 C.3   114  ALA114      0.0290
     14  N         16.7520  -37.6430   22.9060 N.3   116  LEU116     -0.1245
     15  CA        16.8350  -38.3680   24.1640 C.3   116  LEU116      0.1561
     16  C         18.0930  -37.9620   24.9090 C.2   116  LEU116      0.2260
     17  O         19.1790  -37.9080   24.3230 O.2   116  LEU116     -0.2867
     18  CB        16.8370  -39.8770   23.8990 C.3   116  LEU116      0.0270
     19  CG        16.9450  -40.7990   25.1130 C.3   116  LEU116      0.0019
     20  CD1       15.7660  -40.6210   26.0710 C.3   116  LEU116      0.0001
     21  CD2       17.0500  -42.2400   24.6390 C.3   116  LEU116      0.0001
     22  N         20.9830  -38.7740   22.0590 N.3   128  GLY128     -0.1210
     23  CA        20.7520  -39.2320   20.7070 C.3   128  GLY128      0.1956
     24  C         19.5520  -38.5160   20.1400 C.2   128  GLY128      0.2612
     25  O         18.6780  -38.0690   20.8850 O.2   128  GLY128     -0.2717
     26  N         19.5050  -38.3970   18.8200 N.am  129  ALA129     -0.1965
     27  CA        18.3640  -37.7660   18.1840 C.3   129  ALA129      0.1728
     28  C         18.1030  -38.3550   16.8150 C.2   129  ALA129      0.2616
     29  O         19.0300  -38.8300   16.1280 O.2   129  ALA129     -0.2715
     30  CB        18.5810  -36.2550   18.0710 C.3   129  ALA129      0.0334
     31  N         16.8310  -38.3230   16.4360 N.am  130  HIS130     -0.1973
     32  CA        16.4000  -38.5260   15.0650 C.3   130  HIS130      0.1656
     33  C         15.6340  -37.2800   14.6520 C.2   130  HIS130      0.2291
     34  O         14.5930  -36.9760   15.2380 O.2   130  HIS130     -0.2864
     35  CB        15.4950  -39.7470   14.9450 C.3   130  HIS130      0.0771
     36  CG        14.8490  -39.8660   13.6030 C.ar  130  HIS130      0.0820
     37  ND1       15.5340  -40.2930   12.4860 N.ar  130  HIS130     -0.2267
     38  CD2       13.5910  -39.5850   13.1900 C.ar  130  HIS130      0.1154
     39  CE1       14.7210  -40.2820   11.4450 C.ar  130  HIS130      0.1986
     40  NE2       13.5360  -39.8550   11.8440 N.ar  130  HIS130     -0.2212
     41  N         20.5070  -38.4300   12.1130 N.3   158  ASP158     -0.1225
     42  CA        20.5460  -39.2820   13.2780 C.3   158  ASP158      0.1805
     43  C         21.9060  -39.1640   13.9380 C.2   158  ASP158      0.2598
     44  O         22.9310  -39.1590   13.2570 O.2   158  ASP158     -0.2718
     45  CB        20.3150  -40.7380   12.8730 C.3   158  ASP158      0.1424
     46  CG        18.9310  -40.9640   12.3150 C.2   158  ASP158      0.3668
     47  OD1       17.9770  -40.9800   13.1100 O.co2 158  ASP158     -0.2456
     48  OD2       18.7920  -41.1360   11.0850 O.co2 158  ASP158     -0.2456
     49  N         21.9410  -39.0890   15.2630 N.am  159  PHE159     -0.1962
     50  CA        23.2260  -39.1430   15.9580 C.3   159  PHE159      0.1771
     51  C         23.0540  -39.7460   17.3390 C.2   159  PHE159      0.2619
     52  O         21.9560  -39.7860   17.9030 O.2   159  PHE159     -0.2715
     53  CB        23.8720  -37.7600   16.0760 C.3   159  PHE159      0.0574
     54  CG        23.4490  -36.9840   17.3150 C.ar  159  PHE159     -0.0200
     55  CD1       24.1890  -37.0740   18.4870 C.ar  159  PHE159     -0.0042
     56  CD2       22.3190  -36.1750   17.3040 C.ar  159  PHE159     -0.0042
     57  CE1       23.8160  -36.3770   19.6330 C.ar  159  PHE159     -0.0003
     58  CE2       21.9350  -35.4750   18.4560 C.ar  159  PHE159     -0.0003
     59  CZ        22.6880  -35.5790   19.6240 C.ar  159  PHE159     -0.0000
     60  N         24.1560  -40.2450   17.8730 N.am  160  ALA160     -0.1977
     61  CA        24.2420  -40.5840   19.2780 C.3   160  ALA160      0.1597
     62  C         25.6170  -40.1750   19.7470 C.2   160  ALA160      0.2287
     63  O         26.5790  -40.1550   18.9630 O.2   160  ALA160     -0.2864
     64  CB        24.0010  -42.0720   19.5100 C.3   160  ALA160      0.0319
     65  N         28.6200  -39.6560   16.9950 N.3   176  GLN176     -0.1231
     66  CA        28.6040  -40.2320   15.6600 C.3   176  GLN176      0.1698
     67  C         27.2470  -39.9710   15.0310 C.2   176  GLN176      0.2593
     68  O         26.2110  -40.1740   15.6690 O.2   176  GLN176     -0.2718
     69  CB        28.8600  -41.7270   15.7750 C.3   176  GLN176      0.0381
     70  CG        28.8860  -42.4860   14.4690 C.3   176  GLN176      0.0905
     71  CD        29.3450  -43.9200   14.6660 C.2   176  GLN176      0.2608
     72  OE1       30.3090  -44.1810   15.3910 O.2   176  GLN176     -0.2717
     73  NE2       28.6460  -44.8570   14.0420 N.am  176  GLN176     -0.0878
     74  N         27.2400  -39.5300   13.7820 N.am  177  GLY177     -0.1942
     75  CA        26.0030  -39.0870   13.1670 C.3   177  GLY177      0.2014
     76  C         25.9780  -39.2770   11.6660 C.2   177  GLY177      0.2638
     77  O         26.9930  -39.5790   11.0400 O.2   177  GLY177     -0.2714
     78  N         24.7960  -39.0920   11.0970 N.am  178  ARG178     -0.1977
     79  CA        24.5830  -39.2840    9.6760 C.3   178  ARG178      0.1597
     80  C         23.4890  -38.3490    9.2100 C.2   178  ARG178      0.2287
     81  O         22.3860  -38.3360    9.7750 O.2   178  ARG178     -0.2864
     82  CB        24.1650  -40.7330    9.4040 C.3   178  ARG178      0.0334
     83  CG        23.7680  -41.0130    7.9610 C.3   178  ARG178      0.0492
     84  CD        23.2140  -42.4210    7.7800 C.3   178  ARG178      0.2205
     85  NE        21.8920  -42.5630    8.3870 N.pl3 178  ARG178     -0.0865
     86  CZ        21.1520  -43.6640    8.3320 C.cat 178  ARG178      0.5346
     87  NH1       21.5970  -44.7380    7.6840 N.pl3 178  ARG178      0.1354
     88  NH2       19.9630  -43.6910    8.9240 N.pl3 178  ARG178      0.1354
     89  N         28.2760  -38.9240    6.5330 N.3   184  ARG184     -0.1231
     90  CA        28.4510  -39.4890    7.8660 C.3   184  ARG184      0.1694
     91  C         29.5500  -38.6730    8.5270 C.2   184  ARG184      0.2592
     92  O         30.5260  -38.2960    7.8750 O.2   184  ARG184     -0.2718
     93  CB        28.8900  -40.9520    7.7950 C.3   184  ARG184      0.0321
     94  CG        27.9400  -41.8700    7.0430 C.3   184  ARG184      0.0489
     95  CD        28.5840  -43.2500    6.8090 C.3   184  ARG184      0.2205
     96  NE        27.7260  -44.0910    5.9890 N.pl3 184  ARG184     -0.0865
     97  CZ        27.9880  -45.3600    5.6950 C.cat 184  ARG184      0.5346
     98  NH1       29.0860  -45.9360    6.1640 N.pl3 184  ARG184      0.1354
     99  NH2       27.1490  -46.0560    4.9390 N.pl3 184  ARG184      0.1354
    100  N         29.4280  -38.4200    9.8210 N.am  185  GLN185     -0.1966
    101  CA        30.4410  -37.6470   10.5260 C.3   185  GLN185      0.1733
    102  C         30.6090  -38.1490   11.9520 C.2   185  GLN185      0.2617
    103  O         29.6290  -38.4640   12.6240 O.2   185  GLN185     -0.2715
    104  CB        30.0500  -36.1730   10.5340 C.3   185  GLN185      0.0408
    105  CG        31.1220  -35.2160   11.0460 C.3   185  GLN185      0.0908
    106  CD        30.6840  -33.7810   10.8900 C.2   185  GLN185      0.2608
    107  OE1       29.5650  -33.4350   11.2380 O.2   185  GLN185     -0.2717
    108  NE2       31.5520  -32.9360   10.3310 N.am  185  GLN185     -0.0878
    109  N         31.8530  -38.2340   12.4000 N.am  186  THR186     -0.1951
    110  CA        32.1640  -38.5980   13.7760 C.3   186  THR186      0.1897
    111  C         33.0280  -37.5130   14.3770 C.2   186  THR186      0.2313
    112  O         33.9210  -36.9880   13.7040 O.2   186  THR186     -0.2863
    113  CB        32.8850  -39.9410   13.8350 C.3   186  THR186      0.1794
    114  OG1       32.0190  -40.9420   13.2820 O.3   186  THR186     -0.2208
    115  CG2       33.2460  -40.3200   15.2870 C.3   186  THR186      0.0378
    116  N         35.7500  -36.2090   11.5070 N.3   208  ARG208     -0.1231
    117  CA        35.9600  -36.7230   10.1530 C.3   208  ARG208      0.1694
    118  C         34.6210  -37.0270    9.5230 C.2   208  ARG208      0.2592
    119  O         33.7220  -37.5540   10.1800 O.2   208  ARG208     -0.2718
    120  CB        36.8190  -37.9840   10.1590 C.3   208  ARG208      0.0321
    121  CG        37.0700  -38.5200    8.7790 C.3   208  ARG208      0.0489
    122  CD        37.9240  -39.7620    8.8160 C.3   208  ARG208      0.2205
    123  NE        38.3310  -40.3140    7.5100 N.pl3 208  ARG208     -0.0865
    124  CZ        38.1340  -39.7830    6.2920 C.cat 208  ARG208      0.5346
    125  NH1       37.4980  -38.6310    6.1000 N.pl3 208  ARG208      0.1354
    126  NH2       38.5890  -40.4310    5.2240 N.pl3 208  ARG208      0.1354
    127  N         34.4890  -36.7020    8.2370 N.am  209  ALA209     -0.1966
    128  CA        33.2620  -36.9620    7.5060 C.3   209  ALA209      0.1728
    129  C         33.5500  -37.6600    6.1830 C.2   209  ALA209      0.2616
    130  O         34.5910  -37.4510    5.5580 O.2   209  ALA209     -0.2715
    131  CB        32.5180  -35.6560    7.2440 C.3   209  ALA209      0.0334
    132  N         32.5960  -38.4750    5.7460 N.am  210  SER210     -0.1950
    133  CA        32.6430  -39.1320    4.4510 C.3   210  SER210      0.1924
    134  C         31.2240  -39.1430    3.8920 C.2   210  SER210      0.2314
    135  O         30.2820  -38.6920    4.5630 O.2   210  SER210     -0.2863
    136  CB        33.1740  -40.5520    4.6190 C.3   210  SER210      0.2116
    137  OG        32.2650  -41.3350    5.3620 O.3   210  SER210     -0.2180
@<TRIPOS>BOND
     1   134   133    1
     2   134   135    2
     3   133   136    1
     4   133   132    1
     5   136   137    1
     6    99    97    1
     7   126   124    1
     8   130   129    2
     9    97    96    2
    10    97    98    1
    11   132   129   am
    12    96    95    1
    13   125   124    1
    14   129   128    1
    15   124   123    2
    16    89    90    1
    17    95    94    1
    18    94    93    1
    19   131   128    1
    20   128   127    1
    21   123   122    1
    22    87    86    1
    23    84    83    1
    24    84    85    1
    25    93    90    1
    26    90    91    1
    27    92    91    2
    28    83    82    1
    29   127   118   am
    30    86    85    2
    31    86    88    1
    32    91   100   am
    33   121   122    1
    34   121   120    1
    35    80    79    1
    36    80    81    2
    37    82    79    1
    38   118   117    1
    39   118   119    2
    40    79    78    1
    41   100   101    1
    42   117   120    1
    43   117   116    1
    44   108   106   am
    45   101   104    1
    46   101   102    1
    47   104   105    1
    48   106   105    1
    49   106   107    2
    50    77    76    2
    51    48    46   ar
    52    78    76   am
    53    39    40   ar
    54    39    37   ar
    55    76    75    1
    56    40    38   ar
    57   102   109   am
    58   102   103    2
    59    41    42    1
    60    46    45    1
    61    46    47   ar
    62   109   110    1
    63    37    36   ar
    64    45    42    1
    65    75    74    1
    66    38    36   ar
    67    44    43    2
    68    42    43    1
    69   114   113    1
    70    36    35    1
    71   112   111    2
    72   110   113    1
    73   110   111    1
    74    74    67   am
    75   113   115    1
    76    43    49   am
    77    73    71   am
    78    70    71    1
    79    70    69    1
    80    33    32    1
    81    33    34    2
    82    71    72    2
    83    35    32    1
    84    67    66    1
    85    67    68    2
    86    32    31    1
    87    49    50    1
    88    66    69    1
    89    66    65    1
    90    50    53    1
    91    50    51    1
    92    53    54    1
    93    29    28    2
    94    31    28   am
    95    28    27    1
    96    56    54   ar
    97    56    58   ar
    98    54    55   ar
    99    51    60   am
   100    51    52    2
   101     9    10    1
   102    60    61    1
   103    30    27    1
   104    27    26    1
   105    58    59   ar
   106    55    57   ar
   107    12    11    2
   108    26    24   am
   109    13    10    1
   110    10    11    1
   111    63    62    2
   112    61    64    1
   113    61    62    1
   114    59    57   ar
   115    24    23    1
   116    24    25    2
   117    23    22    1
   118    14    15    1
   119     7     6    1
   120    18    15    1
   121    18    19    1
   122     8     6    1
   123    15    16    1
   124     6     5    1
   125    17    16    2
   126    21    19    1
   127    19    20    1
   128     3     2    1
   129     3     4    2
   130     5     2    1
   131     2     1    1
