@<TRIPOS>MOLECULE
tmp/3szvA00.pdb
 105 99 0 0 0
SMALL
GASTEIGER

@<TRIPOS>ATOM
      1  N         28.5070  -39.1720   33.1910 N.3   124  LEU124     -0.1245
      2  CA        28.2640  -39.5410   31.8010 C.3   124  LEU124      0.1561
      3  C         26.9200  -39.0400   31.3000 C.2   124  LEU124      0.2260
      4  O         25.8730  -39.3300   31.8980 O.2   124  LEU124     -0.2867
      5  CB        28.3400  -41.0590   31.6250 C.3   124  LEU124      0.0270
      6  CG        28.0560  -41.5700   30.2080 C.3   124  LEU124      0.0019
      7  CD1       29.1680  -41.1570   29.2290 C.3   124  LEU124      0.0001
      8  CD2       27.9050  -43.0790   30.2140 C.3   124  LEU124      0.0001
      9  N         24.6140  -39.2730   27.9200 N.3   126  LEU126     -0.1245
     10  CA        24.3930  -39.9010   26.6310 C.3   126  LEU126      0.1561
     11  C         23.2370  -39.2050   25.9460 C.2   126  LEU126      0.2260
     12  O         22.2030  -38.9620   26.5680 O.2   126  LEU126     -0.2867
     13  CB        24.0800  -41.3870   26.7990 C.3   126  LEU126      0.0270
     14  CG        25.1530  -42.2450   27.4560 C.3   126  LEU126      0.0019
     15  CD1       24.5850  -43.6240   27.7720 C.3   126  LEU126      0.0001
     16  CD2       26.3540  -42.3490   26.5380 C.3   126  LEU126      0.0001
     17  N         21.9410  -39.0890   15.2630 N.3   159  PHE159     -0.1227
     18  CA        23.2260  -39.1430   15.9580 C.3   159  PHE159      0.1736
     19  C         23.0540  -39.7460   17.3390 C.2   159  PHE159      0.2595
     20  O         21.9560  -39.7860   17.9030 O.2   159  PHE159     -0.2718
     21  CB        23.8720  -37.7600   16.0760 C.3   159  PHE159      0.0547
     22  CG        23.4490  -36.9840   17.3150 C.ar  159  PHE159     -0.0202
     23  CD1       24.1890  -37.0740   18.4870 C.ar  159  PHE159     -0.0042
     24  CD2       22.3190  -36.1750   17.3040 C.ar  159  PHE159     -0.0042
     25  CE1       23.8160  -36.3770   19.6330 C.ar  159  PHE159     -0.0003
     26  CE2       21.9350  -35.4750   18.4560 C.ar  159  PHE159     -0.0003
     27  CZ        22.6880  -35.5790   19.6240 C.ar  159  PHE159     -0.0000
     28  N         24.1560  -40.2450   17.8730 N.am  160  ALA160     -0.1966
     29  CA        24.2420  -40.5840   19.2780 C.3   160  ALA160      0.1728
     30  C         25.6170  -40.1750   19.7470 C.2   160  ALA160      0.2617
     31  O         26.5790  -40.1550   18.9630 O.2   160  ALA160     -0.2715
     32  CB        24.0010  -42.0720   19.5100 C.3   160  ALA160      0.0334
     33  N         25.7360  -39.8530   21.0230 N.am  161  GLY161     -0.1940
     34  CA        27.0190  -39.4060   21.5310 C.3   161  GLY161      0.2014
     35  C         27.0820  -39.4350   23.0400 C.2   161  GLY161      0.2639
     36  O         26.0510  -39.4030   23.7360 O.2   161  GLY161     -0.2714
     37  N         28.3030  -39.4970   23.5480 N.am  162  GLY162     -0.1954
     38  CA        28.5410  -39.4850   24.9740 C.3   162  GLY162      0.1869
     39  C         29.5240  -38.4080   25.3560 C.2   162  GLY162      0.2309
     40  O         30.4970  -38.1570   24.6250 O.2   162  GLY162     -0.2863
     41  N         31.7840  -37.7380   28.7110 N.3   164  TYR164     -0.1241
     42  CA        32.1720  -38.4730   29.8990 C.3   164  TYR164      0.1605
     43  C         33.2240  -37.7330   30.7090 C.2   164  TYR164      0.2264
     44  O         34.3210  -37.4520   30.2080 O.2   164  TYR164     -0.2867
     45  CB        32.6810  -39.8750   29.5260 C.3   164  TYR164      0.0534
     46  CG        33.0630  -40.6690   30.7540 C.ar  164  TYR164     -0.0201
     47  CD1       32.2040  -40.7340   31.8380 C.ar  164  TYR164     -0.0009
     48  CD2       34.2830  -41.3220   30.8500 C.ar  164  TYR164     -0.0009
     49  CE1       32.5340  -41.4330   32.9810 C.ar  164  TYR164      0.0417
     50  CE2       34.6260  -42.0320   32.0030 C.ar  164  TYR164      0.0417
     51  CZ        33.7410  -42.0800   33.0620 C.ar  164  TYR164      0.1957
     52  OH        34.0520  -42.7730   34.2180 O.3   164  TYR164     -0.2866
     53  N         35.9750  -37.9790   32.7600 N.3   166  LEU166     -0.1245
     54  CA        37.0060  -38.9400   33.1780 C.3   166  LEU166      0.1561
     55  C         37.5250  -38.5910   34.5600 C.2   166  LEU166      0.2260
     56  O         37.8630  -39.4720   35.3490 O.2   166  LEU166     -0.2867
     57  CB        38.1670  -38.9260   32.1850 C.3   166  LEU166      0.0270
     58  CG        37.8390  -39.1130   30.7030 C.3   166  LEU166      0.0019
     59  CD1       39.1170  -39.1360   29.8830 C.3   166  LEU166      0.0001
     60  CD2       37.0630  -40.3940   30.5020 C.3   166  LEU166      0.0001
     61  N         35.7670  -36.2230   28.0870 N.3   172  ALA172     -0.1231
     62  CA        35.9920  -36.7930   26.7660 C.3   172  ALA172      0.1694
     63  C         34.6500  -36.9750   26.0860 C.2   172  ALA172      0.2593
     64  O         33.6930  -37.4270   26.7180 O.2   172  ALA172     -0.2718
     65  CB        36.6900  -38.1350   26.8960 C.3   172  ALA172      0.0304
     66  N         34.5790  -36.6470   24.8010 N.am  173  SER173     -0.1938
     67  CA        33.3220  -36.7470   24.0710 C.3   173  SER173      0.2055
     68  C         33.5060  -37.5020   22.7700 C.2   173  SER173      0.2642
     69  O         34.5290  -37.3630   22.0970 O.2   173  SER173     -0.2714
     70  CB        32.7620  -35.3550   23.7780 C.3   173  SER173      0.2130
     71  OG        32.4180  -34.6900   24.9930 O.3   173  SER173     -0.2179
     72  N         32.5190  -38.3240   22.4290 N.am  174  LEU174     -0.1977
     73  CA        32.5110  -39.0400   21.1580 C.3   174  LEU174      0.1596
     74  C         31.0780  -39.0520   20.6350 C.2   174  LEU174      0.2287
     75  O         30.1690  -39.5670   21.3080 O.2   174  LEU174     -0.2864
     76  CB        33.0450  -40.4660   21.3540 C.3   174  LEU174      0.0297
     77  CG        33.1530  -41.3140   20.0900 C.3   174  LEU174      0.0022
     78  CD1       34.2360  -40.7540   19.1690 C.3   174  LEU174      0.0001
     79  CD2       33.4500  -42.7480   20.4610 C.3   174  LEU174      0.0001
     80  N         28.6200  -39.6560   16.9950 N.3   176  GLN176     -0.1245
     81  CA        28.6040  -40.2320   15.6600 C.3   176  GLN176      0.1566
     82  C         27.2470  -39.9710   15.0310 C.2   176  GLN176      0.2260
     83  O         26.2110  -40.1740   15.6690 O.2   176  GLN176     -0.2867
     84  CB        28.8600  -41.7270   15.7750 C.3   176  GLN176      0.0367
     85  CG        28.8860  -42.4860   14.4690 C.3   176  GLN176      0.0905
     86  CD        29.3450  -43.9200   14.6660 C.2   176  GLN176      0.2608
     87  OE1       30.3090  -44.1810   15.3910 O.2   176  GLN176     -0.2717
     88  NE2       28.6460  -44.8570   14.0420 N.am  176  GLN176     -0.0878
     89  N         35.2970  -36.4130   17.9180 N.3   188  ALA188     -0.1231
     90  CA        35.8970  -36.7110   19.2130 C.3   188  ALA188      0.1694
     91  C         36.3840  -35.4080   19.8130 C.2   188  ALA188      0.2593
     92  O         36.9140  -34.5530   19.1080 O.2   188  ALA188     -0.2718
     93  CB        37.0500  -37.7030   19.0620 C.3   188  ALA188      0.0304
     94  N         36.2100  -35.2520   21.1180 N.am  189  GLY189     -0.1942
     95  CA        36.6370  -34.0380   21.7840 C.3   189  GLY189      0.2014
     96  C         37.1990  -34.3180   23.1610 C.2   189  GLY189      0.2638
     97  O         36.8460  -35.3060   23.8020 O.2   189  GLY189     -0.2714
     98  N         38.1040  -33.4540   23.6040 N.am  190  LEU190     -0.1977
     99  CA        38.6600  -33.5660   24.9440 C.3   190  LEU190      0.1596
    100  C         38.7060  -32.1580   25.4740 C.2   190  LEU190      0.2287
    101  O         39.2670  -31.2690   24.8260 O.2   190  LEU190     -0.2864
    102  CB        40.0770  -34.1550   24.8760 C.3   190  LEU190      0.0297
    103  CG        40.6850  -34.6970   26.1680 C.3   190  LEU190      0.0022
    104  CD1       39.8070  -35.7880   26.7770 C.3   190  LEU190      0.0001
    105  CD2       42.0980  -35.2270   25.9130 C.3   190  LEU190      0.0001
@<TRIPOS>BOND
     1    88    86   am
     2    85    86    1
     3    85    84    1
     4    86    87    2
     5    82    81    1
     6    82    83    2
     7    17    18    1
     8    81    84    1
     9    81    80    1
    10    18    21    1
    11    18    19    1
    12    21    22    1
    13    24    22   ar
    14    24    26   ar
    15    22    23   ar
    16    19    28   am
    17    19    20    2
    18    28    29    1
    19    89    90    1
    20    26    27   ar
    21    23    25   ar
    22    31    30    2
    23    93    90    1
    24    92    91    2
    25    78    77    1
    26    90    91    1
    27    29    32    1
    28    29    30    1
    29    27    25   ar
    30    30    33   am
    31    91    94   am
    32    77    79    1
    33    77    76    1
    34    74    73    1
    35    74    75    2
    36    33    34    1
    37    94    95    1
    38    73    76    1
    39    73    72    1
    40    34    35    1
    41    95    96    1
    42    69    68    2
    43    72    68   am
    44    68    67    1
    45    35    37   am
    46    35    36    2
    47    96    98   am
    48    96    97    2
    49    37    38    1
    50    98    99    1
    51    70    67    1
    52    70    71    1
    53    67    66    1
    54    40    39    2
    55    66    63   am
    56   101   100    2
    57   102    99    1
    58   102   103    1
    59    99   100    1
    60    38    39    1
    61   105   103    1
    62    11    12    2
    63    11    10    1
    64    63    64    2
    65    63    62    1
    66   103   104    1
    67    16    14    1
    68    10    13    1
    69    10     9    1
    70    62    65    1
    71    62    61    1
    72    13    14    1
    73    14    15    1
    74    41    42    1
    75     7     6    1
    76    45    42    1
    77    45    46    1
    78    59    58    1
    79    42    43    1
    80     6     8    1
    81     6     5    1
    82    44    43    2
    83    60    58    1
    84    58    57    1
    85    46    48   ar
    86    46    47   ar
    87    48    50   ar
    88     3     2    1
    89     3     4    2
    90     5     2    1
    91     2     1    1
    92    47    49   ar
    93    50    51   ar
    94    57    54    1
    95    53    54    1
    96    49    51   ar
    97    51    52    1
    98    54    55    1
    99    55    56    2
