@<TRIPOS>MOLECULE
tmp/3szvA02.pdb
 88 84 0 0 0
SMALL
GASTEIGER

@<TRIPOS>ATOM
      1  N         -5.8040  -40.3580   38.8340 N.3     3  LEU3       -0.1231
      2  CA        -4.4240  -40.1070   38.4070 C.3     3  LEU3        0.1693
      3  C         -4.3250  -39.3610   37.0820 C.2     3  LEU3        0.2592
      4  O         -3.4250  -38.5390   36.9000 O.2     3  LEU3       -0.2718
      5  CB        -3.6110  -41.4070   38.3410 C.3     3  LEU3        0.0284
      6  CG        -3.3320  -42.1060   39.6750 C.3     3  LEU3        0.0019
      7  CD1       -2.4060  -43.3000   39.4800 C.3     3  LEU3        0.0001
      8  CD2       -2.7410  -41.1390   40.6870 C.3     3  LEU3        0.0001
      9  N         -5.2280  -39.6430   36.1520 N.am    4  TYR4       -0.1976
     10  CA        -5.1910  -38.9430   34.8810 C.3     4  TYR4        0.1639
     11  C         -5.6170  -37.4820   35.0460 C.2     4  TYR4        0.2290
     12  O         -4.9360  -36.5770   34.5710 O.2     4  TYR4       -0.2864
     13  CB        -6.0420  -39.6310   33.8190 C.3     4  TYR4        0.0560
     14  CG        -5.6760  -39.1770   32.4240 C.ar    4  TYR4       -0.0198
     15  CD1       -4.7190  -39.8560   31.6810 C.ar    4  TYR4       -0.0009
     16  CD2       -6.2600  -38.0470   31.8660 C.ar    4  TYR4       -0.0009
     17  CE1       -4.3710  -39.4340   30.4070 C.ar    4  TYR4        0.0417
     18  CE2       -5.9220  -37.6170   30.5930 C.ar    4  TYR4        0.0417
     19  CZ        -4.9780  -38.3140   29.8720 C.ar    4  TYR4        0.1957
     20  OH        -4.6360  -37.8900   28.6080 O.3     4  TYR4       -0.2866
     21  N         -2.9320  -35.7180   36.8050 N.3     7  GLY7       -0.1210
     22  CA        -1.7970  -35.5320   35.9120 C.3     7  GLY7        0.1956
     23  C         -1.9180  -34.2550   35.1020 C.2     7  GLY7        0.2611
     24  O         -0.9680  -33.4810   34.9990 O.2     7  GLY7       -0.2717
     25  N         -3.0960  -34.0240   34.5340 N.am    8  LEU8       -0.1979
     26  CA        -3.3180  -32.8100   33.7550 C.3     8  LEU8        0.1596
     27  C         -3.1950  -31.5510   34.6090 C.2     8  LEU8        0.2287
     28  O         -2.6890  -30.5290   34.1380 O.2     8  LEU8       -0.2864
     29  CB        -4.6800  -32.8530   33.0610 C.3     8  LEU8        0.0297
     30  CG        -4.8190  -33.8770   31.9410 C.3     8  LEU8        0.0022
     31  CD1       -6.2640  -33.9150   31.4490 C.3     8  LEU8        0.0001
     32  CD2       -3.8480  -33.5480   30.8010 C.3     8  LEU8        0.0001
     33  N          0.6090  -30.9820   35.3180 N.3    11  LEU11      -0.1245
     34  CA         1.2760  -30.3480   34.1670 C.3    11  LEU11       0.1561
     35  C          1.2630  -28.8310   34.2970 C.2    11  LEU11       0.2260
     36  O          2.2520  -28.1480   34.0020 O.2    11  LEU11      -0.2867
     37  CB         0.5910  -30.7390   32.8500 C.3    11  LEU11       0.0270
     38  CG         1.2340  -31.8550   32.0260 C.3    11  LEU11       0.0019
     39  CD1        1.2240  -33.1740   32.7710 C.3    11  LEU11       0.0001
     40  CD2        0.5510  -31.9940   30.6670 C.3    11  LEU11       0.0001
     41  N          3.5500  -35.1410   34.8750 N.3    47  SER47      -0.1202
     42  CA         2.6270  -35.9700   35.6460 C.3    47  SER47       0.2020
     43  C          3.4090  -36.8790   36.6020 C.2    47  SER47       0.2619
     44  O          4.5100  -37.3470   36.2760 O.2    47  SER47      -0.2717
     45  CB         1.7390  -36.7930   34.7110 C.3    47  SER47       0.2103
     46  OG         2.5170  -37.6000   33.8450 O.3    47  SER47      -0.2182
     47  N          2.8540  -37.1090   37.7900 N.am   48  GLU48      -0.1965
     48  CA         3.5000  -37.9380   38.7970 C.3    48  GLU48       0.1733
     49  C          3.6070  -39.3780   38.3290 C.2    48  GLU48       0.2616
     50  O          2.7630  -39.8580   37.5700 O.2    48  GLU48      -0.2715
     51  CB         2.7030  -37.8870   40.1030 C.3    48  GLU48       0.0429
     52  CG         2.7340  -36.5400   40.7990 C.3    48  GLU48       0.1163
     53  CD         4.0130  -36.3220   41.5810 C.2    48  GLU48       0.3649
     54  OE1        4.0240  -36.6290   42.7930 O.co2  48  GLU48      -0.2457
     55  OE2        5.0040  -35.8440   40.9870 O.co2  48  GLU48      -0.2457
     56  N          4.6420  -40.0700   38.7940 N.am   49  GLY49      -0.1955
     57  CA         4.8260  -41.4690   38.4620 C.3    49  GLY49       0.1869
     58  C          6.2370  -41.8150   38.0350 C.2    49  GLY49       0.2309
     59  O          7.0590  -40.9280   37.7990 O.2    49  GLY49      -0.2863
     60  N          7.2240  -42.9620   35.2370 N.3    51  VAL51      -0.1245
     61  CA         7.3780  -42.2200   33.9960 C.3    51  VAL51       0.1561
     62  C          6.4610  -41.0110   34.0460 C.2    51  VAL51       0.2260
     63  O          5.2470  -41.1450   34.2340 O.2    51  VAL51      -0.2867
     64  CB         7.0290  -43.0710   32.7680 C.3    51  VAL51       0.0252
     65  CG1        7.2940  -42.2830   31.4910 C.3    51  VAL51       0.0019
     66  CG2        7.8320  -44.3610   32.7770 C.3    51  VAL51       0.0019
     67  N          4.9860  -37.4460   32.2300 N.3    53  PHE53      -0.1227
     68  CA         4.7110  -36.8940   30.9100 C.3    53  PHE53       0.1736
     69  C          4.4520  -35.4010   30.9890 C.2    53  PHE53       0.2596
     70  O          3.9500  -34.8910   32.0010 O.2    53  PHE53      -0.2718
     71  CB         3.5170  -37.6180   30.2710 C.3    53  PHE53       0.0547
     72  CG         3.7400  -39.0870   30.0870 C.ar   53  PHE53      -0.0202
     73  CD1        4.5160  -39.5560   29.0430 C.ar   53  PHE53      -0.0042
     74  CD2        3.1860  -40.0040   30.9660 C.ar   53  PHE53      -0.0042
     75  CE1        4.7330  -40.9050   28.8700 C.ar   53  PHE53      -0.0003
     76  CE2        3.4030  -41.3570   30.7990 C.ar   53  PHE53      -0.0003
     77  CZ         4.1770  -41.8090   29.7480 C.ar   53  PHE53      -0.0000
     78  N          4.7850  -34.6930   29.9170 N.am   54  GLY54      -0.1942
     79  CA         4.5530  -33.2650   29.8680 C.3    54  GLY54       0.2014
     80  C          4.4750  -32.7690   28.4430 C.2    54  GLY54       0.2638
     81  O          4.5650  -33.5570   27.4980 O.2    54  GLY54      -0.2714
     82  N          4.3010  -31.4630   28.3020 N.am   55  VAL55      -0.1977
     83  CA         4.2840  -30.8310   26.9870 C.3    55  VAL55       0.1596
     84  C          4.8560  -29.4250   27.0940 C.2    55  VAL55       0.2287
     85  O          4.5470  -28.6800   28.0270 O.2    55  VAL55      -0.2864
     86  CB         2.8610  -30.7790   26.4100 C.3    55  VAL55       0.0276
     87  CG1        1.9390  -29.9920   27.3340 C.3    55  VAL55       0.0022
     88  CG2        2.8750  -30.1600   25.0170 C.3    55  VAL55       0.0022
@<TRIPOS>BOND
     1    88    86    1
     2    86    83    1
     3    86    87    1
     4    83    84    1
     5    83    82    1
     6    84    85    2
     7    81    80    2
     8    82    80   am
     9    80    79    1
    10    20    19    1
    11    75    73   ar
    12    75    77   ar
    13    73    72   ar
    14    77    76   ar
    15    79    78    1
    16    19    17   ar
    17    19    18   ar
    18    78    69   am
    19    72    71    1
    20    72    74   ar
    21    71    68    1
    22    17    15   ar
    23    18    16   ar
    24    40    38    1
    25    76    74   ar
    26    32    30    1
    27    68    69    1
    28    68    67    1
    29    69    70    2
    30    31    30    1
    31    65    64    1
    32    15    14   ar
    33    16    14   ar
    34    30    29    1
    35    38    39    1
    36    38    37    1
    37    14    13    1
    38    64    66    1
    39    64    61    1
    40    37    34    1
    41    29    26    1
    42    26    25    1
    43    26    27    1
    44    13    10    1
    45    46    45    1
    46    61    62    1
    47    61    60    1
    48    36    35    2
    49    62    63    2
    50    28    27    2
    51    34    35    1
    52    34    33    1
    53    25    23   am
    54    12    11    2
    55    45    42    1
    56    41    42    1
    57    10    11    1
    58    10     9    1
    59    24    23    2
    60    23    22    1
    61    42    43    1
    62    22    21    1
    63     9     3   am
    64    44    43    2
    65    43    47   am
    66     4     3    2
    67     3     2    1
    68    50    49    2
    69    47    48    1
    70    59    58    2
    71    58    57    1
    72    49    56   am
    73    49    48    1
    74     5     2    1
    75     5     6    1
    76     2     1    1
    77    57    56    1
    78    48    51    1
    79     7     6    1
    80     6     8    1
    81    51    52    1
    82    52    53    1
    83    55    53   ar
    84    53    54   ar
