@<TRIPOS>MOLECULE
tmp/3t01A00.pdb
 98 92 0 0 0
SMALL
GASTEIGER

@<TRIPOS>ATOM
      1  N          2.0300   26.4930   28.9690 N.3    26  ASP26      -0.1239
      2  CA         1.3070   27.0690   27.8440 C.3    26  ASP26       0.1674
      3  C          0.5360   25.9920   27.0790 C.2    26  ASP26       0.2266
      4  O          1.1050   24.9780   26.6590 O.2    26  ASP26      -0.2867
      5  CB         2.3000   27.7910   26.9290 C.3    26  ASP26       0.1410
      6  CG         1.6510   28.8410   26.0600 C.2    26  ASP26       0.3668
      7  OD1        0.5490   28.5930   25.5290 O.co2  26  ASP26      -0.2456
      8  OD2        2.2550   29.9250   25.9070 O.co2  26  ASP26      -0.2456
      9  N         -6.3190   33.0340   25.0810 N.3    64  PHE64      -0.1227
     10  CA        -5.0790   33.2330   24.3340 C.3    64  PHE64       0.1736
     11  C         -3.9130   33.4990   25.2900 C.2    64  PHE64       0.2596
     12  O         -4.1150   33.7910   26.4690 O.2    64  PHE64      -0.2718
     13  CB        -5.2050   34.3940   23.3380 C.3    64  PHE64       0.0547
     14  CG        -6.1500   34.1320   22.1840 C.ar   64  PHE64      -0.0202
     15  CD1       -6.1620   32.9100   21.5120 C.ar   64  PHE64      -0.0042
     16  CD2       -7.0010   35.1400   21.7500 C.ar   64  PHE64      -0.0042
     17  CE1       -7.0410   32.6910   20.4400 C.ar   64  PHE64      -0.0003
     18  CE2       -7.8780   34.9360   20.6780 C.ar   64  PHE64      -0.0003
     19  CZ        -7.8950   33.7060   20.0270 C.ar   64  PHE64      -0.0000
     20  N         -2.6980   33.4060   24.7610 N.am   65  THR65      -0.1939
     21  CA        -1.4780   33.4570   25.5640 C.3    65  THR65       0.2028
     22  C         -1.2150   34.7780   26.2720 C.2    65  THR65       0.2642
     23  O         -1.0000   34.7930   27.4870 O.2    65  THR65      -0.2714
     24  CB        -0.2620   33.0700   24.7110 C.3    65  THR65       0.1808
     25  OG1       -0.4370   31.7220   24.2630 O.3    65  THR65      -0.2208
     26  CG2        1.0470   33.1790   25.5060 C.3    65  THR65       0.0379
     27  N         -1.2210   35.8780   25.5240 N.am   66  ASN66      -0.1971
     28  CA        -0.8770   37.1700   26.1220 C.3    66  ASN66       0.1688
     29  C         -1.8630   37.6260   27.1980 C.2    66  ASN66       0.2292
     30  O         -1.4340   37.9610   28.2990 O.2    66  ASN66      -0.2864
     31  CB        -0.6600   38.2640   25.0670 C.3    66  ASN66       0.1181
     32  CG         0.5840   38.0370   24.2290 C.2    66  ASN66       0.2629
     33  OD1        0.9390   36.9040   23.9120 O.2    66  ASN66      -0.2716
     34  ND2        1.2460   39.1280   23.8490 N.am   66  ASN66      -0.0877
     35  N         -3.2610   40.4680   21.0630 N.3    86  ASN86      -0.1240
     36  CA        -1.9030   40.7400   20.5950 C.3    86  ASN86       0.1653
     37  C         -1.7460   42.1140   19.9570 C.2    86  ASN86       0.2266
     38  O         -0.6390   42.6560   19.9020 O.2    86  ASN86      -0.2867
     39  CB        -1.4240   39.6440   19.6420 C.3    86  ASN86       0.1155
     40  CG        -1.0490   38.3640   20.3670 C.2    86  ASN86       0.2627
     41  OD1       -1.1140   38.2880   21.5920 O.2    86  ASN86      -0.2716
     42  ND2       -0.6490   37.3540   19.6110 N.am   86  ASN86      -0.0877
     43  N          8.8430   38.1410   23.2930 N.3   129  LYS129     -0.1245
     44  CA         7.8970   39.2580   23.2160 C.3   129  LYS129      0.1561
     45  C          7.0460   39.4110   24.4810 C.2   129  LYS129      0.2260
     46  O          6.4500   40.4570   24.6990 O.2   129  LYS129     -0.2867
     47  CB         7.0400   39.2020   21.9400 C.3   129  LYS129      0.0271
     48  CG         6.0740   38.0300   21.8250 C.3   129  LYS129      0.0035
     49  CD         4.6590   38.4310   22.2110 C.3   129  LYS129      0.0206
     50  CE         3.6420   37.5410   21.5280 C.3   129  LYS129      0.1093
     51  NZ         4.0110   36.1030   21.6430 N.3   129  LYS129     -0.1314
     52  N          3.3630   27.0610   23.5740 N.3   208  ASP208     -0.1239
     53  CA         2.4920   25.9450   23.2210 C.3   208  ASP208      0.1674
     54  C          2.8380   25.3100   21.8700 C.2   208  ASP208      0.2266
     55  O          1.9740   24.7270   21.2170 O.2   208  ASP208     -0.2867
     56  CB         1.0060   26.3360   23.3000 C.3   208  ASP208      0.1410
     57  CG         0.6380   27.5050   22.3920 C.2   208  ASP208      0.3668
     58  OD1        1.5000   28.0260   21.6460 O.co2 208  ASP208     -0.2456
     59  OD2       -0.5470   27.9080   22.4340 O.co2 208  ASP208     -0.2456
     60  N          0.2070   22.6880   20.0280 N.3   212  HIS212     -0.1241
     61  CA        -0.4440   22.9600   18.7410 C.3   212  HIS212      0.1621
     62  C         -0.2230   21.8110   17.7560 C.2   212  HIS212      0.2264
     63  O         -1.0640   21.5660   16.8950 O.2   212  HIS212     -0.2867
     64  CB         0.0620   24.2650   18.1160 C.3   212  HIS212      0.0745
     65  CG        -0.6360   25.4970   18.6040 C.ar  212  HIS212      0.0817
     66  ND1       -1.9050   25.8550   18.1960 N.ar  212  HIS212     -0.2268
     67  CD2       -0.2200   26.4780   19.4380 C.ar  212  HIS212      0.1154
     68  CE1       -2.2480   26.9910   18.7760 C.ar  212  HIS212      0.1986
     69  NE2       -1.2400   27.3950   19.5290 N.ar  212  HIS212     -0.2212
     70  N         -5.5300   36.3230   18.3130 N.3   284  ILE284     -0.1231
     71  CA        -4.6100   35.2110   18.6180 C.3   284  ILE284      0.1692
     72  C         -3.1380   35.5100   18.3430 C.2   284  ILE284      0.2592
     73  O         -2.2710   35.1260   19.1290 O.2   284  ILE284     -0.2718
     74  CB        -5.0200   33.8700   17.9240 C.3   284  ILE284      0.0266
     75  CG1       -4.1200   32.7170   18.4050 C.3   284  ILE284      0.0019
     76  CG2       -5.0070   33.9980   16.3990 C.3   284  ILE284      0.0020
     77  CD1       -4.6220   31.3240   18.0540 C.3   284  ILE284      0.0001
     78  N         -2.8610   36.1890   17.2360 N.am  285  THR285     -0.1953
     79  CA        -1.4810   36.4960   16.8640 C.3   285  THR285      0.1897
     80  C         -1.3400   37.9040   16.2710 C.2   285  THR285      0.2313
     81  O         -2.2960   38.6840   16.2700 O.2   285  THR285     -0.2863
     82  CB        -0.8830   35.4020   15.9320 C.3   285  THR285      0.1794
     83  OG1        0.5260   35.6120   15.7790 O.3   285  THR285     -0.2208
     84  CG2       -1.5560   35.4080   14.5670 C.3   285  THR285      0.0378
     85  N         -1.3900   29.7510   11.8380 N.3   293  GLY293     -0.1225
     86  CA        -1.1320   30.1420   13.2220 C.3   293  GLY293      0.1811
     87  C         -1.9950   31.3180   13.6390 C.2   293  GLY293      0.2280
     88  O         -1.9890   31.7220   14.8060 O.2   293  GLY293     -0.2866
     89  N         -6.9240   27.2690   20.1800 N.3   374  HIS374     -0.1241
     90  CA        -7.5530   27.7130   21.4070 C.3   374  HIS374      0.1621
     91  C         -8.1660   29.0920   21.1870 C.2   374  HIS374      0.2264
     92  O         -8.2560   29.5520   20.0440 O.2   374  HIS374     -0.2867
     93  CB        -6.5180   27.7260   22.5440 C.3   374  HIS374      0.0745
     94  CG        -5.2390   28.4140   22.1860 C.ar  374  HIS374      0.0817
     95  ND1       -4.9760   29.7220   22.5310 N.ar  374  HIS374     -0.2268
     96  CD2       -4.1530   27.9800   21.5020 C.ar  374  HIS374      0.1154
     97  CE1       -3.7850   30.0640   22.0760 C.ar  374  HIS374      0.1986
     98  NE2       -3.2620   29.0240   21.4510 N.ar  374  HIS374     -0.2212
@<TRIPOS>BOND
     1    85    86    1
     2    86    87    1
     3    87    88    2
     4    84    82    1
     5    83    82    1
     6    82    79    1
     7    81    80    2
     8    80    79    1
     9    76    74    1
    10    79    78    1
    11    63    62    2
    12    78    72   am
    13    62    61    1
    14    74    75    1
    15    74    71    1
    16    77    75    1
    17    64    65    1
    18    64    61    1
    19    66    65   ar
    20    66    68   ar
    21    70    71    1
    22    72    71    1
    23    72    73    2
    24    65    67   ar
    25    61    60    1
    26    68    69   ar
    27    67    69   ar
    28    42    40   am
    29    39    40    1
    30    39    36    1
    31    38    37    2
    32    37    36    1
    33    19    17   ar
    34    19    18   ar
    35    92    91    2
    36    89    90    1
    37    40    41    2
    38    17    15   ar
    39    36    35    1
    40    18    16   ar
    41    91    90    1
    42    55    54    2
    43    90    93    1
    44    98    96   ar
    45    98    97   ar
    46    96    94   ar
    47    15    14   ar
    48    50    51    1
    49    50    49    1
    50    58    57   ar
    51    16    14   ar
    52    48    47    1
    53    48    49    1
    54    54    53    1
    55    47    44    1
    56    97    95   ar
    57    14    13    1
    58    94    95   ar
    59    94    93    1
    60    57    59   ar
    61    57    56    1
    62    44    43    1
    63    44    45    1
    64    53    56    1
    65    53    52    1
    66    13    10    1
    67    34    32   am
    68    33    32    2
    69    32    31    1
    70    25    24    1
    71    10     9    1
    72    10    11    1
    73    45    46    2
    74    24    26    1
    75    24    21    1
    76    20    11   am
    77    20    21    1
    78    31    28    1
    79    11    12    2
    80    27    28    1
    81    27    22   am
    82     7     6   ar
    83    21    22    1
    84     8     6   ar
    85     6     5    1
    86    28    29    1
    87    22    23    2
    88     4     3    2
    89     5     2    1
    90     3     2    1
    91    29    30    2
    92     2     1    1
