@<TRIPOS>MOLECULE
tmp/3t02A00.pdb
 108 101 0 0 0
SMALL
GASTEIGER

@<TRIPOS>ATOM
      1  N          1.7780   26.0870   29.0040 N.3    26  ASP26      -0.1239
      2  CA         1.0430   26.6520   27.8830 C.3    26  ASP26       0.1674
      3  C          0.2780   25.5660   27.1150 C.2    26  ASP26       0.2266
      4  O          0.8660   24.5580   26.7070 O.2    26  ASP26      -0.2867
      5  CB         2.0270   27.3590   26.9520 C.3    26  ASP26       0.1410
      6  CG         1.3480   28.3620   26.0330 C.2    26  ASP26       0.3668
      7  OD1        0.3020   28.0450   25.4360 O.co2  26  ASP26      -0.2456
      8  OD2        1.8640   29.4810   25.9250 O.co2  26  ASP26      -0.2456
      9  N         -6.2010   32.8170   25.0280 N.3    64  PHE64      -0.1227
     10  CA        -4.8920   32.9340   24.3820 C.3    64  PHE64       0.1736
     11  C         -3.8300   33.3300   25.4090 C.2    64  PHE64       0.2595
     12  O         -4.1640   33.7600   26.5070 O.2    64  PHE64      -0.2718
     13  CB        -4.9120   33.9900   23.2670 C.3    64  PHE64       0.0547
     14  CG        -5.8520   33.6680   22.1260 C.ar   64  PHE64      -0.0202
     15  CD1       -5.6680   32.5310   21.3490 C.ar   64  PHE64      -0.0042
     16  CD2       -6.8960   34.5260   21.8160 C.ar   64  PHE64      -0.0042
     17  CE1       -6.5380   32.2430   20.2810 C.ar   64  PHE64      -0.0003
     18  CE2       -7.7670   34.2520   20.7500 C.ar   64  PHE64      -0.0003
     19  CZ        -7.5780   33.1040   19.9820 C.ar   64  PHE64      -0.0000
     20  N         -2.5630   33.1990   25.0240 N.am   65  ALA65      -0.1966
     21  CA        -1.4220   33.4120   25.9160 C.3    65  ALA65       0.1728
     22  C         -1.3280   34.8110   26.5130 C.2    65  ALA65       0.2616
     23  O         -1.1480   34.9480   27.7140 O.2    65  ALA65      -0.2715
     24  CB        -0.1070   33.0630   25.2030 C.3    65  ALA65       0.0334
     25  N         -1.4240   35.8500   25.6800 N.am   66  ASN66      -0.1972
     26  CA        -1.2000   37.1980   26.1830 C.3    66  ASN66       0.1688
     27  C         -2.1790   37.6430   27.2820 C.2    66  ASN66       0.2292
     28  O         -1.7240   37.9870   28.3690 O.2    66  ASN66      -0.2864
     29  CB        -1.0720   38.2360   25.0590 C.3    66  ASN66       0.1181
     30  CG         0.2910   38.2120   24.4150 C.2    66  ASN66       0.2629
     31  OD1        0.8820   37.1490   24.2430 O.2    66  ASN66      -0.2716
     32  ND2        0.7950   39.3770   24.0410 N.am   66  ASN66      -0.0877
     33  N         -2.9680   40.1730   20.9270 N.3    86  ASN86      -0.1240
     34  CA        -1.5990   40.4760   20.4910 C.3    86  ASN86       0.1653
     35  C         -1.4620   41.8320   19.8080 C.2    86  ASN86       0.2266
     36  O         -0.3590   42.3830   19.7170 O.2    86  ASN86      -0.2867
     37  CB        -1.0530   39.3730   19.5850 C.3    86  ASN86       0.1155
     38  CG        -0.7790   38.0890   20.3370 C.2    86  ASN86       0.2627
     39  OD1       -0.0730   38.0850   21.3440 O.2    86  ASN86      -0.2716
     40  ND2       -1.3350   36.9920   19.8530 N.am   86  ASN86      -0.0877
     41  N          9.1470   32.4450   25.1360 N.3   127  LYS127     -0.1245
     42  CA         9.2110   33.4540   24.0800 C.3   127  LYS127      0.1561
     43  C          9.5460   34.8340   24.6230 C.2   127  LYS127      0.2260
     44  O          9.1170   35.1950   25.7310 O.2   127  LYS127     -0.2867
     45  CB         7.9070   33.4680   23.2860 C.3   127  LYS127      0.0271
     46  CG         7.8730   32.3960   22.1930 C.3   127  LYS127      0.0035
     47  CD         8.3120   32.9400   20.8340 C.3   127  LYS127      0.0206
     48  CE         7.1190   33.3150   19.9630 C.3   127  LYS127      0.1093
     49  NZ         6.5140   32.1180   19.2950 N.3   127  LYS127     -0.1314
     50  N          8.6740   37.8770   23.5340 N.3   129  LYS129     -0.1245
     51  CA         7.6390   38.9190   23.4410 C.3   129  LYS129      0.1561
     52  C          6.9590   39.1500   24.7920 C.2   129  LYS129      0.2260
     53  O          6.8140   40.2850   25.2380 O.2   129  LYS129     -0.2867
     54  CB         6.6040   38.5950   22.3530 C.3   129  LYS129      0.0271
     55  CG         6.3020   37.1120   22.1410 C.3   129  LYS129      0.0035
     56  CD         5.1030   36.6030   22.9290 C.3   129  LYS129      0.0206
     57  CE         3.7890   37.2380   22.4400 C.3   129  LYS129      0.1093
     58  NZ         3.4180   36.8370   21.0390 N.3   129  LYS129     -0.1314
     59  N          3.1500   26.5460   23.6260 N.3   208  ASP208     -0.1239
     60  CA         2.3380   25.3750   23.2940 C.3   208  ASP208      0.1674
     61  C          2.6490   24.7710   21.9040 C.2   208  ASP208      0.2266
     62  O          1.7710   24.1910   21.2560 O.2   208  ASP208     -0.2867
     63  CB         0.8510   25.6910   23.4400 C.3   208  ASP208      0.1410
     64  CG         0.3960   26.8460   22.5470 C.2   208  ASP208      0.3668
     65  OD1        1.2250   27.4800   21.8660 O.co2 208  ASP208     -0.2456
     66  OD2       -0.8080   27.1340   22.5440 O.co2 208  ASP208     -0.2456
     67  N         -0.0180   22.1810   20.0530 N.3   212  HIS212     -0.1241
     68  CA        -0.6550   22.5110   18.7620 C.3   212  HIS212      0.1621
     69  C         -0.4220   21.3800   17.7340 C.2   212  HIS212      0.2264
     70  O         -1.2300   21.1840   16.8210 O.2   212  HIS212     -0.2867
     71  CB        -0.1060   23.8300   18.2020 C.3   212  HIS212      0.0745
     72  CG        -0.8500   25.0540   18.6480 C.ar  212  HIS212      0.0817
     73  ND1       -2.1350   25.3340   18.2390 N.ar  212  HIS212     -0.2268
     74  CD2       -0.4680   26.1000   19.4220 C.ar  212  HIS212      0.1154
     75  CE1       -2.5240   26.4850   18.7600 C.ar  212  HIS212      0.1986
     76  NE2       -1.5330   26.9700   19.4850 N.ar  212  HIS212     -0.2212
     77  N         -4.4590   28.2880   28.8710 N.3   248  HIS248     -0.1241
     78  CA        -5.6300   27.8040   28.1240 C.3   248  HIS248      0.1621
     79  C         -5.4040   26.3290   27.8240 C.2   248  HIS248      0.2264
     80  O         -4.2900   25.8280   27.9700 O.2   248  HIS248     -0.2867
     81  CB        -5.8080   28.5750   26.8060 C.3   248  HIS248      0.0745
     82  CG        -4.5890   28.5600   25.9430 C.ar  248  HIS248      0.0817
     83  ND1       -4.2240   27.4590   25.2000 N.ar  248  HIS248     -0.2268
     84  CD2       -3.6430   29.4990   25.7170 C.ar  248  HIS248      0.1154
     85  CE1       -3.1020   27.7170   24.5570 C.ar  248  HIS248      0.1986
     86  NE2       -2.7190   28.9420   24.8620 N.ar  248  HIS248     -0.2212
     87  N         -5.2060   36.1440   18.1530 N.3   284  ILE284     -0.1245
     88  CA        -4.1820   35.0920   18.2790 C.3   284  ILE284      0.1561
     89  C         -2.8540   35.4560   17.6160 C.2   284  ILE284      0.2260
     90  O         -1.7920   35.0220   18.0630 O.2   284  ILE284     -0.2867
     91  CB        -4.6740   33.7070   17.7350 C.3   284  ILE284      0.0252
     92  CG1       -3.6560   32.5990   18.0600 C.3   284  ILE284      0.0019
     93  CG2       -4.9870   33.7700   16.2290 C.3   284  ILE284      0.0019
     94  CD1       -4.1650   31.1690   17.8730 C.3   284  ILE284      0.0001
     95  N         -0.8370   29.2520   12.2800 N.3   293  GLY293     -0.1225
     96  CA        -0.7540   29.6380   13.6910 C.3   293  GLY293      0.1811
     97  C         -1.5480   30.9160   13.9350 C.2   293  GLY293      0.2280
     98  O         -1.4130   31.5560   14.9840 O.2   293  GLY293     -0.2866
     99  N         -7.2160   26.9390   20.1550 N.3   374  HIS374     -0.1241
    100  CA        -7.8390   27.4620   21.3770 C.3   374  HIS374      0.1621
    101  C         -8.3810   28.8810   21.1360 C.2   374  HIS374      0.2264
    102  O         -8.3790   29.3760   19.9980 O.2   374  HIS374     -0.2867
    103  CB        -6.8270   27.4420   22.5350 C.3   374  HIS374      0.0745
    104  CG        -5.4860   27.9990   22.1640 C.ar  374  HIS374      0.0817
    105  ND1       -5.1090   29.2900   22.4630 N.ar  374  HIS374     -0.2268
    106  CD2       -4.4560   27.4560   21.4770 C.ar  374  HIS374      0.1154
    107  CE1       -3.8980   29.5150   21.9870 C.ar  374  HIS374      0.1986
    108  NE2       -3.4730   28.4130   21.3940 N.ar  374  HIS374     -0.2212
@<TRIPOS>BOND
     1    95    96    1
     2    96    97    1
     3    97    98    2
     4    93    91    1
     5    70    69    2
     6    89    90    2
     7    89    88    1
     8    69    68    1
     9    91    92    1
    10    91    88    1
    11    94    92    1
    12    87    88    1
    13    71    72    1
    14    71    68    1
    15    73    72   ar
    16    73    75   ar
    17    72    74   ar
    18    75    76   ar
    19    68    67    1
    20    49    48    1
    21    74    76   ar
    22    37    38    1
    23    37    34    1
    24    36    35    2
    25    35    34    1
    26    40    38   am
    27    48    47    1
    28    19    17   ar
    29    19    18   ar
    30   102   101    2
    31    99   100    1
    32    17    15   ar
    33    38    39    2
    34    34    33    1
    35    18    16   ar
    36    47    46    1
    37    58    57    1
    38   101   100    1
    39    62    61    2
    40    15    14   ar
    41   100   103    1
    42   108   106   ar
    43   108   107   ar
    44   106   104   ar
    45    16    14   ar
    46    65    64   ar
    47    61    60    1
    48   107   105   ar
    49    14    13    1
    50    55    54    1
    51    55    56    1
    52   104   105   ar
    53   104   103    1
    54    46    45    1
    55    54    51    1
    56    57    56    1
    57    66    64   ar
    58    64    63    1
    59    13    10    1
    60    45    42    1
    61    60    63    1
    62    60    59    1
    63    51    50    1
    64    51    52    1
    65    32    30   am
    66    42    43    1
    67    42    41    1
    68    31    30    2
    69    10     9    1
    70    10    11    1
    71    30    29    1
    72    85    86   ar
    73    85    83   ar
    74    43    44    2
    75    52    53    2
    76    86    84   ar
    77    20    11   am
    78    20    21    1
    79    29    26    1
    80    83    82   ar
    81    24    21    1
    82    11    12    2
    83     7     6   ar
    84    25    26    1
    85    25    22   am
    86    84    82   ar
    87    21    22    1
    88     8     6   ar
    89    82    81    1
    90     6     5    1
    91    26    27    1
    92    22    23    2
    93     4     3    2
    94    81    78    1
    95     5     2    1
    96     3     2    1
    97    27    28    2
    98    79    80    2
    99    79    78    1
   100     2     1    1
   101    78    77    1
