@<TRIPOS>MOLECULE
tmp/3t03A00.pdb
 160 153 0 0 0
SMALL
GASTEIGER

@<TRIPOS>ATOM
      1  N        -22.5050   22.2220   -3.0280 N.3    81  VAL81      -0.1231
      2  CA       -23.0110   22.8720   -1.8010 C.3    81  VAL81       0.1692
      3  C        -23.2760   21.8470   -0.7100 C.2    81  VAL81       0.2591
      4  O        -22.9300   22.0410    0.4570 O.2    81  VAL81      -0.2718
      5  CB       -24.3070   23.6600   -2.0520 C.3    81  VAL81       0.0266
      6  CG1      -24.9610   24.1130   -0.7170 C.3    81  VAL81       0.0020
      7  CG2      -24.0440   24.8480   -3.0050 C.3    81  VAL81       0.0020
      8  N        -23.9090   20.7480   -1.0870 N.am   82  GLN82      -0.1979
      9  CA       -24.1190   19.6730   -0.1320 C.3    82  GLN82       0.1601
     10  C        -22.8100   19.1360    0.4410 C.2    82  GLN82       0.2287
     11  O        -22.6880   19.0260    1.6610 O.2    82  GLN82      -0.2864
     12  CB       -24.9350   18.5470   -0.7470 C.3    82  GLN82       0.0394
     13  CG       -26.3520   18.9940   -1.0900 C.3    82  GLN82       0.0908
     14  CD       -27.1150   17.9190   -1.8060 C.2    82  GLN82       0.2608
     15  OE1      -27.3190   17.9940   -3.0170 O.2    82  GLN82      -0.2717
     16  NE2      -27.5390   16.9000   -1.0690 N.am   82  GLN82      -0.0878
     17  N        -21.1950   21.6500    2.7500 N.3    85  THR85      -0.1203
     18  CA       -21.9360   21.6470    4.0140 C.3    85  THR85       0.1994
     19  C        -21.5430   20.5110    4.9410 C.2    85  THR85       0.2617
     20  O        -21.2830   20.7450    6.1080 O.2    85  THR85      -0.2717
     21  CB       -23.4500   21.5760    3.7410 C.3    85  THR85       0.1784
     22  OG1      -23.8220   22.7310    2.9780 O.3    85  THR85      -0.2211
     23  CG2      -24.2250   21.5350    5.0340 C.3    85  THR85       0.0376
     24  N        -21.5140   19.2800    4.4410 N.am   86  GLU86      -0.1979
     25  CA       -21.0410   18.1660    5.2600 C.3    86  GLU86       0.1602
     26  C        -19.5830   18.4050    5.7220 C.2    86  GLU86       0.2287
     27  O        -19.2390   18.0950    6.8650 O.2    86  GLU86      -0.2864
     28  CB       -21.1460   16.8370    4.5030 C.3    86  GLU86       0.0415
     29  CG       -22.5720   16.3630    4.2100 C.3    86  GLU86       0.1163
     30  CD       -23.3890   16.0290    5.4750 C.2    86  GLU86       0.3649
     31  OE1      -22.9870   15.1190    6.2440 O.co2  86  GLU86      -0.2457
     32  OE2      -24.4370   16.6830    5.6960 O.co2  86  GLU86      -0.2457
     33  N        -19.5610   21.0600    8.6670 N.3    89  LYS89      -0.1245
     34  CA       -20.0320   20.4650    9.9020 C.3    89  LYS89       0.1561
     35  C        -18.9890   19.5900   10.5860 C.2    89  LYS89       0.2260
     36  O        -19.1320   19.2900   11.7730 O.2    89  LYS89      -0.2867
     37  CB       -21.3160   19.6820    9.6530 C.3    89  LYS89       0.0271
     38  CG       -22.4880   20.5900    9.2750 C.3    89  LYS89       0.0035
     39  CD       -23.8340   19.9170    9.4830 C.3    89  LYS89       0.0206
     40  CE       -24.1000   18.8790    8.4340 C.3    89  LYS89       0.1093
     41  NZ       -25.4270   18.2220    8.6880 N.3    89  LYS89      -0.1314
     42  N        -17.7050   24.4040   14.5790 N.3    94  PHE94      -0.1241
     43  CA       -18.6510   24.9800   13.6300 C.3    94  PHE94       0.1605
     44  C        -20.1060   24.7510   14.0360 C.2    94  PHE94       0.2264
     45  O        -20.8860   25.7000   14.1010 O.2    94  PHE94      -0.2867
     46  CB       -18.3990   24.4520   12.1970 C.3    94  PHE94       0.0534
     47  CG       -19.3190   25.0460   11.1430 C.ar   94  PHE94      -0.0203
     48  CD1      -18.9650   26.2080   10.4630 C.ar   94  PHE94      -0.0042
     49  CD2      -20.5160   24.4240   10.8120 C.ar   94  PHE94      -0.0042
     50  CE1      -19.8100   26.7480    9.4850 C.ar   94  PHE94      -0.0003
     51  CE2      -21.3750   24.9630    9.8380 C.ar   94  PHE94      -0.0003
     52  CZ       -21.0100   26.1220    9.1640 C.ar   94  PHE94      -0.0000
     53  N        -27.0010   29.0770   14.6520 N.3    99  LEU99      -0.1231
     54  CA       -27.4320   28.5360   13.3720 C.3    99  LEU99       0.1693
     55  C        -27.4970   29.5990   12.2820 C.2    99  LEU99       0.2592
     56  O        -27.1270   29.3300   11.1360 O.2    99  LEU99      -0.2718
     57  CB       -28.7770   27.8030   13.4990 C.3    99  LEU99       0.0284
     58  CG       -29.2480   26.9960   12.2900 C.3    99  LEU99       0.0019
     59  CD1      -28.2030   25.9650   11.8390 C.3    99  LEU99       0.0001
     60  CD2      -30.6100   26.3350   12.5780 C.3    99  LEU99       0.0001
     61  N        -27.9510   30.8030   12.6260 N.am  100  ASN100     -0.1974
     62  CA       -28.0900   31.8480   11.6100 C.3   100  ASN100      0.1688
     63  C        -26.7150   32.2400   11.0480 C.2   100  ASN100      0.2292
     64  O        -26.5800   32.5650    9.8660 O.2   100  ASN100     -0.2864
     65  CB       -28.8570   33.0750   12.1230 C.3   100  ASN100      0.1181
     66  CG       -30.2980   32.7420   12.5670 C.2   100  ASN100      0.2629
     67  OD1      -31.0350   32.0390   11.8770 O.2   100  ASN100     -0.2716
     68  ND2      -30.6870   33.2490   13.7380 N.am  100  ASN100     -0.0877
     69  N        -24.0250   30.0590   11.0710 N.3   102  GLN102     -0.1231
     70  CA       -23.6370   28.9120   10.2540 C.3   102  GLN102      0.1698
     71  C        -24.1280   29.0850    8.8100 C.2   102  GLN102      0.2592
     72  O        -23.3670   28.8930    7.8380 O.2   102  GLN102     -0.2718
     73  CB       -24.1920   27.6070   10.8150 C.3   102  GLN102      0.0381
     74  CG       -23.5770   27.1660   12.1330 C.3   102  GLN102      0.0905
     75  CD       -24.0330   25.7680   12.5410 C.2   102  GLN102      0.2608
     76  OE1      -24.0470   24.8590   11.7060 O.2   102  GLN102     -0.2717
     77  NE2      -24.4300   25.5950   13.8190 N.am  102  GLN102     -0.0878
     78  N        -25.3910   29.4640    8.6800 N.am  103  VAL103     -0.1980
     79  CA       -25.9880   29.6680    7.3630 C.3   103  VAL103      0.1595
     80  C        -25.3050   30.7930    6.6130 C.2   103  VAL103      0.2287
     81  O        -25.0100   30.6560    5.4400 O.2   103  VAL103     -0.2864
     82  CB       -27.4920   29.9820    7.4440 C.3   103  VAL103      0.0276
     83  CG1      -28.0260   30.3380    6.0620 C.3   103  VAL103      0.0022
     84  CG2      -28.2490   28.8080    8.0430 C.3   103  VAL103      0.0022
     85  N        -21.8140   29.7240    5.2810 N.3   106  LEU106     -0.1231
     86  CA       -21.8940   28.8890    4.0910 C.3   106  LEU106      0.1693
     87  C        -22.3180   29.7040    2.8750 C.2   106  LEU106      0.2591
     88  O        -21.7780   29.5610    1.7910 O.2   106  LEU106     -0.2718
     89  CB       -22.8150   27.7030    4.3170 C.3   106  LEU106      0.0284
     90  CG       -22.0750   26.6330    5.1170 C.3   106  LEU106      0.0019
     91  CD1      -23.1000   25.7380    5.7680 C.3   106  LEU106      0.0001
     92  CD2      -21.1490   25.8310    4.2500 C.3   106  LEU106      0.0001
     93  N        -23.2830   30.5840    3.0850 N.am  107  LYS107     -0.1980
     94  CA       -23.7970   31.4270    2.0250 C.3   107  LYS107      0.1596
     95  C        -22.6740   32.1880    1.3300 C.2   107  LYS107      0.2287
     96  O        -22.6430   32.2900    0.1130 O.2   107  LYS107     -0.2864
     97  CB       -24.8030   32.4100    2.6050 C.3   107  LYS107      0.0298
     98  CG       -25.4330   33.3260    1.5720 C.3   107  LYS107      0.0038
     99  CD       -26.1940   34.4510    2.2710 C.3   107  LYS107      0.0206
    100  CE       -26.8580   35.3620    1.2590 C.3   107  LYS107      0.1093
    101  NZ       -27.8330   34.5790    0.4700 N.3   107  LYS107     -0.1314
    102  N        -31.7350   27.1290  -10.2600 N.3   254  HIS254     -0.1227
    103  CA       -32.0500   26.1280   -9.2380 C.3   254  HIS254      0.1737
    104  C        -32.3370   26.7820   -7.8560 C.2   254  HIS254      0.2438
    105  O        -31.6310   27.7010   -7.4450 O.2   254  HIS254     -0.2733
    106  CB       -30.8910   25.1290   -9.1640 C.3   254  HIS254      0.0758
    107  CG       -31.1790   23.9200   -8.3360 C.ar  254  HIS254      0.0818
    108  ND1      -31.3300   23.9750   -6.9700 N.ar  254  HIS254     -0.2268
    109  CD2      -31.3000   22.6140   -8.6740 C.ar  254  HIS254      0.1154
    110  CE1      -31.5630   22.7620   -6.5020 C.ar  254  HIS254      0.1986
    111  NE2      -31.5400   21.9170   -7.5160 N.ar  254  HIS254     -0.2212
    112  N        -33.3840   26.3110   -7.1420 N.am  255  PRO255     -0.2718
    113  CA       -33.8180   26.9470   -5.8890 C.3   255  PRO255      0.1535
    114  C        -32.7080   27.1260   -4.8340 C.2   255  PRO255      0.2598
    115  O        -32.5910   28.2130   -4.2840 O.2   255  PRO255     -0.2715
    116  CB       -34.8920   25.9870   -5.3720 C.3   255  PRO255      0.0310
    117  CG       -35.4220   25.3210   -6.6000 C.3   255  PRO255      0.0237
    118  CD       -34.2240   25.1440   -7.4770 C.3   255  PRO255      0.0939
    119  N        -31.9210   26.0880   -4.5550 N.am  256  LEU256     -0.1978
    120  CA       -30.7710   26.2240   -3.6310 C.3   256  LEU256      0.1596
    121  C        -29.7810   27.3120   -4.0450 C.2   256  LEU256      0.2287
    122  O        -29.2630   28.0390   -3.2040 O.2   256  LEU256     -0.2864
    123  CB       -30.0390   24.8940   -3.4590 C.3   256  LEU256      0.0297
    124  CG       -28.7990   24.8340   -2.5670 C.3   256  LEU256      0.0022
    125  CD1      -29.0620   25.4490   -1.1770 C.3   256  LEU256      0.0001
    126  CD2      -28.3270   23.3810   -2.4490 C.3   256  LEU256      0.0001
    127  N        -31.2190   30.6920   -3.3960 N.3   259  GLU259     -0.1231
    128  CA       -31.0720   30.9460   -1.9520 C.3   259  GLU259      0.1699
    129  C        -29.7530   31.6220   -1.6290 C.2   259  GLU259      0.2592
    130  O        -29.7220   32.6310   -0.9380 O.2   259  GLU259     -0.2718
    131  CB       -31.1520   29.6420   -1.1560 C.3   259  GLU259      0.0402
    132  CG       -32.3870   29.5070   -0.2950 C.3   259  GLU259      0.1161
    133  CD       -32.4030   28.2190    0.5170 C.2   259  GLU259      0.3649
    134  OE1      -31.4550   27.9790    1.3090 O.co2 259  GLU259     -0.2457
    135  OE2      -33.3740   27.4470    0.3640 O.co2 259  GLU259     -0.2457
    136  N        -28.6680   31.0510   -2.1560 N.am  260  ILE260     -0.1980
    137  CA       -27.3070   31.5420   -1.9380 C.3   260  ILE260      0.1595
    138  C        -27.0790   32.8970   -2.5900 C.2   260  ILE260      0.2287
    139  O        -26.4930   33.7840   -1.9880 O.2   260  ILE260     -0.2864
    140  CB       -26.2930   30.5110   -2.4610 C.3   260  ILE260      0.0276
    141  CG1      -26.3820   29.2450   -1.6160 C.3   260  ILE260      0.0022
    142  CG2      -24.8690   31.0650   -2.4690 C.3   260  ILE260      0.0022
    143  CD1      -26.0290   27.9970   -2.3570 C.3   260  ILE260      0.0001
    144  N        -29.3460   35.1740   -3.4770 N.3   262  LYS262     -0.1231
    145  CA       -30.2520   36.2110   -2.9950 C.3   262  LYS262      0.1693
    146  C        -29.6340   37.0590   -1.8990 C.2   262  LYS262      0.2592
    147  O        -29.1480   36.5470   -0.8980 O.2   262  LYS262     -0.2718
    148  CB       -31.5520   35.6120   -2.4760 C.3   262  LYS262      0.0285
    149  CG       -32.6060   36.6720   -2.1860 C.3   262  LYS262      0.0035
    150  CD       -33.7610   36.1200   -1.3790 C.3   262  LYS262      0.0206
    151  CE       -34.9550   37.0640   -1.4430 C.3   262  LYS262      0.1093
    152  NZ       -34.5940   38.4540   -1.0380 N.3   262  LYS262     -0.1314
    153  N        -29.6760   38.3680   -2.1020 N.am  263  ASP263     -0.1974
    154  CA       -29.1790   39.3230   -1.1220 C.3   263  ASP263      0.1709
    155  C        -27.6780   39.1930   -0.9450 C.2   263  ASP263      0.2293
    156  O        -27.1210   39.6640    0.0440 O.2   263  ASP263     -0.2864
    157  CB       -29.8970   39.1520    0.2190 C.3   263  ASP263      0.1436
    158  CG       -31.2050   39.9180    0.2790 C.2   263  ASP263      0.3671
    159  OD1      -31.7790   40.2110   -0.7910 O.co2 263  ASP263     -0.2456
    160  OD2      -31.6580   40.2320    1.4010 O.co2 263  ASP263     -0.2456
@<TRIPOS>BOND
     1   102   103    1
     2   103   106    1
     3   103   104    1
     4   106   107    1
     5   109   107   ar
     6   109   111   ar
     7   107   108   ar
     8   104   105    2
     9   104   112   am
    10   111   110   ar
    11   118   112    1
    12   118   117    1
    13   112   113    1
    14   108   110   ar
    15   117   116    1
    16   113   116    1
    17   113   114    1
    18   114   119   am
    19   114   115    2
    20   119   120    1
    21   121   120    1
    22   121   122    2
    23   120   123    1
    24   144   145    1
    25   123   124    1
    26   127   128    1
    27     1     2    1
    28    15    14    2
    29     7     5    1
    30   145   148    1
    31   145   146    1
    32   138   139    2
    33   138   137    1
    34   124   126    1
    35   124   125    1
    36   148   149    1
    37   142   140    1
    38   140   137    1
    39   140   141    1
    40   143   141    1
    41   149   150    1
    42   136   137    1
    43   136   129   am
    44   153   146   am
    45   153   154    1
    46     5     2    1
    47     5     6    1
    48   128   129    1
    49   128   131    1
    50   146   147    2
    51    14    13    1
    52    14    16   am
    53     2     3    1
    54   129   130    2
    55   151   150    1
    56   151   152    1
    57   131   132    1
    58   154   155    1
    59   154   157    1
    60    13    12    1
    61     8     3   am
    62     8     9    1
    63   155   156    2
    64   159   158   ar
    65    12     9    1
    66     3     4    2
    67   132   133    1
    68     9    10    1
    69    96    95    2
    70   157   158    1
    71   158   160   ar
    72   135   133   ar
    73    10    11    2
    74   101   100    1
    75   133   134   ar
    76   100    99    1
    77    95    94    1
    78    98    99    1
    79    98    97    1
    80    88    87    2
    81    94    97    1
    82    94    93    1
    83    17    18    1
    84    87    93   am
    85    87    86    1
    86    22    21    1
    87    21    18    1
    88    21    23    1
    89    18    19    1
    90    86    89    1
    91    86    85    1
    92    29    28    1
    93    29    30    1
    94    92    90    1
    95    89    90    1
    96    24    19   am
    97    24    25    1
    98    28    25    1
    99    19    20    2
   100    90    91    1
   101    25    26    1
   102    81    80    2
   103    30    32   ar
   104    30    31   ar
   105    26    27    2
   106    83    82    1
   107    80    79    1
   108    79    82    1
   109    79    78    1
   110    82    84    1
   111    72    71    2
   112    40    41    1
   113    40    39    1
   114    33    34    1
   115    78    71   am
   116    71    70    1
   117    52    50   ar
   118    52    51   ar
   119    38    39    1
   120    38    37    1
   121    50    48   ar
   122    37    34    1
   123    51    49   ar
   124    64    63    2
   125    34    35    1
   126    70    73    1
   127    70    69    1
   128    48    47   ar
   129    35    36    2
   130    49    47   ar
   131    73    74    1
   132    63    62    1
   133    56    55    2
   134    47    46    1
   135    62    65    1
   136    62    61    1
   137    76    75    2
   138    59    58    1
   139    67    66    2
   140    65    66    1
   141    74    75    1
   142    46    43    1
   143    55    61   am
   144    55    54    1
   145    58    60    1
   146    58    57    1
   147    75    77   am
   148    66    68   am
   149    54    57    1
   150    54    53    1
   151    43    44    1
   152    43    42    1
   153    44    45    2
