@<TRIPOS>MOLECULE
tmp/3t03B00.pdb
 221 208 0 0 0
SMALL
GASTEIGER

@<TRIPOS>ATOM
      1  N          8.5660   60.0720    7.6990 N.3    17  PHE17      -0.1241
      2  CA         7.2220   60.4390    8.1260 C.3    17  PHE17       0.1605
      3  C          7.3200   61.0760    9.4990 C.2    17  PHE17       0.2264
      4  O          7.3900   60.3820   10.5040 O.2    17  PHE17      -0.2867
      5  CB         6.3150   59.2120    8.1710 C.3    17  PHE17       0.0534
      6  CG         6.4480   58.3200    6.9730 C.ar   17  PHE17      -0.0203
      7  CD1        5.7700   58.6050    5.7980 C.ar   17  PHE17      -0.0042
      8  CD2        7.2500   57.1950    7.0230 C.ar   17  PHE17      -0.0042
      9  CE1        5.8910   57.7820    4.6940 C.ar   17  PHE17      -0.0003
     10  CE2        7.3840   56.3710    5.9260 C.ar   17  PHE17      -0.0003
     11  CZ         6.7070   56.6600    4.7560 C.ar   17  PHE17      -0.0000
     12  N          5.1570   62.7710   11.4240 N.3    19  LEU19      -0.1245
     13  CA         4.0950   62.4700   12.3940 C.3    19  LEU19       0.1561
     14  C          3.8910   60.9610   12.6030 C.2    19  LEU19       0.2260
     15  O          3.1930   60.3050   11.8370 O.2    19  LEU19      -0.2867
     16  CB         2.7850   63.1640   12.0110 C.3    19  LEU19       0.0270
     17  CG         1.6160   62.9740   13.0010 C.3    19  LEU19       0.0019
     18  CD1        1.9780   63.4680   14.3720 C.3    19  LEU19       0.0001
     19  CD2        0.3300   63.6540   12.4990 C.3    19  LEU19       0.0001
     20  N        -11.7050   71.6230    0.6860 N.3    57  ILE57      -0.1231
     21  CA       -11.2580   70.5340    1.5290 C.3    57  ILE57       0.1692
     22  C        -10.5800   69.4540    0.7100 C.2    57  ILE57       0.2592
     23  O         -9.5040   68.9730    1.0730 O.2    57  ILE57      -0.2718
     24  CB       -12.4220   69.9030    2.3160 C.3    57  ILE57       0.0266
     25  CG1      -12.8620   70.8300    3.4450 C.3    57  ILE57       0.0019
     26  CG2      -12.0070   68.5830    2.9170 C.3    57  ILE57       0.0020
     27  CD1      -13.9210   70.2130    4.3120 C.3    57  ILE57       0.0001
     28  N        -11.2110   69.0650   -0.3910 N.am   58  PHE58      -0.1976
     29  CA       -10.6560   68.0280   -1.2450 C.3    58  PHE58       0.1639
     30  C         -9.3360   68.4710   -1.8680 C.2    58  PHE58       0.2290
     31  O         -8.4470   67.6560   -2.0920 O.2    58  PHE58      -0.2864
     32  CB       -11.6280   67.6350   -2.3600 C.3    58  PHE58       0.0560
     33  CG       -11.0590   66.6190   -3.3100 C.ar   58  PHE58      -0.0200
     34  CD1      -11.0270   65.2730   -2.9670 C.ar   58  PHE58      -0.0042
     35  CD2      -10.5220   67.0070   -4.5200 C.ar   58  PHE58      -0.0042
     36  CE1      -10.4900   64.3270   -3.8340 C.ar   58  PHE58      -0.0003
     37  CE2       -9.9770   66.0700   -5.3880 C.ar   58  PHE58      -0.0003
     38  CZ        -9.9600   64.7300   -5.0470 C.ar   58  PHE58      -0.0000
     39  N         -6.7850   68.1890    0.5990 N.3    61  CYS61      -0.1235
     40  CA        -6.5020   66.7720    0.6090 C.3    61  CYS61       0.1677
     41  C         -5.4600   66.3720   -0.4430 C.2    61  CYS61       0.2270
     42  O         -4.5010   65.6580   -0.1310 O.2    61  CYS61      -0.2867
     43  CB        -7.7750   65.9870    0.3820 C.3    61  CYS61       0.0956
     44  SG        -7.5250   64.2240    0.5390 S.3    61  CYS61      -0.0801
     45  N         -1.8970   67.2550    0.3940 N.3    64  ARG64      -0.1231
     46  CA        -1.3540   66.4000    1.4470 C.3    64  ARG64       0.1694
     47  C         -1.0220   65.0190    0.9080 C.2    64  ARG64       0.2592
     48  O         -0.1100   64.3500    1.4020 O.2    64  ARG64      -0.2718
     49  CB        -2.3240   66.2710    2.6240 C.3    64  ARG64       0.0321
     50  CG        -1.8390   65.3170    3.7120 C.3    64  ARG64       0.0489
     51  CD        -0.5920   65.8520    4.3830 C.3    64  ARG64       0.2205
     52  NE        -0.0720   64.9380    5.3970 N.pl3  64  ARG64      -0.0865
     53  CZ         0.8110   63.9760    5.1370 C.cat  64  ARG64       0.5346
     54  NH1        1.2590   63.8130    3.8990 N.pl3  64  ARG64       0.1354
     55  NH2        1.2520   63.1810    6.1150 N.pl3  64  ARG64       0.1354
     56  N         -1.7620   64.5920   -0.1080 N.am   65  SER65      -0.1952
     57  CA        -1.4860   63.3080   -0.7270 C.3    65  SER65       0.1924
     58  C         -0.2150   63.3520   -1.5670 C.2    65  SER65       0.2314
     59  O          0.5690   62.4070   -1.5480 O.2    65  SER65      -0.2863
     60  CB        -2.6710   62.8590   -1.5700 C.3    65  SER65       0.2116
     61  OG        -3.8260   62.8180   -0.7450 O.3    65  SER65      -0.2180
     62  N          2.3910   63.0090    0.7890 N.3    68  ALA68      -0.1245
     63  CA         2.4410   61.6090    1.1970 C.3    68  ALA68       0.1562
     64  C          3.2190   60.7550    0.1930 C.2    68  ALA68       0.2260
     65  O          4.0710   59.9590    0.5900 O.2    68  ALA68      -0.2867
     66  CB         1.0240   61.0380    1.4410 C.3    68  ALA68       0.0290
     67  N          6.9680   61.3880    0.4650 N.3    71  GLU71      -0.1231
     68  CA         7.4890   60.7820    1.6910 C.3    71  GLU71       0.1699
     69  C          7.6640   59.2710    1.5060 C.2    71  GLU71       0.2592
     70  O          8.6500   58.6810    1.9460 O.2    71  GLU71      -0.2718
     71  CB         6.5550   61.0780    2.8840 C.3    71  GLU71       0.0402
     72  CG         6.5560   62.5450    3.3350 C.3    71  GLU71       0.1161
     73  CD         5.4420   62.8960    4.3310 C.2    71  GLU71       0.3649
     74  OE1        4.3690   62.2470    4.3220 O.co2  71  GLU71      -0.2457
     75  OE2        5.6350   63.8480    5.1250 O.co2  71  GLU71      -0.2457
     76  N          6.7090   58.6590    0.8230 N.am   72  ILE72      -0.1980
     77  CA         6.7020   57.2200    0.6220 C.3    72  ILE72       0.1595
     78  C          7.7640   56.7600   -0.3640 C.2    72  ILE72       0.2287
     79  O          8.3570   55.7000   -0.1890 O.2    72  ILE72      -0.2864
     80  CB         5.3100   56.7290    0.1680 C.3    72  ILE72       0.0276
     81  CG1        4.3350   56.7280    1.3600 C.3    72  ILE72       0.0022
     82  CG2        5.4200   55.3310   -0.3870 C.3    72  ILE72       0.0022
     83  CD1        2.8670   57.0180    1.0030 C.3    72  ILE72       0.0001
     84  N         -1.2000   54.0230   -2.4580 N.3    99  HIS99      -0.1241
     85  CA        -2.4820   54.2620   -1.7840 C.3    99  HIS99       0.1621
     86  C         -2.7780   53.2400   -0.7060 C.2    99  HIS99       0.2264
     87  O         -3.4900   53.5330    0.2590 O.2    99  HIS99      -0.2867
     88  CB        -3.6320   54.4020   -2.7750 C.3    99  HIS99       0.0745
     89  CG        -3.6250   55.7130   -3.4940 C.ar   99  HIS99       0.0817
     90  ND1       -3.2010   55.8480   -4.7990 N.ar   99  HIS99      -0.2268
     91  CD2       -3.9280   56.9600   -3.0670 C.ar   99  HIS99       0.1154
     92  CE1       -3.2740   57.1190   -5.1520 C.ar   99  HIS99       0.1986
     93  NE2       -3.7110   57.8160   -4.1170 N.ar   99  HIS99      -0.2212
     94  N         -1.0400   54.7790    2.0980 N.3   102  ILE102     -0.1245
     95  CA        -1.6980   55.9740    2.5930 C.3   102  ILE102      0.1561
     96  C         -2.8390   55.6150    3.5470 C.2   102  ILE102      0.2260
     97  O         -3.0210   56.2560    4.5800 O.2   102  ILE102     -0.2867
     98  CB        -2.1980   56.8380    1.4370 C.3   102  ILE102      0.0252
     99  CG1       -1.0140   57.5630    0.7840 C.3   102  ILE102      0.0019
    100  CG2       -3.2180   57.8350    1.9350 C.3   102  ILE102      0.0019
    101  CD1       -1.4030   58.4510   -0.3840 C.3   102  ILE102      0.0001
    102  N         -1.1840   54.3350    6.8610 N.3   105  MET105     -0.1230
    103  CA        -0.6410   55.3960    7.7160 C.3   105  MET105      0.1702
    104  C         -1.6880   56.3770    8.2370 C.2   105  MET105      0.2592
    105  O         -1.5260   56.9790    9.2980 O.2   105  MET105     -0.2718
    106  CB         0.4670   56.1510    6.9970 C.3   105  MET105      0.0401
    107  CG         1.4490   55.2190    6.3320 C.3   105  MET105      0.0596
    108  SD         3.0160   56.0380    5.9970 S.3   105  MET105     -0.1393
    109  CE         3.5370   56.2640    7.7090 C.3   105  MET105      0.0692
    110  N         -2.7500   56.5470    7.4580 N.am  106  LEU106     -0.1980
    111  CA        -3.8630   57.3900    7.8440 C.3   106  LEU106      0.1596
    112  C         -4.5070   56.8240    9.1120 C.2   106  LEU106      0.2287
    113  O         -4.9270   57.5670    9.9940 O.2   106  LEU106     -0.2864
    114  CB        -4.8870   57.4380    6.6920 C.3   106  LEU106      0.0297
    115  CG        -5.8880   58.5880    6.6310 C.3   106  LEU106      0.0022
    116  CD1       -5.1950   59.9280    6.7810 C.3   106  LEU106      0.0001
    117  CD2       -6.6370   58.5500    5.3000 C.3   106  LEU106      0.0001
    118  N         -3.5030   58.1440   12.3400 N.3   109  LEU109     -0.1245
    119  CA        -3.9830   59.4800   12.7030 C.3   109  LEU109      0.1561
    120  C         -5.4740   59.5320   13.0940 C.2   109  LEU109      0.2260
    121  O         -6.0000   60.6150   13.3040 O.2   109  LEU109     -0.2867
    122  CB        -3.8030   60.4300   11.5250 C.3   109  LEU109      0.0270
    123  CG        -2.4080   60.5750   10.9320 C.3   109  LEU109      0.0019
    124  CD1       -2.4020   61.7110    9.9250 C.3   109  LEU109      0.0001
    125  CD2       -1.4000   60.8200   12.0420 C.3   109  LEU109      0.0001
    126  N        -10.1630   62.4800   12.6690 N.3   115  VAL115     -0.1231
    127  CA        -8.8200   62.3540   12.1150 C.3   115  VAL115      0.1692
    128  C         -7.9550   63.6090   12.3630 C.2   115  VAL115      0.2592
    129  O         -8.4150   64.7360   12.2070 O.2   115  VAL115     -0.2718
    130  CB        -8.8530   61.9920   10.6070 C.3   115  VAL115      0.0266
    131  CG1       -9.5820   63.0680    9.7800 C.3   115  VAL115      0.0020
    132  CG2       -7.4280   61.7390   10.0730 C.3   115  VAL115      0.0020
    133  N         -6.7010   63.3960   12.7420 N.am  116  LEU116     -0.1966
    134  CA        -5.7370   64.4920   12.8650 C.3   116  LEU116      0.1728
    135  C         -5.3520   65.0840   11.5110 C.2   116  LEU116      0.2616
    136  O         -5.1690   64.3590   10.5440 O.2   116  LEU116     -0.2715
    137  CB        -4.4700   64.0120   13.5660 C.3   116  LEU116      0.0311
    138  CG        -4.6450   63.7420   15.0600 C.3   116  LEU116      0.0022
    139  CD1       -3.3330   63.2670   15.6480 C.3   116  LEU116      0.0001
    140  CD2       -5.0980   64.9950   15.7450 C.3   116  LEU116      0.0001
    141  N         -5.2310   66.4070   11.4640 N.am  117  ILE117     -0.1977
    142  CA        -4.8100   67.1080   10.2590 C.3   117  ILE117      0.1596
    143  C         -3.8000   68.2010   10.5810 C.2   117  ILE117      0.2287
    144  O         -3.6760   68.6070   11.7340 O.2   117  ILE117     -0.2864
    145  CB        -5.9990   67.7920    9.5540 C.3   117  ILE117      0.0276
    146  CG1       -6.6790   68.7890   10.4940 C.3   117  ILE117      0.0022
    147  CG2       -6.9890   66.7600    9.0120 C.3   117  ILE117      0.0022
    148  CD1       -7.6140   69.7770    9.7530 C.3   117  ILE117      0.0001
    149  N        -10.4730   66.9110   12.6470 N.3   124  MET124     -0.1245
    150  CA       -11.7160   67.0490   11.8780 C.3   124  MET124      0.1570
    151  C        -12.6080   65.8700   12.2200 C.2   124  MET124      0.2261
    152  O        -12.1620   64.7270   12.1580 O.2   124  MET124     -0.2867
    153  CB       -11.4000   67.0670   10.3730 C.3   124  MET124      0.0387
    154  CG       -12.4770   67.6730    9.4970 C.3   124  MET124      0.0595
    155  SD       -11.8440   68.0530    7.8440 S.3   124  MET124     -0.1393
    156  CE       -10.3250   68.8940    8.2320 C.3   124  MET124      0.0692
    157  N        -17.1580   65.3020    8.3100 N.3   129  LEU129     -0.1245
    158  CA       -16.6670   64.8780    7.0060 C.3   129  LEU129      0.1561
    159  C        -17.7530   64.1290    6.2380 C.2   129  LEU129      0.2260
    160  O        -17.8420   64.2030    5.0120 O.2   129  LEU129     -0.2867
    161  CB       -15.4440   63.9900    7.1680 C.3   129  LEU129      0.0270
    162  CG       -14.2140   64.6770    7.7510 C.3   129  LEU129      0.0019
    163  CD1      -13.0950   63.6690    8.0080 C.3   129  LEU129      0.0001
    164  CD2      -13.7910   65.7570    6.7550 C.3   129  LEU129      0.0001
    165  N        -20.3040   66.2620    4.1270 N.3   132  LEU132     -0.1245
    166  CA       -19.9600   66.8670    2.8400 C.3   132  LEU132      0.1561
    167  C        -20.8990   66.3490    1.7360 C.2   132  LEU132      0.2260
    168  O        -21.3390   65.1960    1.7800 O.2   132  LEU132     -0.2867
    169  CB       -18.4880   66.5930    2.4700 C.3   132  LEU132      0.0270
    170  CG       -17.3810   67.1020    3.4220 C.3   132  LEU132      0.0019
    171  CD1      -15.9940   66.8870    2.8140 C.3   132  LEU132      0.0001
    172  CD2      -17.5900   68.5750    3.8020 C.3   132  LEU132      0.0001
    173  N        -18.2730   63.6990   -1.9680 N.3   136  PHE136     -0.1241
    174  CA       -17.1990   63.9610   -1.0090 C.3   136  PHE136      0.1605
    175  C        -17.5680   63.4970    0.3860 C.2   136  PHE136      0.2264
    176  O        -16.6980   63.2330    1.2090 O.2   136  PHE136     -0.2867
    177  CB       -16.8470   65.4460   -0.9770 C.3   136  PHE136      0.0534
    178  CG       -16.3380   65.9780   -2.2950 C.ar  136  PHE136     -0.0203
    179  CD1      -15.0560   65.6660   -2.7360 C.ar  136  PHE136     -0.0042
    180  CD2      -17.1350   66.7950   -3.0850 C.ar  136  PHE136     -0.0042
    181  CE1      -14.5870   66.1490   -3.9460 C.ar  136  PHE136     -0.0003
    182  CE2      -16.6690   67.2840   -4.2900 C.ar  136  PHE136     -0.0003
    183  CZ       -15.3940   66.9630   -4.7180 C.ar  136  PHE136     -0.0000
    184  N        -16.0980   60.2250    0.8550 N.3   139  PHE139     -0.1227
    185  CA       -14.6830   60.0710    0.5320 C.3   139  PHE139      0.1736
    186  C        -13.8630   59.4460    1.6580 C.2   139  PHE139      0.2595
    187  O        -13.0410   58.5560    1.4080 O.2   139  PHE139     -0.2718
    188  CB       -14.0480   61.4030    0.1260 C.3   139  PHE139      0.0547
    189  CG       -12.6730   61.2520   -0.4690 C.ar  139  PHE139     -0.0202
    190  CD1      -11.5370   61.5010    0.2930 C.ar  139  PHE139     -0.0042
    191  CD2      -12.5140   60.8260   -1.7810 C.ar  139  PHE139     -0.0042
    192  CE1      -10.2580   61.3430   -0.2450 C.ar  139  PHE139     -0.0003
    193  CE2      -11.2310   60.6720   -2.3290 C.ar  139  PHE139     -0.0003
    194  CZ       -10.1060   60.9280   -1.5510 C.ar  139  PHE139     -0.0000
    195  N        -14.0660   59.9160    2.8920 N.am  140  MET140     -0.1979
    196  CA       -13.1890   59.5140    4.0020 C.3   140  MET140      0.1605
    197  C        -13.7530   58.3210    4.7550 C.2   140  MET140      0.2287
    198  O        -13.0210   57.6030    5.4270 O.2   140  MET140     -0.2864
    199  CB       -12.9800   60.6580    4.9910 C.3   140  MET140      0.0413
    200  CG       -12.1230   61.8030    4.4990 C.3   140  MET140      0.0598
    201  SD       -10.4430   61.3420    4.0770 S.3   140  MET140     -0.1393
    202  CE        -9.6750   61.0940    5.6810 C.3   140  MET140      0.0692
    203  N        -11.9330   55.0310    4.7090 N.3   143  LYS143     -0.1245
    204  CA       -10.6930   55.0830    5.4790 C.3   143  LYS143      0.1561
    205  C        -10.9400   54.9190    7.0020 C.2   143  LYS143      0.2260
    206  O        -10.2170   54.1980    7.6870 O.2   143  LYS143     -0.2867
    207  CB        -9.9380   56.3700    5.1590 C.3   143  LYS143      0.0271
    208  CG        -9.7480   56.5750    3.6240 C.3   143  LYS143      0.0035
    209  CD        -8.7390   57.6580    3.2920 C.3   143  LYS143      0.0206
    210  CE        -8.9370   58.2190    1.8780 C.3   143  LYS143      0.1093
    211  NZ        -9.9640   57.4850    1.0680 N.3   143  LYS143     -0.1314
    212  N        -11.3560   53.1650   -3.8940 N.3   225  HIS225     -0.1241
    213  CA       -10.9180   54.5490   -3.7890 C.3   225  HIS225      0.1621
    214  C        -10.6240   55.0770   -5.1930 C.2   225  HIS225      0.2264
    215  O        -10.8150   56.2630   -5.4960 O.2   225  HIS225     -0.2867
    216  CB        -9.6750   54.6400   -2.9030 C.3   225  HIS225      0.0745
    217  CG        -9.1290   56.0230   -2.7670 C.ar  225  HIS225      0.0817
    218  ND1       -8.0090   56.4510   -3.4510 N.ar  225  HIS225     -0.2268
    219  CD2       -9.5410   57.0770   -2.0250 C.ar  225  HIS225      0.1154
    220  CE1       -7.7550   57.7060   -3.1320 C.ar  225  HIS225      0.1986
    221  NE2       -8.6690   58.1100   -2.2650 N.ar  225  HIS225     -0.2212
@<TRIPOS>BOND
     1   215   214    2
     2    37    38   ar
     3    37    35   ar
     4   214   213    1
     5    92    90   ar
     6    92    93   ar
     7    38    36   ar
     8    90    89   ar
     9   183   182   ar
    10   183   181   ar
    11    35    33   ar
    12   182   180   ar
    13    93    91   ar
    14   181   179   ar
    15   212   213    1
    16    36    34   ar
    17   213   216    1
    18    89    91   ar
    19    89    88    1
    20   218   220   ar
    21   218   217   ar
    22    33    34   ar
    23    33    32    1
    24   220   221   ar
    25   180   178   ar
    26   216   217    1
    27    88    85    1
    28   217   219   ar
    29   179   178   ar
    30    84    85    1
    31    32    29    1
    32   193   191   ar
    33   193   194   ar
    34   178   177    1
    35   221   219   ar
    36    31    30    2
    37   173   174    1
    38    30    29    1
    39    85    86    1
    40   191   189   ar
    41    60    61    1
    42    60    57    1
    43    58    59    2
    44    58    57    1
    45   194   192   ar
    46    29    28    1
    47   174   177    1
    48   174   175    1
    49    57    56    1
    50    86    87    2
    51   189   188    1
    52   189   190   ar
    53    41    42    2
    54    41    40    1
    55    28    22   am
    56    82    80    1
    57   101    99    1
    58    78    79    2
    59    78    77    1
    60   192   190   ar
    61    56    47   am
    62   188   185    1
    63    80    77    1
    64    80    81    1
    65    64    65    2
    66    64    63    1
    67    43    44    1
    68    43    40    1
    69   175   176    2
    70    45    46    1
    71    67    68    1
    72   185   184    1
    73   185   186    1
    74    39    40    1
    75    77    76    1
    76    20    21    1
    77    22    23    2
    78    22    21    1
    79    99    98    1
    80    62    63    1
    81    76    69   am
    82    47    48    2
    83    47    46    1
    84    83    81    1
    85   211   210    1
    86    63    66    1
    87   187   186    2
    88    98   100    1
    89    98    95    1
    90    46    49    1
    91    69    68    1
    92    69    70    2
    93    21    24    1
    94   186   195   am
    95    68    71    1
    96   167   168    2
    97   167   166    1
    98   210   209    1
    99    94    95    1
   100    24    26    1
   101    24    25    1
   102   169   166    1
   103   169   170    1
   104    95    96    1
   105    49    50    1
   106   171   170    1
   107   166   165    1
   108    71    72    1
   109   195   196    1
   110   209   208    1
   111    72    73    1
   112   170   172    1
   113    25    27    1
   114    96    97    2
   115   208   207    1
   116    50    51    1
   117    54    53    1
   118   196   197    1
   119   196   199    1
   120   201   200    1
   121   201   202    1
   122    74    73   ar
   123    73    75   ar
   124    51    52    1
   125   200   199    1
   126     9    11   ar
   127     9     7   ar
   128   203   204    1
   129   197   198    2
   130    11    10   ar
   131   160   159    2
   132    53    52    2
   133    53    55    1
   134   207   204    1
   135   117   115    1
   136   204   205    1
   137     7     6   ar
   138    10     8   ar
   139   108   107    1
   140   108   109    1
   141   159   158    1
   142   107   106    1
   143   115   114    1
   144   115   116    1
   145   114   111    1
   146   164   162    1
   147   102   103    1
   148     6     8   ar
   149     6     5    1
   150   106   103    1
   151   205   206    2
   152   158   161    1
   153   158   157    1
   154   161   162    1
   155   110   111    1
   156   110   104   am
   157     1     2    1
   158   103   104    1
   159   162   163    1
   160   155   156    1
   161   155   154    1
   162   111   112    1
   163     2     5    1
   164     2     3    1
   165   104   105    2
   166   147   145    1
   167   112   113    2
   168   154   153    1
   169     3     4    2
   170   145   142    1
   171   145   146    1
   172   148   146    1
   173   131   130    1
   174   124   123    1
   175   132   130    1
   176   142   143    1
   177   142   141    1
   178   153   150    1
   179   136   135    2
   180   143   144    2
   181   130   127    1
   182   123   122    1
   183   123   125    1
   184    12    13    1
   185   141   135   am
   186   135   134    1
   187   122   119    1
   188    15    14    2
   189   150   151    1
   190   150   149    1
   191    16    13    1
   192    16    17    1
   193   127   128    1
   194   127   126    1
   195   152   151    2
   196   129   128    2
   197   118   119    1
   198   128   133   am
   199    13    14    1
   200    19    17    1
   201   119   120    1
   202   133   134    1
   203   134   137    1
   204    17    18    1
   205   120   121    2
   206   137   138    1
   207   138   139    1
   208   138   140    1
