@<TRIPOS>MOLECULE
tmp/3t0fA00.pdb
 132 124 0 0 0
SMALL
GASTEIGER

@<TRIPOS>ATOM
      1  N         24.4970    6.7960  -10.1730 N.3    17  CYS17      -0.1235
      2  CA        25.2080    6.0510   -9.1730 C.3    17  CYS17       0.1677
      3  C         26.5520    6.6740   -8.7870 C.2    17  CYS17       0.2270
      4  O         26.9690    7.6790   -9.3190 O.2    17  CYS17      -0.2867
      5  CB        25.5890    4.6670   -9.7230 C.3    17  CYS17       0.0956
      6  SG        26.4680    4.7490  -11.2170 S.3    17  CYS17      -0.0801
      7  N         29.5980    5.4890   -9.0870 N.3    19  GLY19      -0.1210
      8  CA        30.6150    5.3330  -10.1350 C.3    19  GLY19       0.1956
      9  C         30.5030    6.3200  -11.2620 C.2    19  GLY19       0.2611
     10  O         31.5000    6.8260  -11.7810 O.2    19  GLY19      -0.2717
     11  N         29.3000    6.4810  -11.7760 N.am   20  VAL20      -0.1979
     12  CA        29.0790    7.4970  -12.8100 C.3    20  VAL20       0.1595
     13  C         29.3050    8.9110  -12.2850 C.2    20  VAL20       0.2287
     14  O         29.9120    9.7450  -12.9290 O.2    20  VAL20      -0.2864
     15  CB        27.5710    7.4380  -13.2740 C.3    20  VAL20       0.0276
     16  CG1       27.3210    8.7380  -14.1310 C.3    20  VAL20       0.0022
     17  CG2       27.2910    6.2120  -14.1510 C.3    20  VAL20       0.0022
     18  N         30.5500    7.5870  -19.9040 N.3    45  VAL45      -0.1231
     19  CA        29.3800    6.8060  -19.4620 C.3    45  VAL45       0.1692
     20  C         28.4290    6.7210  -20.6710 C.2    45  VAL45       0.2588
     21  O         28.5130    7.5450  -21.6010 O.2    45  VAL45      -0.2718
     22  CB        28.5860    7.4070  -18.2140 C.3    45  VAL45       0.0266
     23  CG1       29.4780    7.6650  -16.9660 C.3    45  VAL45       0.0020
     24  CG2       27.8880    8.7560  -18.5420 C.3    45  VAL45       0.0020
     25  N         27.6150    5.6870  -20.7020 N.am   46  HIS46      -0.2029
     26  CA        26.6770    5.4300  -21.8160 C.3    46  HIS46       0.1342
     27  C         25.4610    6.3480  -21.8150 C.3    46  HIS46       0.2040
     28  O         24.2410    5.8710  -21.7830 O.3    46  HIS46      -0.2185
     29  CB        26.2540    3.9790  -21.9080 C.3    46  HIS46       0.0718
     30  CG        27.3760    3.0520  -22.2360 C.ar   46  HIS46       0.0817
     31  ND1       27.3590    1.7160  -21.8780 N.ar   46  HIS46      -0.2268
     32  CD2       28.5860    3.2810  -22.8070 C.ar   46  HIS46       0.1154
     33  CE1       28.4930    1.1470  -22.2700 C.ar   46  HIS46       0.1986
     34  NE2       29.2640    2.0780  -22.8180 N.ar   46  HIS46      -0.2212
     35  N         34.2550    4.8110  -17.5590 N.3    78  ALA78      -0.1231
     36  CA        33.8010    4.1620  -16.3430 C.3    78  ALA78       0.1694
     37  C         33.6990    2.6300  -16.4870 C.2    78  ALA78       0.2592
     38  O         33.6590    1.9280  -15.5150 O.2    78  ALA78      -0.2718
     39  CB        32.3830    4.7440  -15.8640 C.3    78  ALA78       0.0304
     40  N         33.5150    2.1440  -17.7200 N.am   79  HIS79      -0.1976
     41  CA        33.2740    0.6870  -17.9890 C.3    79  HIS79       0.1656
     42  C         34.6180   -0.0930  -17.9250 C.2    79  HIS79       0.2291
     43  O         34.6070   -1.3010  -17.9580 O.2    79  HIS79      -0.2864
     44  CB        32.5290    0.4900  -19.3670 C.3    79  HIS79       0.0771
     45  CG        31.4590    1.5400  -19.6230 C.ar   79  HIS79       0.0820
     46  ND1       31.7650    2.7410  -20.2530 N.ar   79  HIS79      -0.2267
     47  CD2       30.1660    1.6480  -19.2080 C.ar   79  HIS79       0.1154
     48  CE1       30.7020    3.5060  -20.2860 C.ar   79  HIS79       0.1986
     49  NE2       29.7070    2.8610  -19.6730 N.ar   79  HIS79      -0.2212
     50  N         34.8270    2.6090  -12.7080 N.3   101  CYS101     -0.1235
     51  CA        34.1300    2.2990  -11.4880 C.3   101  CYS101      0.1677
     52  C         34.8660    1.4540  -10.5010 C.2   101  CYS101      0.2270
     53  O         35.3490    0.3870  -10.8540 O.2   101  CYS101     -0.2867
     54  CB        32.6810    1.6790  -11.6600 C.3   101  CYS101      0.0956
     55  SG        31.9310    1.6900  -10.0780 S.3   101  CYS101     -0.0801
     56  N         33.7210   -2.1930  -10.7820 N.3   104  VAL104     -0.1245
     57  CA        34.2380   -2.8850  -11.9260 C.3   104  VAL104      0.1561
     58  C         35.6940   -3.2920  -11.7250 C.2   104  VAL104      0.2260
     59  O         36.0340   -4.4630  -12.0470 O.2   104  VAL104     -0.2867
     60  CB        34.0830   -2.0150  -13.2090 C.3   104  VAL104      0.0252
     61  CG1       34.8580   -2.5840  -14.3750 C.3   104  VAL104      0.0019
     62  CG2       32.5870   -1.8780  -13.6170 C.3   104  VAL104      0.0019
     63  N         31.7810   -3.5380  -21.5250 N.3   131  ASP131     -0.1239
     64  CA        32.2620   -3.9430  -20.2190 C.3   131  ASP131      0.1674
     65  C         32.9900   -5.3250  -20.2600 C.2   131  ASP131      0.2266
     66  O         33.9500   -5.5430  -19.5090 O.2   131  ASP131     -0.2867
     67  CB        31.2130   -3.9020  -19.1150 C.3   131  ASP131      0.1410
     68  CG        31.8810   -3.7680  -17.6950 C.2   131  ASP131      0.3668
     69  OD1       32.3530   -4.7920  -17.1040 O.co2 131  ASP131     -0.2456
     70  OD2       31.9690   -2.6370  -17.1810 O.co2 131  ASP131     -0.2456
     71  N         29.1410   -9.4730  -14.6600 N.3   171  GLN171     -0.1231
     72  CA        29.1320   -8.0610  -14.9440 C.3   171  GLN171      0.1698
     73  C         28.3320   -7.3500  -13.8760 C.2   171  GLN171      0.2593
     74  O         27.5770   -7.9720  -13.1100 O.2   171  GLN171     -0.2718
     75  CB        28.4940   -7.7930  -16.2960 C.3   171  GLN171      0.0381
     76  CG        29.4010   -8.1460  -17.4910 C.3   171  GLN171      0.0905
     77  CD        28.8020   -7.5260  -18.7980 C.2   171  GLN171      0.2608
     78  OE1       27.9020   -8.1200  -19.4620 O.2   171  GLN171     -0.2717
     79  NE2       29.2450   -6.2790  -19.1250 N.am  171  GLN171     -0.0878
     80  N         28.4150   -6.0270  -13.8770 N.am  172  THR172     -0.1939
     81  CA        27.8630   -5.2900  -12.7290 C.3   172  THR172      0.2028
     82  C         26.4460   -4.7900  -13.0270 C.2   172  THR172      0.2642
     83  O         25.7550   -4.4110  -12.1460 O.2   172  THR172     -0.2714
     84  CB        28.6660   -4.0970  -12.3920 C.3   172  THR172      0.1808
     85  OG1       28.7950   -3.2510  -13.5760 O.3   172  THR172     -0.2208
     86  CG2       30.0330   -4.5190  -11.8700 C.3   172  THR172      0.0379
     87  N         26.0460   -4.6520  -14.2930 N.am  173  THR173     -0.1950
     88  CA        24.7160   -4.0870  -14.5560 C.3   173  THR173      0.1897
     89  C         23.6380   -5.0590  -14.9830 C.2   173  THR173      0.2313
     90  O         22.6680   -4.6590  -15.6490 O.2   173  THR173     -0.2863
     91  CB        24.8960   -3.1050  -15.7280 C.3   173  THR173      0.1794
     92  OG1       25.7950   -3.7650  -16.5660 O.3   173  THR173     -0.2208
     93  CG2       25.6250   -1.8930  -15.2230 C.3   173  THR173      0.0378
     94  N         22.4840    2.5210  -25.8450 N.3   229  ASN229     -0.1225
     95  CA        23.5880    1.6110  -25.4990 C.3   229  ASN229      0.1785
     96  C         23.9230    1.4690  -24.0030 C.2   229  ASN229      0.2598
     97  O         25.0120    1.0350  -23.6640 O.2   229  ASN229     -0.2718
     98  CB        24.8450    2.0450  -26.2420 C.3   229  ASN229      0.1169
     99  CG        25.3470    3.4010  -25.8170 C.2   229  ASN229      0.2627
    100  OD1       24.5780    4.2390  -25.3780 O.2   229  ASN229     -0.2716
    101  ND2       26.6680    3.6250  -25.9590 N.am  229  ASN229     -0.0877
    102  N         23.0380    1.9360  -23.1420 N.am  230  SER230     -0.1938
    103  CA        23.1910    1.7250  -21.6650 C.3   230  SER230      0.2055
    104  C         22.4760    0.4260  -21.2970 C.2   230  SER230      0.2644
    105  O         21.2630    0.3700  -21.3460 O.2   230  SER230     -0.2714
    106  CB        22.5620    2.9020  -20.9400 C.3   230  SER230      0.2130
    107  OG        22.6100    2.7060  -19.4930 O.3   230  SER230     -0.2179
    108  N         23.2650   -0.5800  -20.9420 N.am  231  SER231     -0.1935
    109  CA        22.7820   -1.9230  -20.5670 C.3   231  SER231      0.2055
    110  C         21.9800   -1.8730  -19.2070 C.2   231  SER231      0.2643
    111  O         20.9020   -2.4550  -19.0940 O.2   231  SER231     -0.2714
    112  CB        24.0120   -2.7880  -20.3910 C.3   231  SER231      0.2130
    113  OG        24.6740   -2.9670  -21.6710 O.3   231  SER231     -0.2179
    114  N         22.4470   -1.1160  -18.2050 N.am  232  ASN232     -0.1971
    115  CA        21.6160   -1.0540  -17.0210 C.3   232  ASN232      0.1688
    116  C         20.2810   -0.4310  -17.3390 C.2   232  ASN232      0.2292
    117  O         19.2160   -0.8150  -16.7580 O.2   232  ASN232     -0.2864
    118  CB        22.3550   -0.3770  -15.8370 C.3   232  ASN232      0.1181
    119  CG        22.2740    1.2030  -15.8690 C.2   232  ASN232      0.2629
    120  OD1       21.3210    1.7720  -15.3750 O.2   232  ASN232     -0.2716
    121  ND2       23.2540    1.8420  -16.4590 N.am  232  ASN232     -0.0877
    122  N         21.3730    4.4280  -14.4570 N.3   273  ALA273     -0.1231
    123  CA        22.5380    4.9260  -13.7180 C.3   273  ALA273      0.1694
    124  C         23.4080    5.9950  -14.3870 C.2   273  ALA273      0.2592
    125  O         24.1200    6.7230  -13.7320 O.2   273  ALA273     -0.2718
    126  CB        23.3510    3.6820  -13.2080 C.3   273  ALA273      0.0304
    127  N         23.3220    6.1910  -15.6830 N.am  274  SER274     -0.1952
    128  CA        24.0990    7.1890  -16.3850 C.3   274  SER274      0.1924
    129  C         23.3050    8.3800  -16.8740 C.2   274  SER274      0.2314
    130  O         23.8690    9.2420  -17.4870 O.2   274  SER274     -0.2863
    131  CB        24.8240    6.4830  -17.5200 C.3   274  SER274      0.2116
    132  OG        23.8740    5.7010  -18.2070 O.3   274  SER274     -0.2180
@<TRIPOS>BOND
     1    98    99    1
     2    98    95    1
     3   101    99   am
     4    94    95    1
     5    99   100    2
     6    95    96    1
     7    96    97    2
     8    96   102   am
     9   102   103    1
    10    34    32   ar
    11    34    33   ar
    12    32    30   ar
    13    33    31   ar
    14    30    29    1
    15    30    31   ar
    16    29    26    1
    17    26    27    1
    18    26    25    1
    19    27    28    1
    20   113   112    1
    21   103   104    1
    22   103   106    1
    23    21    20    2
    24    63    64    1
    25   105   104    2
    26   104   108   am
    27   108   109    1
    28   106   107    1
    29    25    20   am
    30    20    19    1
    31   109   112    1
    32   109   110    1
    33    48    46   ar
    34    48    49   ar
    35    65    64    1
    36    65    66    2
    37    46    45   ar
    38    64    67    1
    39    18    19    1
    40    49    47   ar
    41    45    44    1
    42    45    47   ar
    43    78    77    2
    44    19    22    1
    45    44    41    1
    46   110   111    2
    47   110   114   am
    48    79    77   am
    49    67    68    1
    50    77    76    1
    51    24    22    1
    52    22    23    1
    53   132   131    1
    54   114   115    1
    55    41    42    1
    56    41    40    1
    57    43    42    2
    58    40    37   am
    59    68    70   ar
    60    68    69   ar
    61    35    36    1
    62   131   128    1
    63    76    75    1
    64   130   129    2
    65   116   115    1
    66   116   117    2
    67   115   118    1
    68   129   128    1
    69    92    91    1
    70    37    36    1
    71    37    38    2
    72   121   119   am
    73   128   127    1
    74    36    39    1
    75    75    72    1
    76   119   118    1
    77   119   120    2
    78    91    93    1
    79    91    88    1
    80   127   124   am
    81    90    89    2
    82    89    88    1
    83    72    71    1
    84    72    73    1
    85    88    87    1
    86   122   123    1
    87   124   125    2
    88   124   123    1
    89    61    60    1
    90    87    82   am
    91    17    15    1
    92    16    15    1
    93    80    73   am
    94    80    81    1
    95    73    74    2
    96   123   126    1
    97    62    60    1
    98    85    84    1
    99    15    12    1
   100    60    57    1
   101    82    81    1
   102    82    83    2
   103    14    13    2
   104    12    13    1
   105    12    11    1
   106    81    84    1
   107    50    51    1
   108    84    86    1
   109    59    58    2
   110    57    58    1
   111    57    56    1
   112    10     9    2
   113    11     9   am
   114    54    51    1
   115    54    55    1
   116    51    52    1
   117     9     8    1
   118     6     5    1
   119    53    52    2
   120     1     2    1
   121     8     7    1
   122     5     2    1
   123     4     3    2
   124     2     3    1
