@<TRIPOS>MOLECULE
tmp/3t0iB00.pdb
 190 185 0 0 0
SMALL
GASTEIGER

@<TRIPOS>ATOM
      1  N         32.7370  -25.4340  -54.9000 N.3     5  CYS5       -0.1235
      2  CA        33.5080  -24.7970  -53.8460 C.3     5  CYS5        0.1677
      3  C         34.1650  -23.5060  -54.3190 C.2     5  CYS5        0.2270
      4  O         34.4330  -22.6120  -53.5140 O.2     5  CYS5       -0.2867
      5  CB        34.5480  -25.7720  -53.2990 C.3     5  CYS5        0.0956
      6  SG        33.8490  -27.0770  -52.2590 S.3     5  CYS5       -0.0801
      7  N         30.0650  -15.5900  -46.4870 N.3    13  ARG13      -0.1231
      8  CA        29.5530  -16.6820  -45.6550 C.3    13  ARG13       0.1694
      9  C         29.1090  -17.8550  -46.5170 C.2    13  ARG13       0.2592
     10  O         28.5230  -17.6650  -47.5900 O.2    13  ARG13      -0.2718
     11  CB        28.3600  -16.2220  -44.8000 C.3    13  ARG13       0.0321
     12  CG        28.7250  -15.2700  -43.6640 C.3    13  ARG13       0.0489
     13  CD        29.6830  -15.9180  -42.6790 C.3    13  ARG13       0.2205
     14  NE        29.1030  -17.0720  -41.9900 N.pl3  13  ARG13      -0.0865
     15  CZ        28.2970  -16.9870  -40.9330 C.cat  13  ARG13       0.5346
     16  NH1       27.9740  -15.8030  -40.4410 N.pl3  13  ARG13       0.1354
     17  NH2       27.8260  -18.0850  -40.3580 N.pl3  13  ARG13       0.1354
     18  N         29.3860  -19.0680  -46.0410 N.am   14  GLN14      -0.1966
     19  CA        29.0120  -20.2800  -46.7610 C.3    14  GLN14       0.1733
     20  C         27.7730  -20.9110  -46.1340 C.2    14  GLN14       0.2617
     21  O         27.3470  -22.0050  -46.5260 O.2    14  GLN14      -0.2715
     22  CB        30.1650  -21.2880  -46.7500 C.3    14  GLN14       0.0408
     23  CG        31.3840  -20.8890  -47.5740 C.3    14  GLN14       0.0908
     24  CD        32.1100  -19.6940  -47.0110 C.2    14  GLN14       0.2608
     25  OE1       32.5300  -19.7050  -45.8540 O.2    14  GLN14      -0.2717
     26  NE2       32.2710  -18.6540  -47.8260 N.am   14  GLN14      -0.0878
     27  N         27.1970  -20.2210  -45.1530 N.am   15  GLY15      -0.1941
     28  CA        26.0030  -20.7270  -44.4920 C.3    15  GLY15       0.1998
     29  C         25.2290  -19.6360  -43.7610 C.2    15  GLY15       0.2480
     30  O         25.7620  -18.5510  -43.4930 O.2    15  GLY15      -0.2729
     31  N         23.9590  -19.8900  -43.4220 N.am   16  PRO16      -0.2726
     32  CA        23.1360  -18.9050  -42.7190 C.3    16  PRO16       0.1402
     33  C         23.7660  -18.4510  -41.4000 C.2    16  PRO16       0.2269
     34  O         24.4170  -19.2350  -40.7120 O.2    16  PRO16      -0.2865
     35  CB        21.8190  -19.6540  -42.5130 C.3    16  PRO16       0.0296
     36  CG        21.7640  -20.5590  -43.6870 C.3    16  PRO16       0.0237
     37  CD        23.1700  -21.0860  -43.7570 C.3    16  PRO16       0.0939
     38  N         35.1390  -25.2920  -36.0720 N.3    41  ILE41      -0.1231
     39  CA        35.1210  -26.4320  -36.9800 C.3    41  ILE41       0.1692
     40  C         34.1930  -26.2240  -38.1670 C.2    41  ILE41       0.2593
     41  O         33.0120  -25.9040  -38.0020 O.2    41  ILE41      -0.2718
     42  CB        34.7070  -27.6960  -36.2150 C.3    41  ILE41       0.0266
     43  CG1       35.5810  -27.8350  -34.9720 C.3    41  ILE41       0.0019
     44  CG2       34.8760  -28.9360  -37.0930 C.3    41  ILE41       0.0020
     45  CD1       35.0760  -28.8690  -33.9890 C.3    41  ILE41       0.0001
     46  N         34.7310  -26.4140  -39.3690 N.am   42  GLY42      -0.1942
     47  CA        33.9300  -26.2200  -40.5600 C.3    42  GLY42       0.2014
     48  C         33.7950  -24.7320  -40.7990 C.2    42  GLY42       0.2639
     49  O         32.8040  -24.2660  -41.3670 O.2    42  GLY42      -0.2714
     50  N         34.8210  -24.0010  -40.3720 N.am   43  CYS43      -0.1953
     51  CA        34.8830  -22.5520  -40.4790 C.3    43  CYS43       0.1843
     52  C         34.6720  -21.9640  -41.8710 C.2    43  CYS43       0.2626
     53  O         34.2930  -20.7980  -42.0030 O.2    43  CYS43      -0.2714
     54  CB        36.2240  -22.0550  -39.9300 C.3    43  CYS43       0.0997
     55  SG        37.6720  -22.6420  -40.8140 S.3    43  CYS43      -0.0797
     56  N         34.9150  -22.7620  -42.9080 N.am   44  GLY44      -0.1954
     57  CA        34.7620  -22.2590  -44.2640 C.3    44  GLY44       0.1869
     58  C         35.7830  -21.1580  -44.4880 C.2    44  GLY44       0.2309
     59  O         36.9610  -21.3340  -44.1650 O.2    44  GLY44      -0.2863
     60  N         34.1040  -16.3860  -42.1430 N.3    47  GLY47      -0.1210
     61  CA        33.2540  -15.2260  -41.9540 C.3    47  GLY47       0.1956
     62  C         32.7810  -15.0750  -40.5220 C.2    47  GLY47       0.2611
     63  O         32.8650  -13.9890  -39.9410 O.2    47  GLY47      -0.2717
     64  N         32.2740  -16.1590  -39.9400 N.am   48  GLN48      -0.1979
     65  CA        31.8010  -16.0990  -38.5600 C.3    48  GLN48       0.1601
     66  C         32.9600  -16.1670  -37.5580 C.2    48  GLN48       0.2287
     67  O         32.8150  -15.7650  -36.4040 O.2    48  GLN48      -0.2864
     68  CB        30.7880  -17.2260  -38.2700 C.3    48  GLN48       0.0394
     69  CG        31.3660  -18.6460  -38.1420 C.3    48  GLN48       0.0908
     70  CD        31.9990  -19.1590  -39.4300 C.2    48  GLN48       0.2608
     71  OE1       31.5050  -18.8860  -40.5260 O.2    48  GLN48      -0.2717
     72  NE2       33.0890  -19.9180  -39.3010 N.am   48  GLN48      -0.0878
     73  N         39.2770  -24.7140  -38.6250 N.3    63  ILE63      -0.1231
     74  CA        39.5180  -25.9950  -39.2880 C.3    63  ILE63       0.1692
     75  C         38.4350  -26.2640  -40.3260 C.2    63  ILE63       0.2592
     76  O         37.2400  -26.1610  -40.0310 O.2    63  ILE63      -0.2718
     77  CB        39.5170  -27.1680  -38.2900 C.3    63  ILE63       0.0266
     78  CG1       40.5930  -26.9460  -37.2330 C.3    63  ILE63       0.0019
     79  CG2       39.7650  -28.4790  -39.0330 C.3    63  ILE63       0.0020
     80  CD1       40.7100  -28.0730  -36.2560 C.3    63  ILE63       0.0001
     81  N         38.8680  -26.6080  -41.5300 N.am   64  ASP64      -0.1960
     82  CA        37.9570  -26.8940  -42.6280 C.3    64  ASP64       0.1840
     83  C         38.5970  -27.8920  -43.5690 C.2    64  ASP64       0.2622
     84  O         39.8260  -27.9910  -43.6510 O.2    64  ASP64      -0.2715
     85  CB        37.6170  -25.6110  -43.3750 C.3    64  ASP64       0.1450
     86  CG        36.4120  -25.7650  -44.2810 C.2    64  ASP64       0.3671
     87  OD1       35.2780  -25.8480  -43.7710 O.co2  64  ASP64      -0.2456
     88  OD2       36.6020  -25.7980  -45.5090 O.co2  64  ASP64      -0.2456
     89  N         37.7680  -28.6590  -44.2650 N.am   65  LEU65      -0.1963
     90  CA        38.2720  -29.6900  -45.1570 C.3    65  LEU65       0.1728
     91  C         38.8190  -29.1540  -46.4810 C.2    65  LEU65       0.2616
     92  O         39.7590  -29.7210  -47.0620 O.2    65  LEU65      -0.2715
     93  CB        37.1790  -30.7370  -45.4300 C.3    65  LEU65       0.0311
     94  CG        37.5810  -32.0030  -46.1990 C.3    65  LEU65       0.0022
     95  CD1       38.4480  -32.9020  -45.3070 C.3    65  LEU65       0.0001
     96  CD2       36.3190  -32.7350  -46.6220 C.3    65  LEU65       0.0001
     97  N         38.2500  -28.0510  -46.9490 N.am   66  PHE66      -0.1974
     98  CA        38.6350  -27.4430  -48.2180 C.3    66  PHE66       0.1639
     99  C         39.7860  -26.4490  -48.0720 C.2    66  PHE66       0.2290
    100  O         39.5890  -25.3450  -47.5850 O.2    66  PHE66      -0.2864
    101  CB        37.4080  -26.7490  -48.8200 C.3    66  PHE66       0.0560
    102  CG        37.5660  -26.3560  -50.2600 C.ar   66  PHE66      -0.0200
    103  CD1       38.0600  -27.2620  -51.1960 C.ar   66  PHE66      -0.0042
    104  CD2       37.1810  -25.0840  -50.6940 C.ar   66  PHE66      -0.0042
    105  CE1       38.1710  -26.9110  -52.5510 C.ar   66  PHE66      -0.0003
    106  CE2       37.2870  -24.7230  -52.0430 C.ar   66  PHE66      -0.0003
    107  CZ        37.7820  -25.6380  -52.9710 C.ar   66  PHE66      -0.0000
    108  N         39.5030  -22.7280  -48.9080 N.3    69  PHE69      -0.1241
    109  CA        38.8040  -21.8950  -47.9270 C.3    69  PHE69       0.1605
    110  C         39.7850  -21.3960  -46.8660 C.2    69  PHE69       0.2264
    111  O         39.7120  -20.2440  -46.4210 O.2    69  PHE69      -0.2867
    112  CB        37.6710  -22.6700  -47.2380 C.3    69  PHE69       0.0534
    113  CG        36.4300  -22.8320  -48.0790 C.ar   69  PHE69      -0.0203
    114  CD1       36.2250  -22.0480  -49.2140 C.ar   69  PHE69      -0.0042
    115  CD2       35.4540  -23.7670  -47.7240 C.ar   69  PHE69      -0.0042
    116  CE1       35.0770  -22.1920  -49.9820 C.ar   69  PHE69      -0.0003
    117  CE2       34.3010  -23.9170  -48.4870 C.ar   69  PHE69      -0.0003
    118  CZ        34.1090  -23.1280  -49.6210 C.ar   69  PHE69      -0.0000
    119  N         41.7170  -29.6250  -42.2520 N.3    91  GLY91      -0.1210
    120  CA        41.6030  -30.7840  -41.3930 C.3    91  GLY91       0.1956
    121  C         40.2490  -31.4340  -41.5580 C.2    91  GLY91       0.2613
    122  O         39.3520  -30.8750  -42.1980 O.2    91  GLY91      -0.2717
    123  N         40.0930  -32.6170  -40.9780 N.am   92  SER92      -0.1938
    124  CA        38.8380  -33.3280  -41.0720 C.3    92  SER92       0.2055
    125  C         38.0960  -33.2860  -39.7410 C.2    92  SER92       0.2643
    126  O         38.7010  -33.3100  -38.6650 O.2    92  SER92      -0.2714
    127  CB        39.0810  -34.7730  -41.4950 C.3    92  SER92       0.2130
    128  OG        37.8450  -35.4310  -41.7160 O.3    92  SER92      -0.2179
    129  N         36.7750  -33.2350  -39.8400 N.am   93  MET93      -0.1962
    130  CA        35.8790  -33.1680  -38.6960 C.3    93  MET93       0.1736
    131  C         35.9110  -34.4190  -37.8040 C.2    93  MET93       0.2616
    132  O         35.6520  -34.3360  -36.5980 O.2    93  MET93      -0.2715
    133  CB        34.4700  -32.9410  -39.2240 C.3    93  MET93       0.0427
    134  CG        33.5920  -32.1050  -38.3590 C.3    93  MET93       0.0599
    135  SD        32.2100  -31.5960  -39.3320 S.3    93  MET93      -0.1393
    136  CE        32.7980  -30.1060  -40.0440 C.3    93  MET93       0.0692
    137  N         36.2000  -35.5780  -38.3940 N.am   94  ASP94      -0.1971
    138  CA        36.2760  -36.8130  -37.6160 C.3    94  ASP94       0.1709
    139  C         37.7060  -37.1420  -37.1810 C.2    94  ASP94       0.2293
    140  O         37.9740  -38.2420  -36.7090 O.2    94  ASP94      -0.2864
    141  CB        35.7020  -37.9920  -38.4070 C.3    94  ASP94       0.1436
    142  CG        36.3700  -38.1820  -39.7570 C.2    94  ASP94       0.3671
    143  OD1       37.4650  -37.6100  -39.9860 O.co2  94  ASP94      -0.2456
    144  OD2       35.7950  -38.9230  -40.5860 O.co2  94  ASP94      -0.2456
    145  N         29.4890  -23.3370  -37.0430 N.3   109  GLU109     -0.1231
    146  CA        28.2510  -22.8450  -37.6140 C.3   109  GLU109      0.1699
    147  C         27.9180  -23.5470  -38.9140 C.2   109  GLU109      0.2593
    148  O         28.7160  -23.5580  -39.8480 O.2   109  GLU109     -0.2718
    149  CB        28.3400  -21.3280  -37.8270 C.3   109  GLU109      0.0402
    150  CG        28.5900  -20.5540  -36.5340 C.3   109  GLU109      0.1161
    151  CD        28.1770  -19.0900  -36.6050 C.2   109  GLU109      0.3649
    152  OE1       28.5630  -18.3170  -35.7000 O.co2 109  GLU109     -0.2457
    153  OE2       27.4610  -18.7090  -37.5510 O.co2 109  GLU109     -0.2457
    154  N         26.7340  -24.1480  -38.9530 N.am  110  GLY110     -0.1942
    155  CA        26.2760  -24.8540  -40.1360 C.3   110  GLY110      0.2014
    156  C         27.2760  -25.8150  -40.7400 C.2   110  GLY110      0.2638
    157  O         27.4350  -25.8570  -41.9580 O.2   110  GLY110     -0.2714
    158  N         27.9370  -26.6000  -39.8980 N.am  111  ALA111     -0.1977
    159  CA        28.9160  -27.5500  -40.3940 C.3   111  ALA111      0.1597
    160  C         28.8590  -28.9180  -39.7130 C.2   111  ALA111      0.2287
    161  O         29.2680  -29.9260  -40.2960 O.2   111  ALA111     -0.2864
    162  CB        30.3250  -26.9520  -40.2620 C.3   111  ALA111      0.0319
    163  N         26.6190  -30.8860  -39.3980 N.3   113  TYR113     -0.1227
    164  CA        25.8070  -31.8310  -40.1490 C.3   113  TYR113      0.1736
    165  C         26.6790  -32.7990  -40.9440 C.2   113  TYR113      0.2595
    166  O         26.2610  -33.9170  -41.2330 O.2   113  TYR113     -0.2718
    167  CB        24.8630  -31.0800  -41.0880 C.3   113  TYR113      0.0548
    168  CG        25.5290  -30.4600  -42.2990 C.ar  113  TYR113     -0.0200
    169  CD1       25.8480  -31.2300  -43.4200 C.ar  113  TYR113     -0.0009
    170  CD2       25.8450  -29.1060  -42.3230 C.ar  113  TYR113     -0.0009
    171  CE1       26.4690  -30.6620  -44.5350 C.ar  113  TYR113      0.0417
    172  CE2       26.4620  -28.5310  -43.4260 C.ar  113  TYR113      0.0417
    173  CZ        26.7740  -29.3080  -44.5270 C.ar  113  TYR113      0.1957
    174  OH        27.4060  -28.7130  -45.5930 O.3   113  TYR113     -0.2866
    175  N         27.8910  -32.3690  -41.2900 N.am  114  ASN114     -0.1960
    176  CA        28.8040  -33.2120  -42.0520 C.3   114  ASN114      0.1819
    177  C         29.2050  -34.5120  -41.3450 C.2   114  ASN114      0.2621
    178  O         29.6890  -35.4430  -41.9920 O.2   114  ASN114     -0.2715
    179  CB        30.0540  -32.4190  -42.4590 C.3   114  ASN114      0.1195
    180  CG        29.7520  -31.3450  -43.5020 C.2   114  ASN114      0.2630
    181  OD1       29.4480  -30.1980  -43.1700 O.2   114  ASN114     -0.2716
    182  ND2       29.8230  -31.7230  -44.7740 N.am  114  ASN114     -0.0877
    183  N         29.0100  -34.5810  -40.0300 N.am  115  ILE115     -0.1977
    184  CA        29.3270  -35.7980  -39.2810 C.3   115  ILE115      0.1596
    185  C         28.1570  -36.2120  -38.4080 C.2   115  ILE115      0.2287
    186  O         28.2080  -37.2510  -37.7470 O.2   115  ILE115     -0.2864
    187  CB        30.5340  -35.6330  -38.3610 C.3   115  ILE115      0.0276
    188  CG1       30.3910  -34.3470  -37.5560 C.3   115  ILE115      0.0022
    189  CG2       31.8120  -35.6870  -39.1710 C.3   115  ILE115      0.0022
    190  CD1       31.3420  -34.2460  -36.4140 C.3   115  ILE115      0.0001
@<TRIPOS>BOND
     1     1     2    1
     2     3     2    1
     3     3     4    2
     4     2     5    1
     5     5     6    1
     6   107   105   ar
     7   107   106   ar
     8   105   103   ar
     9   106   104   ar
    10   103   102   ar
    11   104   102   ar
    12   102   101    1
    13   116   118   ar
    14   116   114   ar
    15   118   117   ar
    16   114   113   ar
    17   108   109    1
    18   101    98    1
    19   117   115   ar
    20    98    99    1
    21    98    97    1
    22   113   115   ar
    23   113   112    1
    24    99   100    2
    25   109   112    1
    26   109   110    1
    27    26    24   am
    28    10     9    2
    29    23    24    1
    30    23    22    1
    31    92    91    2
    32    24    25    2
    33    97    91   am
    34   110   111    2
    35    19    22    1
    36    19    20    1
    37    19    18    1
    38    96    94    1
    39    21    20    2
    40     9    18   am
    41     9     8    1
    42     7     8    1
    43    91    90    1
    44    94    93    1
    45    94    95    1
    46    20    27   am
    47     8    11    1
    48   174   173    1
    49    88    86   ar
    50    93    90    1
    51    90    89    1
    52    27    28    1
    53    11    12    1
    54   182   180   am
    55   171   173   ar
    56   171   169   ar
    57   173   172   ar
    58    28    29    1
    59    58    57    1
    60    58    59    2
    61    86    87   ar
    62    86    85    1
    63    89    83   am
    64    57    56    1
    65    29    30    2
    66    29    31   am
    67    37    36    1
    68    37    31    1
    69    36    35    1
    70    12    13    1
    71    84    83    2
    72    83    82    1
    73   180   181    2
    74   180   179    1
    75   172   170   ar
    76    31    32    1
    77   169   168   ar
    78    85    82    1
    79    56    52   am
    80    32    35    1
    81    32    33    1
    82    13    14    1
    83    82    81    1
    84   179   176    1
    85   170   168   ar
    86   168   167    1
    87   119   120    1
    88   122   121    2
    89    60    61    1
    90   176   177    1
    91   176   175    1
    92    53    52    2
    93   178   177    2
    94    14    15    2
    95   157   156    2
    96    61    62    1
    97    52    51    1
    98   128   127    1
    99   121   120    1
   100   121   123   am
   101    81    75   am
   102   127   124    1
   103    33    34    2
   104    49    48    2
   105   177   183   am
   106   175   165   am
   107   166   165    2
   108   167   164    1
   109   124   123    1
   110   124   125    1
   111   165   164    1
   112    15    16    1
   113    15    17    1
   114    55    54    1
   115    48    47    1
   116    48    50   am
   117   156   155    1
   118   156   158   am
   119   144   142   ar
   120    47    46    1
   121    71    70    2
   122    62    63    2
   123    62    64   am
   124    51    50    1
   125    51    54    1
   126   159   162    1
   127   159   158    1
   128   159   160    1
   129    75    76    2
   130    75    74    1
   131   161   160    2
   132   164   163    1
   133   155   154    1
   134   136   135    1
   135   183   184    1
   136   143   142   ar
   137    64    65    1
   138   148   147    2
   139   129   125   am
   140   129   130    1
   141   142   141    1
   142   125   126    2
   143    70    72   am
   144    70    69    1
   145    46    40   am
   146   135   134    1
   147    74    73    1
   148    74    77    1
   149   184   185    1
   150   184   187    1
   151   133   130    1
   152   133   134    1
   153   189   187    1
   154    79    77    1
   155   154   147   am
   156   147   146    1
   157   130   131    1
   158    65    68    1
   159    65    66    1
   160   185   186    2
   161   141   138    1
   162   137   131   am
   163   137   138    1
   164   187   188    1
   165    77    78    1
   166    68    69    1
   167    40    41    2
   168    40    39    1
   169   149   146    1
   170   149   150    1
   171   131   132    2
   172   138   139    1
   173   146   145    1
   174    66    67    2
   175   188   190    1
   176   153   151   ar
   177    78    80    1
   178   139   140    2
   179    44    42    1
   180    39    42    1
   181    39    38    1
   182   151   150    1
   183   151   152   ar
   184    42    43    1
   185    43    45    1
