@<TRIPOS>MOLECULE
tmp/3t0jA02.pdb
 108 103 0 0 0
SMALL
GASTEIGER

@<TRIPOS>ATOM
      1  N        -14.8700  -20.0090   52.0700 N.3    80  ASP80      -0.1225
      2  CA       -13.5990  -20.6510   52.3020 C.3    80  ASP80       0.1805
      3  C        -12.7220  -20.2760   51.0980 C.2    80  ASP80       0.2598
      4  O        -12.9570  -20.7320   49.9770 O.2    80  ASP80      -0.2718
      5  CB       -13.7900  -22.1580   52.4830 C.3    80  ASP80       0.1424
      6  CG       -12.5010  -22.8680   52.6440 C.2    80  ASP80       0.3668
      7  OD1      -11.8980  -22.7530   53.7060 O.co2  80  ASP80      -0.2456
      8  OD2      -12.0450  -23.5130   51.6880 O.co2  80  ASP80      -0.2456
      9  N        -11.7610  -19.3860   51.3340 N.am   81  GLY81      -0.1942
     10  CA       -10.9510  -18.8360   50.2670 C.3    81  GLY81       0.2014
     11  C        -11.1270  -17.3320   50.1790 C.2    81  GLY81       0.2640
     12  O        -11.4370  -16.7730   49.1230 O.2    81  GLY81      -0.2714
     13  N        -10.8930  -16.6490   51.2800 N.am   82  THR82      -0.1936
     14  CA       -11.1810  -15.2260   51.3040 C.3    82  THR82       0.2028
     15  C        -10.2680  -14.4320   50.3630 C.2    82  THR82       0.2642
     16  O        -10.7430  -13.4780   49.6690 O.2    82  THR82      -0.2714
     17  CB       -11.2990  -14.6820   52.7580 C.3    82  THR82       0.1808
     18  OG1      -10.1680  -15.0980   53.5200 O.3    82  THR82      -0.2208
     19  CG2      -12.5340  -15.3170   53.4470 C.3    82  THR82       0.0379
     20  N         -9.0000  -14.8570   50.2710 N.am   83  LEU83      -0.1977
     21  CA        -8.0570  -14.2490   49.3380 C.3    83  LEU83       0.1596
     22  C         -8.4730  -14.4440   47.8640 C.2    83  LEU83       0.2287
     23  O         -8.4810  -13.4870   47.0630 O.2    83  LEU83      -0.2864
     24  CB        -6.6490  -14.7290   49.5960 C.3    83  LEU83       0.0297
     25  CG        -5.8880  -13.9170   50.6460 C.3    83  LEU83       0.0022
     26  CD1       -4.4240  -14.3660   50.7350 C.3    83  LEU83       0.0001
     27  CD2       -5.9690  -12.3410   50.3870 C.3    83  LEU83       0.0001
     28  N          0.5550  -25.1820   49.8040 N.3   149  ASN149     -0.1240
     29  CA         0.9350  -23.7940   49.5040 C.3   149  ASN149      0.1653
     30  C          2.4330  -23.5930   49.6370 C.2   149  ASN149      0.2266
     31  O          3.0220  -23.9530   50.6590 O.2   149  ASN149     -0.2867
     32  CB         0.2090  -22.8140   50.3850 C.3   149  ASN149      0.1155
     33  CG         0.3600  -21.3630   49.9140 C.2   149  ASN149      0.2627
     34  OD1       -0.6320  -20.6740   49.6990 O.2   149  ASN149     -0.2716
     35  ND2        1.5820  -20.8870   49.7860 N.am  149  ASN149     -0.0877
     36  N          4.0720  -21.1730   50.5400 N.3   151  ASN151     -0.1225
     37  CA         4.4680  -20.4840   51.7650 C.3   151  ASN151      0.1785
     38  C          4.9660  -21.3520   52.8920 C.2   151  ASN151      0.2597
     39  O          5.8570  -20.9490   53.6120 O.2   151  ASN151     -0.2718
     40  CB         3.3260  -19.6550   52.2780 C.3   151  ASN151      0.1169
     41  CG         3.2780  -18.3440   51.6280 C.2   151  ASN151      0.2627
     42  OD1        4.1530  -17.5120   51.8750 O.2   151  ASN151     -0.2716
     43  ND2        2.2770  -18.1260   50.7500 N.am  151  ASN151     -0.0877
     44  N          4.3920  -22.5440   53.0420 N.am  152  TRP152     -0.1976
     45  CA         4.7990  -23.4640   54.0810 C.3   152  TRP152      0.1640
     46  C          6.2110  -23.9560   53.8730 C.2   152  TRP152      0.2290
     47  O          6.8820  -24.3140   54.8450 O.2   152  TRP152     -0.2864
     48  CB         3.8530  -24.6570   54.1480 C.3   152  TRP152      0.0576
     49  CG         2.4610  -24.2470   54.3800 C.ar  152  TRP152      0.0006
     50  CD1        1.3840  -24.6420   53.6810 C.ar  152  TRP152      0.0946
     51  CD2        1.9900  -23.2980   55.3560 C.ar  152  TRP152      0.0152
     52  NE1        0.2590  -24.0190   54.1460 N.ar  152  TRP152     -0.2442
     53  CE2        0.5940  -23.1890   55.1790 C.ar  152  TRP152      0.0810
     54  CE3        2.6150  -22.5410   56.3770 C.ar  152  TRP152      0.0012
     55  CZ2       -0.2140  -22.3840   55.9950 C.ar  152  TRP152      0.0191
     56  CZ3        1.8220  -21.7230   57.1910 C.ar  152  TRP152      0.0001
     57  CH2        0.4090  -21.6510   56.9870 C.ar  152  TRP152      0.0015
     58  N         -5.6690  -22.5970   47.1600 N.3   176  GLY176     -0.1210
     59  CA        -6.0120  -21.5360   48.0810 C.3   176  GLY176      0.1956
     60  C         -7.4510  -21.5090   48.5920 C.2   176  GLY176      0.2613
     61  O         -7.9200  -20.4520   49.0300 O.2   176  GLY176     -0.2717
     62  N         -8.1510  -22.6450   48.5350 N.am  177  SER177     -0.1938
     63  CA        -9.3810  -22.9010   49.3300 C.3   177  SER177      0.2055
     64  C         -9.2940  -24.3320   49.8720 C.2   177  SER177      0.2642
     65  O         -9.6250  -25.2850   49.1690 O.2   177  SER177     -0.2714
     66  CB       -10.6830  -22.7320   48.4990 C.3   177  SER177      0.2130
     67  OG       -11.7840  -23.5010   49.0210 O.3   177  SER177     -0.2179
     68  N         -8.8290  -24.4880   51.1080 N.am  178  ALA178     -0.1977
     69  CA        -8.6540  -25.8230   51.7220 C.3   178  ALA178      0.1597
     70  C         -9.8620  -26.7450   51.4630 C.2   178  ALA178      0.2287
     71  O         -9.6910  -27.8790   51.0120 O.2   178  ALA178     -0.2864
     72  CB        -8.4000  -25.6730   53.2030 C.3   178  ALA178      0.0319
     73  N         -9.6760  -27.8950   48.2160 N.3   181  GLU181     -0.1245
     74  CA        -8.5150  -28.7360   48.0750 C.3   181  GLU181      0.1567
     75  C         -8.7780  -30.1540   48.6380 C.2   181  GLU181      0.2260
     76  O         -8.3260  -31.1620   48.0720 O.2   181  GLU181     -0.2867
     77  CB        -7.2680  -28.0460   48.6540 C.3   181  GLU181      0.0388
     78  CG        -6.6360  -27.0590   47.6370 C.3   181  GLU181      0.1160
     79  CD        -5.8370  -25.9260   48.2880 C.2   181  GLU181      0.3649
     80  OE1       -6.3310  -25.3610   49.2850 O.co2 181  GLU181     -0.2457
     81  OE2       -4.7230  -25.5940   47.7840 O.co2 181  GLU181     -0.2457
     82  N         -2.2730  -25.7940   59.4140 N.3   197  ARG197     -0.1231
     83  CA        -3.3470  -25.1370   60.1770 C.3   197  ARG197      0.1694
     84  C         -4.6030  -25.0130   59.3620 C.2   197  ARG197      0.2591
     85  O         -4.5770  -24.5310   58.2280 O.2   197  ARG197     -0.2718
     86  CB        -2.9600  -23.7090   60.6820 C.3   197  ARG197      0.0321
     87  CG        -2.2000  -22.8310   59.6790 C.3   197  ARG197      0.0489
     88  CD        -3.0270  -21.6340   59.1200 C.3   197  ARG197      0.2205
     89  NE        -3.7220  -21.8470   57.8340 N.pl3 197  ARG197     -0.0865
     90  CZ        -3.6440  -21.0040   56.8070 C.cat 197  ARG197      0.5346
     91  NH1       -2.8940  -19.9060   56.9350 N.pl3 197  ARG197      0.1354
     92  NH2       -4.3130  -21.2330   55.6620 N.pl3 197  ARG197      0.1354
     93  N         -5.7040  -25.4130   59.9700 N.am  198  LEU198     -0.1980
     94  CA        -7.0160  -25.2040   59.4280 C.3   198  LEU198      0.1596
     95  C         -7.9860  -25.1830   60.5910 C.2   198  LEU198      0.2287
     96  O         -7.7470  -25.7900   61.6320 O.2   198  LEU198     -0.2864
     97  CB        -7.3830  -26.3670   58.5130 C.3   198  LEU198      0.0297
     98  CG        -8.1070  -26.0260   57.2210 C.3   198  LEU198      0.0022
     99  CD1       -7.4010  -24.8500   56.4660 C.3   198  LEU198      0.0001
    100  CD2       -8.2350  -27.2760   56.3600 C.3   198  LEU198      0.0001
    101  N        -13.4410  -25.2080   57.9680 N.3   202  ASP202     -0.1239
    102  CA       -12.8390  -25.4560   56.6520 C.3   202  ASP202      0.1674
    103  C        -12.6180  -26.9250   56.2350 C.2   202  ASP202      0.2266
    104  O        -12.4840  -27.1990   55.0550 O.2   202  ASP202     -0.2867
    105  CB       -11.5670  -24.6330   56.5180 C.3   202  ASP202      0.1410
    106  CG       -11.8540  -23.1340   56.5980 C.2   202  ASP202      0.3668
    107  OD1      -11.1110  -22.3730   57.2880 O.co2 202  ASP202     -0.2456
    108  OD2      -12.8680  -22.7360   55.9870 O.co2 202  ASP202     -0.2456
@<TRIPOS>BOND
     1    23    22    2
     2    58    59    1
     3    78    79    1
     4    78    77    1
     5    81    79   ar
     6    22    21    1
     7    76    75    2
     8    74    73    1
     9    74    75    1
    10    74    77    1
    11    59    60    1
    12    79    80   ar
    13    66    67    1
    14    66    63    1
    15    62    60   am
    16    62    63    1
    17    60    61    2
    18    12    11    2
    19    65    64    2
    20    63    64    1
    21    21    24    1
    22    21    20    1
    23    29    30    1
    24    29    28    1
    25    29    32    1
    26    24    25    1
    27    30    31    2
    28    16    15    2
    29    34    33    2
    30    35    33   am
    31    64    68   am
    32    33    32    1
    33     4     3    2
    34    11    10    1
    35    11    13   am
    36    10     9    1
    37    20    15   am
    38    15    14    1
    39    27    25    1
    40    36    37    1
    41    25    26    1
    42    43    41   am
    43    71    70    2
    44     3     9   am
    45     3     2    1
    46    68    69    1
    47    13    14    1
    48    14    17    1
    49    70    69    1
    50    41    42    2
    51    41    40    1
    52     8     6   ar
    53    69    72    1
    54    37    40    1
    55    37    38    1
    56     1     2    1
    57     2     5    1
    58     5     6    1
    59     6     7   ar
    60    17    19    1
    61    17    18    1
    62    38    44   am
    63    38    39    2
    64    44    45    1
    65    50    52   ar
    66    50    49   ar
    67    46    45    1
    68    46    47    2
    69    45    48    1
    70    52    53   ar
    71    48    49    1
    72    49    51   ar
    73   104   103    2
    74    53    51   ar
    75    53    55   ar
    76    51    54   ar
    77    92    90    1
    78   108   106   ar
    79    55    57   ar
    80   103   102    1
    81   100    98    1
    82    54    56   ar
    83    99    98    1
    84   105   106    1
    85   105   102    1
    86   106   107   ar
    87   102   101    1
    88    90    91    1
    89    90    89    2
    90    57    56   ar
    91    98    97    1
    92    89    88    1
    93    85    84    2
    94    97    94    1
    95    88    87    1
    96    84    93   am
    97    84    83    1
    98    82    83    1
    99    94    93    1
   100    94    95    1
   101    87    86    1
   102    83    86    1
   103    95    96    2
