@<TRIPOS>MOLECULE
tmp/3t0jD00.pdb
 84 76 0 0 0
SMALL
GASTEIGER

@<TRIPOS>ATOM
      1  N        -36.9760  -15.4080   35.5620 N.3   109  ASP109     -0.1239
      2  CA       -36.6150  -16.3780   34.5180 C.3   109  ASP109      0.1674
      3  C        -35.6390  -17.4020   35.1040 C.2   109  ASP109      0.2266
      4  O        -34.4140  -17.1700   35.1970 O.2   109  ASP109     -0.2867
      5  CB       -36.0430  -15.6430   33.3220 C.3   109  ASP109      0.1410
      6  CG       -35.7750  -16.5490   32.1370 C.2   109  ASP109      0.3668
      7  OD1      -35.8450  -17.8040   32.2360 O.co2 109  ASP109     -0.2456
      8  OD2      -35.4680  -15.9520   31.0810 O.co2 109  ASP109     -0.2456
      9  N        -36.6380  -10.2280   37.2870 N.3   116  TYR116     -0.1241
     10  CA       -37.1490   -8.8730   37.1530 C.3   116  TYR116      0.1605
     11  C        -38.0430   -8.6030   38.3330 C.2   116  TYR116      0.2264
     12  O        -38.8520   -9.4590   38.7290 O.2   116  TYR116     -0.2867
     13  CB       -37.9100   -8.6680   35.8470 C.3   116  TYR116      0.0534
     14  CG       -37.1610   -9.1470   34.6310 C.ar  116  TYR116     -0.0201
     15  CD1      -36.2930   -8.2880   33.9310 C.ar  116  TYR116     -0.0009
     16  CD2      -37.2890  -10.4810   34.1860 C.ar  116  TYR116     -0.0009
     17  CE1      -35.6030   -8.7280   32.8130 C.ar  116  TYR116      0.0417
     18  CE2      -36.5850  -10.9370   33.0530 C.ar  116  TYR116      0.0417
     19  CZ       -35.7490  -10.0590   32.3800 C.ar  116  TYR116      0.1957
     20  OH       -35.0690  -10.5020   31.2580 O.3   116  TYR116     -0.2866
     21  N        -33.7740   -5.1740   36.2740 N.3   126  ARG126     -0.1245
     22  CA       -33.3150   -6.4820   35.7930 C.3   126  ARG126      0.1563
     23  C        -32.0630   -6.8330   36.6280 C.2   126  ARG126      0.2260
     24  O        -30.9640   -6.2460   36.4370 O.2   126  ARG126     -0.2867
     25  CB       -32.9950   -6.4410   34.2890 C.3   126  ARG126      0.0307
     26  CG       -32.3110   -7.7260   33.7290 C.3   126  ARG126      0.0489
     27  CD       -31.6280   -7.5360   32.3410 C.3   126  ARG126      0.2205
     28  NE       -31.8180   -8.7140   31.4720 N.pl3 126  ARG126     -0.0865
     29  CZ       -30.9110   -9.6800   31.2240 C.cat 126  ARG126      0.5346
     30  NH1      -29.6850   -9.6380   31.7600 N.pl3 126  ARG126      0.1354
     31  NH2      -31.2380  -10.7030   30.4140 N.pl3 126  ARG126      0.1354
     32  N        -29.8050   -3.8440   37.7300 N.3   129  GLN129     -0.1245
     33  CA       -29.8460   -2.7340   36.7800 C.3   129  GLN129      0.1566
     34  C        -31.2260   -2.0820   36.6580 C.2   129  GLN129      0.2260
     35  O        -32.2150   -2.7880   36.4370 O.2   129  GLN129     -0.2867
     36  CB       -29.3840   -3.1850   35.3910 C.3   129  GLN129      0.0367
     37  CG       -27.9690   -3.7310   35.3400 C.3   129  GLN129      0.0905
     38  CD       -26.9090   -2.7360   35.8690 C.2   129  GLN129      0.2608
     39  OE1      -26.8860   -1.5380   35.4980 O.2   129  GLN129     -0.2717
     40  NE2      -26.0290   -3.2380   36.7530 N.am  129  GLN129     -0.0878
     41  N        -34.3100   -0.3180   34.9050 N.3   131  LEU131     -0.1245
     42  CA       -34.9120   -0.2790   33.5840 C.3   131  LEU131      0.1561
     43  C        -35.2650    1.1550   33.2530 C.2   131  LEU131      0.2260
     44  O        -35.6580    1.9050   34.1440 O.2   131  LEU131     -0.2867
     45  CB       -36.1360   -1.1860   33.5460 C.3   131  LEU131      0.0270
     46  CG       -35.7730   -2.6600   33.7260 C.3   131  LEU131      0.0019
     47  CD1      -37.0150   -3.5420   33.6560 C.3   131  LEU131      0.0001
     48  CD2      -34.6660   -3.1020   32.7170 C.3   131  LEU131      0.0001
     49  N        -43.1250  -13.0870   31.0080 N.3   178  LEU178     -0.1245
     50  CA       -41.9280  -12.6330   30.2940 C.3   178  LEU178      0.1561
     51  C        -42.2320  -11.6860   29.0970 C.2   178  LEU178      0.2260
     52  O        -41.4850  -10.7480   28.8290 O.2   178  LEU178     -0.2867
     53  CB       -41.0630  -13.8300   29.8740 C.3   178  LEU178      0.0270
     54  CG       -40.3660  -14.6080   31.0040 C.3   178  LEU178      0.0019
     55  CD1      -39.6720  -15.7970   30.4390 C.3   178  LEU178      0.0001
     56  CD2      -39.3630  -13.7720   31.7690 C.3   178  LEU178      0.0001
     57  N        -42.8680   -8.4430   30.5970 N.3   181  VAL181     -0.1231
     58  CA       -41.5880   -7.8780   31.0530 C.3   181  VAL181      0.1692
     59  C        -40.7900   -7.3740   29.8780 C.2   181  VAL181      0.2592
     60  O        -40.1440   -6.3440   29.9720 O.2   181  VAL181     -0.2718
     61  CB       -40.7860   -8.9070   31.8220 C.3   181  VAL181      0.0266
     62  CG1      -39.3170   -8.5450   31.8710 C.3   181  VAL181      0.0020
     63  CG2      -41.3660   -9.0700   33.2080 C.3   181  VAL181      0.0020
     64  N        -40.8760   -8.0970   28.7610 N.am  182  SER182     -0.1952
     65  CA       -40.2170   -7.7050   27.5080 C.3   182  SER182      0.1924
     66  C        -40.5930   -6.3190   27.0310 C.2   182  SER182      0.2314
     67  O        -39.7570   -5.6220   26.4550 O.2   182  SER182     -0.2863
     68  CB       -40.5440   -8.6840   26.4090 C.3   182  SER182      0.2116
     69  OG       -39.6160   -9.7390   26.4000 O.3   182  SER182     -0.2180
     70  N        -38.9530   -3.8720   29.3950 N.3   185  THR185     -0.1218
     71  CA       -37.5490   -3.6690   28.9790 C.3   185  THR185      0.1862
     72  C        -37.4300   -3.0230   27.6070 C.2   185  THR185      0.2287
     73  O        -36.3550   -2.5800   27.2190 O.2   185  THR185     -0.2866
     74  CB       -36.6880   -4.9870   28.9420 C.3   185  THR185      0.1770
     75  OG1      -37.1910   -5.8850   27.9490 O.3   185  THR185     -0.2211
     76  CG2      -36.6560   -5.6810   30.2640 C.3   185  THR185      0.0375
     77  N        -38.2720   -4.5800   24.7560 N.3   187  ASN187     -0.1240
     78  CA       -37.9270   -5.5970   23.7670 C.3   187  ASN187      0.1653
     79  C        -39.0850   -5.9230   22.8480 C.2   187  ASN187      0.2266
     80  O        -38.9050   -6.5490   21.7830 O.2   187  ASN187     -0.2867
     81  CB       -37.3980   -6.8600   24.4310 C.3   187  ASN187      0.1155
     82  CG       -35.8700   -6.9490   24.3790 C.2   187  ASN187      0.2627
     83  OD1      -35.1860   -5.9200   24.3730 O.2   187  ASN187     -0.2716
     84  ND2      -35.3300   -8.1820   24.3290 N.am  187  ASN187     -0.0877
@<TRIPOS>BOND
     1    80    79    2
     2    79    78    1
     3    78    81    1
     4    78    77    1
     5    84    82   am
     6    83    82    2
     7    82    81    1
     8    69    68    1
     9    68    65    1
    10    67    66    2
    11    66    65    1
    12    73    72    2
    13    65    64    1
    14    72    71    1
    15    75    74    1
    16    64    59   am
    17    52    51    2
    18    74    71    1
    19    74    76    1
    20    71    70    1
    21    51    50    1
    22    53    50    1
    23    53    54    1
    24    59    60    2
    25    59    58    1
    26    50    49    1
    27    31    29    1
    28    55    54    1
    29    57    58    1
    30    54    56    1
    31    58    61    1
    32     8     6   ar
    33    29    28    2
    34    29    30    1
    35    20    19    1
    36    28    27    1
    37    61    62    1
    38    61    63    1
    39     6     7   ar
    40     6     5    1
    41    27    26    1
    42    19    17   ar
    43    19    18   ar
    44    48    46    1
    45    17    15   ar
    46    18    16   ar
    47    43    42    1
    48    43    44    2
    49     5     2    1
    50    45    42    1
    51    45    46    1
    52    42    41    1
    53    47    46    1
    54    26    25    1
    55    15    14   ar
    56    16    14   ar
    57    25    22    1
    58     2     3    1
    59     2     1    1
    60    14    13    1
    61     3     4    2
    62    37    36    1
    63    37    38    1
    64    36    33    1
    65    39    38    2
    66    22    21    1
    67    22    23    1
    68    13    10    1
    69    38    40   am
    70    24    23    2
    71    35    34    2
    72    34    33    1
    73    33    32    1
    74    10     9    1
    75    10    11    1
    76    11    12    2
