@<TRIPOS>MOLECULE
tmp/3t0jA00.pdb
 99 90 0 0 0
SMALL
GASTEIGER

@<TRIPOS>ATOM
      1  N        -13.2250  -19.3030   42.8200 N.3    91  ASN91      -0.1240
      2  CA       -12.4820  -20.3740   43.4900 C.3    91  ASN91       0.1653
      3  C        -12.6380  -20.3560   45.0010 C.2    91  ASN91       0.2266
      4  O        -11.7010  -20.6550   45.7210 O.2    91  ASN91      -0.2867
      5  CB       -11.0050  -20.3240   43.1150 C.3    91  ASN91       0.1155
      6  CG       -10.7920  -20.3450   41.6240 C.2    91  ASN91       0.2627
      7  OD1      -11.4760  -21.0510   40.8860 O.2    91  ASN91      -0.2716
      8  ND2       -9.8300  -19.5780   41.1720 N.am   91  ASN91      -0.0877
      9  N        -18.9110  -24.7090   45.3420 N.3   111  ASP111     -0.1239
     10  CA       -18.1730  -23.7630   44.5070 C.3   111  ASP111      0.1674
     11  C        -19.1390  -22.7410   43.9010 C.2   111  ASP111      0.2266
     12  O        -19.7410  -22.9730   42.8450 O.2   111  ASP111     -0.2867
     13  CB       -17.4070  -24.4990   43.4180 C.3   111  ASP111      0.1410
     14  CG       -16.4200  -23.5980   42.6770 C.2   111  ASP111      0.3668
     15  OD1      -16.5890  -22.3640   42.5910 O.co2 111  ASP111     -0.2456
     16  OD2      -15.4420  -24.1300   42.1670 O.co2 111  ASP111     -0.2456
     17  N        -18.6850  -21.4260   40.1960 N.3   114  ALA114     -0.1245
     18  CA       -18.7820  -22.5110   39.2240 C.3   114  ALA114      0.1562
     19  C        -20.1500  -23.2350   39.2540 C.2   114  ALA114      0.2260
     20  O        -20.4540  -24.0030   38.3420 O.2   114  ALA114     -0.2867
     21  CB       -17.6250  -23.5170   39.3780 C.3   114  ALA114      0.0290
     22  N        -21.0330  -25.5860   41.2470 N.3   116  VAL116     -0.1245
     23  CA       -20.8470  -27.0180   41.4220 C.3   116  VAL116      0.1561
     24  C        -20.9120  -27.3540   42.9160 C.2   116  VAL116      0.2260
     25  O        -20.1220  -26.8420   43.7080 O.2   116  VAL116     -0.2867
     26  CB       -19.5360  -27.5470   40.7520 C.3   116  VAL116      0.0252
     27  CG1      -19.3880  -29.0130   41.0330 C.3   116  VAL116      0.0019
     28  CG2      -19.5230  -27.2810   39.2140 C.3   116  VAL116      0.0019
     29  N        -20.6180  -30.1790   45.7730 N.3   118  TYR118     -0.1241
     30  CA       -20.0440  -31.4300   46.2400 C.3   118  TYR118      0.1605
     31  C        -20.7740  -31.8000   47.5360 C.2   118  TYR118      0.2264
     32  O        -20.8160  -30.9960   48.4830 O.2   118  TYR118     -0.2867
     33  CB       -18.5160  -31.2480   46.4670 C.3   118  TYR118      0.0534
     34  CG       -17.7620  -30.8360   45.2100 C.ar  118  TYR118     -0.0201
     35  CD1      -17.3480  -31.7860   44.2920 C.ar  118  TYR118     -0.0009
     36  CD2      -17.5200  -29.4840   44.9140 C.ar  118  TYR118     -0.0009
     37  CE1      -16.6810  -31.4290   43.1380 C.ar  118  TYR118      0.0417
     38  CE2      -16.8310  -29.1050   43.7370 C.ar  118  TYR118      0.0417
     39  CZ       -16.4190  -30.0920   42.8560 C.ar  118  TYR118      0.1957
     40  OH       -15.7710  -29.7800   41.6750 O.3   118  TYR118     -0.2866
     41  N        -20.5030  -35.2260   42.9910 N.3   128  ARG128     -0.1245
     42  CA       -20.2540  -33.9490   42.3680 C.3   128  ARG128      0.1563
     43  C        -21.5170  -33.6980   41.5670 C.2   128  ARG128      0.2260
     44  O        -21.7380  -34.3510   40.5080 O.2   128  ARG128     -0.2867
     45  CB       -19.0170  -33.9660   41.4450 C.3   128  ARG128      0.0307
     46  CG       -18.7630  -32.6490   40.6860 C.3   128  ARG128      0.0489
     47  CD       -17.9920  -32.9150   39.3880 C.3   128  ARG128      0.2205
     48  NE       -17.1650  -31.7640   38.9950 N.pl3 128  ARG128     -0.0865
     49  CZ       -17.5420  -30.7420   38.2030 C.cat 128  ARG128      0.5346
     50  NH1      -18.7710  -30.6770   37.6660 N.pl3 128  ARG128      0.1354
     51  NH2      -16.6720  -29.7660   37.9350 N.pl3 128  ARG128      0.1354
     52  N         -4.2440  -24.2120   45.4030 N.3   175  TYR175     -0.1241
     53  CA        -5.4430  -23.5400   44.9170 C.3   175  TYR175      0.1605
     54  C         -5.9590  -22.4620   45.8560 C.2   175  TYR175      0.2264
     55  O         -6.6070  -21.4930   45.3900 O.2   175  TYR175     -0.2867
     56  CB        -6.5360  -24.5550   44.5280 C.3   175  TYR175      0.0534
     57  CG        -6.0640  -25.6270   43.5480 C.ar  175  TYR175     -0.0201
     58  CD1       -5.4630  -25.2660   42.3190 C.ar  175  TYR175     -0.0009
     59  CD2       -6.2090  -26.9960   43.8410 C.ar  175  TYR175     -0.0009
     60  CE1       -5.0280  -26.2150   41.4090 C.ar  175  TYR175      0.0417
     61  CE2       -5.7710  -27.9900   42.9160 C.ar  175  TYR175      0.0417
     62  CZ        -5.1790  -27.5790   41.7100 C.ar  175  TYR175      0.1957
     63  OH        -4.7460  -28.5090   40.7860 O.3   175  TYR175     -0.2866
     64  N        -12.0230  -26.6950   49.0190 N.3   180  LEU180     -0.1245
     65  CA       -11.9110  -27.1360   47.6350 C.3   180  LEU180      0.1561
     66  C        -10.7440  -28.1040   47.4590 C.2   180  LEU180      0.2260
     67  O        -10.8170  -29.0400   46.6670 O.2   180  LEU180     -0.2867
     68  CB       -11.8070  -25.9520   46.6580 C.3   180  LEU180      0.0270
     69  CG       -13.1790  -25.2960   46.4670 C.3   180  LEU180      0.0019
     70  CD1      -13.1310  -23.9730   45.6520 C.3   180  LEU180      0.0001
     71  CD2      -14.2460  -26.2940   45.9300 C.3   180  LEU180      0.0001
     72  N        -11.7360  -31.5260   48.7060 N.3   183  VAL183     -0.1231
     73  CA       -12.5570  -32.1080   47.6310 C.3   183  VAL183      0.1692
     74  C        -11.7220  -32.5190   46.4110 C.2   183  VAL183      0.2592
     75  O        -11.9240  -33.5970   45.8270 O.2   183  VAL183     -0.2718
     76  CB       -13.6910  -31.2050   47.2350 C.3   183  VAL183      0.0266
     77  CG1      -14.1950  -31.5980   45.8880 C.3   183  VAL183      0.0020
     78  CG2      -14.7980  -31.2890   48.3000 C.3   183  VAL183      0.0020
     79  N        -10.7420  -31.7060   46.0520 N.am  184  SER184     -0.1952
     80  CA        -9.8120  -32.1470   45.0280 C.3   184  SER184      0.1924
     81  C         -9.2010  -33.5150   45.3270 C.2   184  SER184      0.2314
     82  O         -8.9300  -34.2950   44.3980 O.2   184  SER184     -0.2863
     83  CB        -8.7450  -31.1100   44.7420 C.3   184  SER184      0.2116
     84  OG        -9.3000  -30.1280   43.8970 O.3   184  SER184     -0.2180
     85  N        -12.1100  -36.1260   44.4910 N.3   187  THR187     -0.1218
     86  CA       -12.3430  -36.3470   43.0530 C.3   187  THR187      0.1862
     87  C        -11.1240  -36.9300   42.3380 C.2   187  THR187      0.2287
     88  O        -11.1800  -37.2080   41.1440 O.2   187  THR187     -0.2866
     89  CB       -12.7060  -35.0380   42.3250 C.3   187  THR187      0.1770
     90  OG1      -11.5370  -34.2030   42.2470 O.3   187  THR187     -0.2211
     91  CG2      -13.8350  -34.2770   43.0690 C.3   187  THR187      0.0375
     92  N         -8.3790  -35.3330   41.7700 N.3   189  ASN189     -0.1240
     93  CA        -7.6300  -34.2680   41.1060 C.3   189  ASN189      0.1653
     94  C         -6.2940  -34.0030   41.7740 C.2   189  ASN189      0.2266
     95  O         -5.3740  -33.5090   41.1310 O.2   189  ASN189     -0.2867
     96  CB        -8.4400  -32.9570   41.0270 C.3   189  ASN189      0.1155
     97  CG        -9.0870  -32.7650   39.6790 C.2   189  ASN189      0.2627
     98  OD1       -9.3010  -33.7370   38.9390 O.2   189  ASN189     -0.2716
     99  ND2       -9.3730  -31.5170   39.3230 N.am  189  ASN189     -0.0877
@<TRIPOS>BOND
     1    50    49    1
     2    51    49    1
     3    49    48    2
     4    20    19    2
     5    98    97    2
     6    48    47    1
     7    28    26    1
     8    18    19    1
     9    18    21    1
    10    18    17    1
    11    99    97   am
    12    47    46    1
    13    97    96    1
    14    44    43    2
    15    46    45    1
    16    26    27    1
    17    26    23    1
    18    63    62    1
    19     7     6    2
    20    96    93    1
    21    93    92    1
    22    93    94    1
    23    95    94    2
    24    88    87    2
    25     8     6   am
    26    22    23    1
    27    60    62   ar
    28    60    58   ar
    29    23    24    1
    30    45    42    1
    31    43    42    1
    32     6     5    1
    33    40    39    1
    34    62    61   ar
    35    16    14   ar
    36    90    89    1
    37    58    57   ar
    38    89    86    1
    39    89    91    1
    40    87    86    1
    41    42    41    1
    42    15    14   ar
    43    14    13    1
    44     1     2    1
    45    12    11    2
    46    39    37   ar
    47    39    38   ar
    48    24    25    2
    49    61    59   ar
    50    86    85    1
    51     5     2    1
    52    37    35   ar
    53    13    10    1
    54     2     3    1
    55    57    59   ar
    56    57    56    1
    57    38    36   ar
    58    84    83    1
    59    11    10    1
    60    35    34   ar
    61    82    81    2
    62    10     9    1
    63    56    53    1
    64    83    80    1
    65    36    34   ar
    66    53    52    1
    67    53    54    1
    68     3     4    2
    69    80    81    1
    70    80    79    1
    71    34    33    1
    72    55    54    2
    73    70    69    1
    74    29    30    1
    75    75    74    2
    76    77    76    1
    77    71    69    1
    78    79    74   am
    79    30    33    1
    80    30    31    1
    81    74    73    1
    82    69    68    1
    83    68    65    1
    84    67    66    2
    85    76    73    1
    86    76    78    1
    87    66    65    1
    88    31    32    2
    89    73    72    1
    90    65    64    1
