@<TRIPOS>MOLECULE
tmp/3t0lA00.pdb
 111 102 0 0 0
SMALL
GASTEIGER

@<TRIPOS>ATOM
      1  N         15.8730   12.5150   -2.7850 N.3    53  LYS53      -0.1245
      2  CA        16.9740   12.1820   -3.6840 C.3    53  LYS53       0.1561
      3  C         17.3730   10.7260   -3.4710 C.2    53  LYS53       0.2260
      4  O         17.7310   10.0670   -4.4450 O.2    53  LYS53      -0.2867
      5  CB        18.1320   13.1570   -3.5140 C.3    53  LYS53       0.0271
      6  CG        19.3990   12.8310   -4.2260 C.3    53  LYS53       0.0035
      7  CD        20.5740   13.4580   -3.4300 C.3    53  LYS53       0.0206
      8  CE        21.9170   13.0500   -4.0140 C.3    53  LYS53       0.1093
      9  NZ        22.0600   13.8860   -5.2460 N.3    53  LYS53      -0.1314
     10  N         16.8630    8.1160   -6.3500 N.3    57  GLY57      -0.1225
     11  CA        18.1510    7.5310   -6.7620 C.3    57  GLY57       0.1811
     12  C         18.0920    6.0120   -6.8520 C.2    57  GLY57       0.2280
     13  O         18.6130    5.4450   -7.8450 O.2    57  GLY57      -0.2866
     14  N         16.1010    5.2920  -10.0500 N.3    60  ARG60      -0.1231
     15  CA        16.8590    5.5610  -11.2820 C.3    60  ARG60       0.1694
     16  C         17.8700    4.4610  -11.4960 C.2    60  ARG60       0.2591
     17  O         18.0290    4.0240  -12.6290 O.2    60  ARG60      -0.2718
     18  CB        17.5670    6.9580  -11.1640 C.3    60  ARG60       0.0321
     19  CG        16.5810    8.0770  -11.1770 C.3    60  ARG60       0.0489
     20  CD        17.3250    9.3330  -10.6480 C.3    60  ARG60       0.2205
     21  NE        18.2420    9.8600  -11.6760 N.pl3  60  ARG60      -0.0865
     22  CZ        19.3010   10.6050  -11.3530 C.cat  60  ARG60       0.5346
     23  NH1       19.5870   10.8190  -10.0770 N.pl3  60  ARG60       0.1354
     24  NH2       20.0420   11.1580  -12.3260 N.pl3  60  ARG60       0.1354
     25  N         18.5490    3.9960  -10.4560 N.am   61  ALA61      -0.1980
     26  CA        19.5830    2.9570  -10.6230 C.3    61  ALA61       0.1597
     27  C         18.8920    1.6990  -11.1140 C.2    61  ALA61       0.2287
     28  O         19.4130    1.0240  -12.0310 O.2    61  ALA61      -0.2864
     29  CB        20.3320    2.7270   -9.3120 C.3    61  ALA61       0.0319
     30  N         17.8680    1.9890  -14.7720 N.3    64  ARG64      -0.1245
     31  CA        19.0080    1.8450  -15.6950 C.3    64  ARG64       0.1563
     32  C         19.4330    0.4170  -15.9110 C.2    64  ARG64       0.2260
     33  O         19.7150    0.0470  -17.0820 O.2    64  ARG64      -0.2867
     34  CB        20.2310    2.6870  -15.2340 C.3    64  ARG64       0.0307
     35  CG        19.8780    4.1910  -15.3000 C.3    64  ARG64       0.0489
     36  CD        21.0870    5.0180  -14.7570 C.3    64  ARG64       0.2205
     37  NE        20.7530    6.4240  -14.8290 N.pl3  64  ARG64      -0.0865
     38  CZ        21.6200    7.4150  -14.5840 C.cat  64  ARG64       0.5346
     39  NH1       22.8880    7.1230  -14.2990 N.pl3  64  ARG64       0.1354
     40  NH2       21.2170    8.6880  -14.6700 N.pl3  64  ARG64       0.1354
     41  N         14.0490   16.9090  -14.6850 N.3   127  ARG127     -0.1231
     42  CA        15.1620   16.2210  -15.3090 C.3   127  ARG127      0.1694
     43  C         15.0720   14.6810  -15.1680 C.2   127  ARG127      0.2592
     44  O         15.3280   13.9360  -16.1050 O.2   127  ARG127     -0.2718
     45  CB        16.5340   16.7870  -14.8290 C.3   127  ARG127      0.0321
     46  CG        17.7600   15.9200  -15.2540 C.3   127  ARG127      0.0489
     47  CD        19.0230   16.7410  -15.1440 C.3   127  ARG127      0.2205
     48  NE        19.2870   17.1260  -13.7570 N.pl3 127  ARG127     -0.0865
     49  CZ        19.9020   16.3510  -12.8800 C.cat 127  ARG127      0.5346
     50  NH1       20.3920   15.1610  -13.2610 N.pl3 127  ARG127      0.1354
     51  NH2       20.0860   16.7780  -11.6230 N.pl3 127  ARG127      0.1354
     52  N         14.6940   14.2260  -13.9870 N.am  128  TYR128     -0.1976
     53  CA        14.5480   12.7540  -13.8230 C.3   128  TYR128      0.1639
     54  C         13.3730   12.2370  -14.6440 C.2   128  TYR128      0.2290
     55  O         13.4630   11.1020  -15.2310 O.2   128  TYR128     -0.2864
     56  CB        14.3690   12.4210  -12.3170 C.3   128  TYR128      0.0560
     57  CG        15.4980   12.9590  -11.4320 C.ar  128  TYR128     -0.0198
     58  CD1       16.8140   13.1180  -11.8940 C.ar  128  TYR128     -0.0009
     59  CD2       15.1880   13.3610  -10.1310 C.ar  128  TYR128     -0.0009
     60  CE1       17.8300   13.6280  -11.0420 C.ar  128  TYR128      0.0417
     61  CE2       16.1820   13.8970   -9.2870 C.ar  128  TYR128      0.0417
     62  CZ        17.4950   14.0240   -9.7460 C.ar  128  TYR128      0.1957
     63  OH        18.4660   14.5760   -8.9270 O.3   128  TYR128     -0.2866
     64  N         25.9920   23.2710  -10.9450 N.3   172  LEU172     -0.1231
     65  CA        26.4480   21.8980  -11.2090 C.3   172  LEU172      0.1693
     66  C         25.2870   21.1170  -11.8820 C.2   172  LEU172      0.2592
     67  O         25.5100   20.4560  -12.9410 O.2   172  LEU172     -0.2718
     68  CB        26.8270   21.2190   -9.8920 C.3   172  LEU172      0.0284
     69  CG        27.2160   19.7490  -10.0120 C.3   172  LEU172      0.0019
     70  CD1       28.5450   19.5270  -10.7240 C.3   172  LEU172      0.0001
     71  CD2       27.3390   19.1680   -8.5680 C.3   172  LEU172      0.0001
     72  N         24.0940   21.1600  -11.2810 N.am  173  ASN173     -0.1974
     73  CA        23.0030   20.2970  -11.8480 C.3   173  ASN173      0.1688
     74  C         22.5000   20.8140  -13.1870 C.2   173  ASN173      0.2292
     75  O         22.1500   20.0170  -14.0560 O.2   173  ASN173     -0.2864
     76  CB        21.8620   20.2470  -10.8600 C.3   173  ASN173      0.1181
     77  CG        22.1350   19.3430   -9.6650 C.2   173  ASN173      0.2629
     78  OD1       21.1600   18.9350   -8.9520 O.2   173  ASN173     -0.2716
     79  ND2       23.3580   19.0220   -9.3940 N.am  173  ASN173     -0.0877
     80  N         24.8420   19.5180  -15.6860 N.3   176  VAL176     -0.1245
     81  CA        24.5260   18.1020  -15.9810 C.3   176  VAL176      0.1561
     82  C         23.3000   17.9990  -16.8950 C.2   176  VAL176      0.2260
     83  O         23.3020   17.1660  -17.8010 O.2   176  VAL176     -0.2867
     84  CB        24.3210   17.3380  -14.6580 C.3   176  VAL176      0.0252
     85  CG1       23.7250   15.9180  -14.9050 C.3   176  VAL176      0.0019
     86  CG2       25.6900   17.1580  -13.9660 C.3   176  VAL176      0.0019
     87  N         23.7490   15.9070  -20.2810 N.3   180  GLU180     -0.1245
     88  CA        23.0760   14.5810  -20.3520 C.3   180  GLU180      0.1567
     89  C         21.6840   14.6110  -20.9570 C.2   180  GLU180      0.2260
     90  O         21.1890   13.5510  -21.4450 O.2   180  GLU180     -0.2867
     91  CB        22.9060   14.0770  -18.8980 C.3   180  GLU180      0.0388
     92  CG        24.2210   13.6880  -18.3500 C.3   180  GLU180      0.1160
     93  CD        24.1730   13.0700  -16.9730 C.2   180  GLU180      0.3649
     94  OE1       23.0480   12.8170  -16.4050 O.co2 180  GLU180     -0.2457
     95  OE2       25.2930   12.8760  -16.4560 O.co2 180  GLU180     -0.2457
     96  N         33.3390   18.9630   -7.3850 N.3   220  LEU220     -0.1245
     97  CA        32.3780   18.2630   -8.2610 C.3   220  LEU220      0.1561
     98  C         32.3170   18.9010   -9.6310 C.2   220  LEU220      0.2260
     99  O         32.2230   18.1710  -10.6430 O.2   220  LEU220     -0.2867
    100  CB        30.9940   18.2160   -7.6270 C.3   220  LEU220      0.0270
    101  CG        30.8940   17.5380   -6.2290 C.3   220  LEU220      0.0019
    102  CD1       29.5140   17.7000   -5.6670 C.3   220  LEU220      0.0001
    103  CD2       31.2900   16.0890   -6.3270 C.3   220  LEU220      0.0001
    104  N         33.5120   16.9520  -13.1030 N.3   224  ASN224     -0.1240
    105  CA        32.7320   16.8740  -14.3560 C.3   224  ASN224      0.1653
    106  C         33.4860   17.4280  -15.5110 C.2   224  ASN224      0.2266
    107  O         33.4580   16.8390  -16.6080 O.2   224  ASN224     -0.2867
    108  CB        31.4050   17.6140  -14.2510 C.3   224  ASN224      0.1155
    109  CG        30.3340   16.8160  -13.5580 C.2   224  ASN224      0.2627
    110  OD1       30.3800   15.5700  -13.5130 O.2   224  ASN224     -0.2716
    111  ND2       29.2940   17.5070  -13.1170 N.am  224  ASN224     -0.0877
@<TRIPOS>BOND
     1    90    89    2
     2    89    88    1
     3    88    87    1
     4    88    91    1
     5    91    92    1
     6    92    93    1
     7    83    82    2
     8    33    32    2
     9    93    95   ar
    10    93    94   ar
    11    82    81    1
    12   107   106    2
    13    44    43    2
    14    81    80    1
    15    81    84    1
    16    32    31    1
    17    31    34    1
    18    31    30    1
    19   106   105    1
    20    42    43    1
    21    42    45    1
    22    42    41    1
    23    35    34    1
    24    35    36    1
    25    46    47    1
    26    46    45    1
    27    55    54    2
    28    43    52   am
    29    47    48    1
    30    85    84    1
    31    37    36    1
    32    37    38    2
    33    40    38    1
    34    84    86    1
    35    54    53    1
    36    38    39    1
    37   105   108    1
    38   105   104    1
    39   108   109    1
    40    75    74    2
    41    52    53    1
    42    53    56    1
    43    48    49    2
    44   109   110    2
    45   109   111   am
    46    50    49    1
    47    74    73    1
    48    67    66    2
    49    49    51    1
    50    17    16    2
    51    24    22    1
    52    56    57    1
    53    28    27    2
    54    58    57   ar
    55    58    60   ar
    56    66    72   am
    57    66    65    1
    58    73    72    1
    59    73    76    1
    60    21    22    2
    61    21    20    1
    62    16    15    1
    63    16    25   am
    64    57    59   ar
    65    22    23    1
    66    15    18    1
    67    15    14    1
    68    65    64    1
    69    65    68    1
    70    19    18    1
    71    19    20    1
    72    27    26    1
    73    60    62   ar
    74    76    77    1
    75    70    69    1
    76    99    98    2
    77    26    25    1
    78    26    29    1
    79    59    61   ar
    80    69    68    1
    81    69    71    1
    82    62    61   ar
    83    62    63    1
    84    77    79   am
    85    77    78    2
    86    98    97    1
    87    97   100    1
    88    97    96    1
    89    13    12    2
    90   100   101    1
    91    12    11    1
    92    11    10    1
    93   103   101    1
    94   101   102    1
    95     9     8    1
    96     4     3    2
    97     6     5    1
    98     6     7    1
    99     8     7    1
   100     2     5    1
   101     2     3    1
   102     2     1    1
