@<TRIPOS>MOLECULE
tmp/3t0qA00.pdb
 125 122 0 0 0
SMALL
GASTEIGER

@<TRIPOS>ATOM
      1  N          4.8810  -10.3980  -29.3280 N.3     8  ARG8       -0.1245
      2  CA         4.6090  -11.8310  -29.3340 C.3     8  ARG8        0.1563
      3  C          3.6920  -12.2400  -30.4900 C.2     8  ARG8        0.2260
      4  O          2.5500  -11.8110  -30.5570 O.2     8  ARG8       -0.2867
      5  CB         4.0000  -12.3120  -28.0090 C.3     8  ARG8        0.0307
      6  CG         3.8150  -13.8320  -28.0160 C.3     8  ARG8        0.0489
      7  CD         3.0740  -14.3810  -26.7980 C.3     8  ARG8        0.2205
      8  NE         3.3520  -15.8090  -26.6430 N.pl3   8  ARG8       -0.0865
      9  CZ         3.0550  -16.5420  -25.5750 C.cat   8  ARG8        0.5346
     10  NH1        2.4370  -16.0010  -24.5300 N.pl3   8  ARG8        0.1354
     11  NH2        3.3880  -17.8250  -25.5530 N.pl3   8  ARG8        0.1354
     12  N          1.5270  -15.0930  -31.6330 N.3    10  ARG10      -0.1231
     13  CA         0.9820  -16.3610  -31.1540 C.3    10  ARG10       0.1679
     14  C          0.8740  -17.4000  -32.2830 C.2    10  ARG10       0.2434
     15  O          0.8860  -17.0390  -33.4540 O.2    10  ARG10      -0.2733
     16  CB        -0.3840  -16.1410  -30.5240 C.3    10  ARG10       0.0321
     17  CG        -1.5210  -15.9960  -31.5010 C.3    10  ARG10       0.0489
     18  CD        -2.8180  -16.3480  -30.7740 C.3    10  ARG10       0.2205
     19  NE        -3.9810  -15.8520  -31.4830 N.pl3  10  ARG10      -0.0865
     20  CZ        -4.4980  -16.4380  -32.5540 C.cat  10  ARG10       0.5346
     21  NH1       -3.9450  -17.5470  -33.0270 N.pl3  10  ARG10       0.1354
     22  NH2       -5.5670  -15.9230  -33.1460 N.pl3  10  ARG10       0.1354
     23  N          0.7990  -18.7010  -31.9390 N.am   11  PRO11      -0.2729
     24  CA         0.6610  -19.7110  -32.9920 C.3    11  PRO11       0.1401
     25  C         -0.7790  -19.8080  -33.4740 C.2    11  PRO11       0.2269
     26  O         -1.6800  -19.4590  -32.7140 O.2    11  PRO11      -0.2865
     27  CB         1.0680  -20.9950  -32.2790 C.3    11  PRO11       0.0296
     28  CG         0.5700  -20.7930  -30.9050 C.3    11  PRO11       0.0237
     29  CD         0.8040  -19.3210  -30.6020 C.3    11  PRO11       0.0939
     30  N         -4.4270  -21.2260  -34.2140 N.3    13  LEU13      -0.1245
     31  CA        -5.3420  -22.1830  -33.6160 C.3    13  LEU13       0.1561
     32  C         -5.7460  -23.2410  -34.6510 C.2    13  LEU13       0.2260
     33  O         -5.5170  -23.0680  -35.8450 O.2    13  LEU13      -0.2867
     34  CB        -6.5450  -21.4730  -32.9890 C.3    13  LEU13       0.0270
     35  CG        -6.2270  -20.3530  -31.9920 C.3    13  LEU13       0.0019
     36  CD1       -7.5150  -19.6420  -31.5530 C.3    13  LEU13       0.0001
     37  CD2       -5.4200  -20.8420  -30.7980 C.3    13  LEU13       0.0001
     38  N          5.8610  -18.0080  -32.4960 N.3    55  PRO55      -0.2116
     39  CA         4.7390  -18.9050  -32.1850 C.3    55  PRO55       0.1372
     40  C          5.1550  -20.0700  -31.2910 C.2    55  PRO55       0.2244
     41  O          4.3340  -20.6020  -30.5560 O.2    55  PRO55      -0.2868
     42  CB         4.3180  -19.4260  -33.5690 C.3    55  PRO55       0.0268
     43  CG         4.6440  -18.3320  -34.4840 C.3    55  PRO55       0.0207
     44  CD         5.9090  -17.6900  -33.9350 C.3    55  PRO55       0.0892
     45  N          7.4690  -19.9110  -28.8590 N.3    57  HIS57      -0.1241
     46  CA         7.8830  -19.4980  -27.5160 C.3    57  HIS57       0.1621
     47  C          6.7430  -19.6100  -26.5270 C.2    57  HIS57       0.2264
     48  O          5.6710  -19.0460  -26.7220 O.2    57  HIS57      -0.2867
     49  CB         8.4760  -18.0970  -27.5000 C.3    57  HIS57       0.0745
     50  CG         9.8330  -18.0240  -28.1190 C.ar   57  HIS57       0.0817
     51  ND1       10.0670  -17.4110  -29.3310 N.ar   57  HIS57      -0.2268
     52  CD2       11.0250  -18.5140  -27.7070 C.ar   57  HIS57       0.1154
     53  CE1       11.3480  -17.5170  -29.6350 C.ar   57  HIS57       0.1986
     54  NE2       11.9500  -18.1880  -28.6700 N.ar   57  HIS57      -0.2212
     55  N         -4.9770   -6.5630  -30.7020 N.3    86  GLN86      -0.1231
     56  CA        -6.3040   -6.8460  -31.2120 C.3    86  GLN86       0.1698
     57  C         -6.9610   -7.9710  -30.4310 C.2    86  GLN86       0.2593
     58  O         -6.2850   -8.8980  -29.9980 O.2    86  GLN86      -0.2718
     59  CB        -6.1700   -7.2420  -32.6880 C.3    86  GLN86       0.0381
     60  CG        -7.4670   -7.6080  -33.3740 C.3    86  GLN86       0.0905
     61  CD        -7.2370   -8.1540  -34.7720 C.2    86  GLN86       0.2608
     62  OE1       -6.1320   -8.5770  -35.1160 O.2    86  GLN86      -0.2717
     63  NE2       -8.2760   -8.1260  -35.5860 N.am   86  GLN86      -0.0878
     64  N         -8.2780   -7.9020  -30.2610 N.am   87  THR87      -0.1939
     65  CA        -9.0090   -9.0130  -29.6570 C.3    87  THR87       0.2028
     66  C         -8.6450  -10.3090  -30.3990 C.2    87  THR87       0.2643
     67  O         -8.5830  -10.3350  -31.6190 O.2    87  THR87      -0.2714
     68  CB       -10.5350   -8.7860  -29.6760 C.3    87  THR87       0.1808
     69  OG1      -10.8720   -7.6830  -28.8240 O.3    87  THR87      -0.2208
     70  CG2      -11.2650  -10.0140  -29.1580 C.3    87  THR87       0.0379
     71  N         -8.3480  -11.3640  -29.6510 N.am   88  GLY88      -0.1939
     72  CA        -7.9670  -12.6350  -30.2440 C.3    88  GLY88       0.2014
     73  C         -6.4670  -12.8390  -30.4100 C.2    88  GLY88       0.2640
     74  O         -6.0200  -13.9350  -30.7480 O.2    88  GLY88      -0.2714
     75  N         -5.6870  -11.7930  -30.1410 N.am   89  SER89      -0.1935
     76  CA        -4.2500  -11.8210  -30.4230 C.3    89  SER89       0.2055
     77  C         -3.3850  -12.5020  -29.3600 C.2    89  SER89       0.2644
     78  O         -2.2350  -12.8400  -29.6430 O.2    89  SER89      -0.2714
     79  CB        -3.7220  -10.4190  -30.7200 C.3    89  SER89       0.2130
     80  OG        -3.7470   -9.6420  -29.5450 O.3    89  SER89      -0.2179
     81  N         -3.9660  -12.8140  -28.1960 N.am   90  GLY90      -0.1939
     82  CA        -3.2160  -13.3910  -27.0860 C.3    90  GLY90       0.2014
     83  C         -2.8600  -12.5850  -25.8390 C.2    90  GLY90       0.2639
     84  O         -1.9700  -12.9870  -25.0830 O.2    90  GLY90      -0.2714
     85  N         -3.5170  -11.4420  -25.6340 N.am   91  LYS91      -0.1963
     86  CA        -3.2860  -10.6120  -24.4510 C.3    91  LYS91       0.1728
     87  C         -3.5520  -11.3740  -23.1360 C.2    91  LYS91       0.2617
     88  O         -2.6610  -11.5050  -22.2970 O.2    91  LYS91      -0.2715
     89  CB        -4.1680   -9.3520  -24.5020 C.3    91  LYS91       0.0311
     90  CG        -3.8550   -8.3740  -25.6610 C.3    91  LYS91       0.0038
     91  CD        -4.7300   -7.1310  -25.6210 C.3    91  LYS91       0.0206
     92  CE        -6.2090   -7.4720  -25.6670 C.3    91  LYS91       0.1093
     93  NZ        -6.6700   -8.0460  -26.9710 N.3    91  LYS91      -0.1314
     94  N         -4.7740  -11.8850  -22.9780 N.am   92  THR92      -0.1937
     95  CA        -5.1900  -12.5580  -21.7540 C.3    92  THR92       0.2028
     96  C         -4.4390  -13.8590  -21.5410 C.2    92  THR92       0.2642
     97  O         -4.0760  -14.2040  -20.4120 O.2    92  THR92      -0.2714
     98  CB        -6.6720  -12.8910  -21.7820 C.3    92  THR92       0.1808
     99  OG1       -7.4170  -11.6850  -21.9510 O.3    92  THR92      -0.2208
    100  CG2       -7.0850  -13.5600  -20.4860 C.3    92  THR92       0.0379
    101  N         -4.2230  -14.5900  -22.6250 N.am   93  TYR93      -0.1959
    102  CA        -3.4660  -15.8180  -22.5470 C.3    93  TYR93       0.1771
    103  C         -2.0820  -15.5090  -22.0140 C.2    93  TYR93       0.2620
    104  O         -1.5540  -16.2270  -21.1730 O.2    93  TYR93      -0.2715
    105  CB        -3.3390  -16.4640  -23.9360 C.3    93  TYR93       0.0574
    106  CG        -2.6220  -17.8040  -23.8890 C.ar   93  TYR93      -0.0198
    107  CD1       -1.2390  -17.8790  -23.9940 C.ar   93  TYR93      -0.0009
    108  CD2       -3.3330  -18.9870  -23.6830 C.ar   93  TYR93      -0.0009
    109  CE1       -0.5850  -19.0880  -23.9500 C.ar   93  TYR93       0.0417
    110  CE2       -2.6820  -20.2130  -23.6260 C.ar   93  TYR93       0.0417
    111  CZ        -1.3150  -20.2510  -23.7570 C.ar   93  TYR93       0.1957
    112  OH        -0.6840  -21.4590  -23.7020 O.3    93  TYR93      -0.2866
    113  N         -1.4800  -14.4330  -22.5080 N.am   94  THR94      -0.1951
    114  CA        -0.1260  -14.1130  -22.0920 C.3    94  THR94       0.1897
    115  C         -0.0990  -13.7770  -20.5990 C.2    94  THR94       0.2313
    116  O          0.7810  -14.2010  -19.8650 O.2    94  THR94      -0.2863
    117  CB         0.4890  -12.9570  -22.9330 C.3    94  THR94       0.1794
    118  OG1        0.6240  -13.3760  -24.3040 O.3    94  THR94      -0.2208
    119  CG2        1.8640  -12.5870  -22.4010 C.3    94  THR94       0.0378
    120  N        -13.1800   -8.0220  -23.3170 N.3   183  SER183     -0.1217
    121  CA       -12.4380   -7.6930  -24.5280 C.3   183  SER183      0.1889
    122  C        -12.4350   -6.1800  -24.7170 C.2   183  SER183      0.2288
    123  O        -11.6000   -5.6250  -25.4370 O.2   183  SER183     -0.2866
    124  CB       -13.0850   -8.3460  -25.7560 C.3   183  SER183      0.2089
    125  OG       -13.8900   -7.5250  -26.4710 O.3   183  SER183     -0.2183
@<TRIPOS>BOND
     1    33    32    2
     2    63    61   am
     3    62    61    2
     4    61    60    1
     5    32    31    1
     6    43    44    1
     7    43    42    1
     8    30    31    1
     9    44    38    1
    10    31    34    1
    11    42    39    1
    12    25    24    1
    13    25    26    2
    14    15    14    2
    15    60    59    1
    16    22    20    1
    17    21    20    1
    18    24    27    1
    19    24    23    1
    20    34    35    1
    21    59    56    1
    22    20    19    2
    23    38    39    1
    24    14    23   am
    25    14    13    1
    26    27    28    1
    27    39    40    1
    28    35    36    1
    29    35    37    1
    30    23    29    1
    31    12    13    1
    32    67    66    2
    33    17    18    1
    34    17    16    1
    35    19    18    1
    36    40    41    2
    37    56    55    1
    38    56    57    1
    39    13    16    1
    40    28    29    1
    41    74    73    2
    42    79    76    1
    43    79    80    1
    44     4     3    2
    45     3     2    1
    46    57    64   am
    47    57    58    2
    48    76    75    1
    49    76    77    1
    50    73    72    1
    51    73    75   am
    52    66    65    1
    53    66    71   am
    54    64    65    1
    55    72    71    1
    56    68    65    1
    57    68    70    1
    58    68    69    1
    59    78    77    2
    60    53    51   ar
    61    53    54   ar
    62    77    81   am
    63     2     1    1
    64     2     5    1
    65    51    50   ar
    66    45    46    1
    67    54    52   ar
    68    81    82    1
    69    50    52   ar
    70    50    49    1
    71     6     5    1
    72     6     7    1
    73    46    49    1
    74    46    47    1
    75    82    83    1
    76    93    92    1
    77     7     8    1
    78    48    47    2
    79     8     9    2
    80   125   124    1
    81    83    85   am
    82    83    84    2
    83   124   121    1
    84    92    91    1
    85    90    91    1
    86    90    89    1
    87    85    86    1
    88     9    11    1
    89     9    10    1
    90   123   122    2
    91   122   121    1
    92   121   120    1
    93    89    86    1
    94    86    87    1
    95   118   117    1
    96   107   109   ar
    97   107   106   ar
    98   109   111   ar
    99   105   106    1
   100   105   102    1
   101   106   108   ar
   102   111   112    1
   103   111   110   ar
   104   108   110   ar
   105    87    94   am
   106    87    88    2
   107    94    95    1
   108   117   119    1
   109   117   114    1
   110   101   102    1
   111   101    96   am
   112   102   103    1
   113   113   114    1
   114   113   103   am
   115   114   115    1
   116   103   104    2
   117    99    98    1
   118    98    95    1
   119    98   100    1
   120    95    96    1
   121    96    97    2
   122   115   116    2
