@<TRIPOS>MOLECULE
tmp/3t0sA02.pdb
 76 75 0 0 0
SMALL
GASTEIGER

@<TRIPOS>ATOM
      1  N         26.3400  -45.0470   15.1990 N.3     1  LEU1       -0.1231
      2  CA        26.6220  -43.7220   14.6440 C.3     1  LEU1        0.1693
      3  C         27.3780  -43.7500   13.3230 C.2     1  LEU1        0.2592
      4  O         27.8420  -42.7100   12.8550 O.2     1  LEU1       -0.2718
      5  CB        27.4100  -42.8740   15.6420 C.3     1  LEU1        0.0284
      6  CG        26.5720  -42.3140   16.7840 C.3     1  LEU1        0.0019
      7  CD1       27.3270  -41.2060   17.5150 C.3     1  LEU1        0.0001
      8  CD2       25.2650  -41.8080   16.1960 C.3     1  LEU1        0.0001
      9  N         27.5040  -44.9330   12.7290 N.am    2  ALA2       -0.1966
     10  CA        28.2830  -45.0960   11.5010 C.3     2  ALA2        0.1728
     11  C         27.6870  -44.3550   10.3050 C.2     2  ALA2        0.2616
     12  O         28.3910  -44.0680    9.3380 O.2     2  ALA2       -0.2715
     13  CB        28.4490  -46.5780   11.1730 C.3     2  ALA2        0.0334
     14  N         26.3910  -44.0550   10.3710 N.am    3  ASP3       -0.1971
     15  CA        25.7110  -43.3630    9.2820 C.3     3  ASP3        0.1709
     16  C         25.9700  -41.8680    9.3390 C.2     3  ASP3        0.2293
     17  O         25.5790  -41.1250    8.4410 O.2     3  ASP3       -0.2864
     18  CB        24.2040  -43.6230    9.3250 C.3     3  ASP3        0.1436
     19  CG        23.8580  -45.0760    9.0950 C.2     3  ASP3        0.3671
     20  OD1       22.7060  -45.3570    8.7030 O.co2   3  ASP3       -0.2456
     21  OD2       24.7400  -45.9390    9.3020 O.co2   3  ASP3       -0.2456
     22  N         24.2000  -36.3090   11.2660 N.3    37  SER37      -0.1202
     23  CA        24.0670  -37.5380   12.0190 C.3    37  SER37       0.2020
     24  C         23.3480  -38.5120   11.1190 C.2    37  SER37       0.2619
     25  O         22.7310  -38.1050   10.1470 O.2    37  SER37      -0.2717
     26  CB        23.2260  -37.3090   13.2720 C.3    37  SER37       0.2103
     27  OG        21.8520  -37.3660   12.9430 O.3    37  SER37      -0.2182
     28  N         23.4250  -39.7970   11.4340 N.am   38  GLY38      -0.1942
     29  CA        22.5090  -40.7520   10.8400 C.3    38  GLY38       0.2014
     30  C         21.1440  -40.5790   11.4860 C.2    38  GLY38       0.2639
     31  O         20.9270  -39.6250   12.2280 O.2    38  GLY38      -0.2714
     32  N         20.2260  -41.5000   11.2170 N.am   39  PHE39      -0.1959
     33  CA        18.8870  -41.4310   11.7910 C.3    39  PHE39       0.1771
     34  C         18.6590  -42.4770   12.8840 C.2    39  PHE39       0.2620
     35  O         19.0500  -43.6360   12.7390 O.2    39  PHE39      -0.2715
     36  CB        17.8300  -41.6050   10.6990 C.3    39  PHE39       0.0574
     37  CG        17.5460  -40.3540    9.9260 C.ar   39  PHE39      -0.0200
     38  CD1       18.1910  -40.1030    8.7260 C.ar   39  PHE39      -0.0042
     39  CD2       16.6350  -39.4240   10.4010 C.ar   39  PHE39      -0.0042
     40  CE1       17.9280  -38.9470    8.0060 C.ar   39  PHE39      -0.0003
     41  CE2       16.3740  -38.2700    9.6940 C.ar   39  PHE39      -0.0003
     42  CZ        17.0250  -38.0290    8.4870 C.ar   39  PHE39      -0.0000
     43  N         18.0190  -42.0660   13.9740 N.am   40  THR40      -0.1937
     44  CA        17.6090  -43.0060   15.0100 C.3    40  THR40       0.2028
     45  C         16.7430  -44.1130   14.4100 C.2    40  THR40       0.2642
     46  O         15.7480  -43.8340   13.7410 O.2    40  THR40      -0.2714
     47  CB        16.8250  -42.2900   16.1280 C.3    40  THR40       0.1808
     48  OG1       17.7180  -41.9640   17.2010 O.3    40  THR40      -0.2208
     49  CG2       15.7110  -43.1760   16.6600 C.3    40  THR40       0.0379
     50  N         17.1200  -45.3650   14.6530 N.am   41  GLY41      -0.1954
     51  CA        16.4090  -46.5070   14.0950 C.3    41  GLY41       0.1869
     52  C         14.9250  -46.5540   14.4240 C.2    41  GLY41       0.2309
     53  O         14.4770  -45.9470   15.3970 O.2    41  GLY41      -0.2863
     54  N         14.9550  -40.0440   14.0010 N.3    46  PHE46      -0.1227
     55  CA        15.4080  -38.7360   14.4580 C.3    46  PHE46       0.1736
     56  C         16.8920  -38.5330   14.1420 C.2    46  PHE46       0.2596
     57  O         17.7050  -39.4560   14.2830 O.2    46  PHE46      -0.2718
     58  CB        15.2150  -38.5830   15.9680 C.3    46  PHE46       0.0547
     59  CG        13.7770  -38.5710   16.4140 C.ar   46  PHE46      -0.0202
     60  CD1       13.0500  -39.7500   16.5020 C.ar   46  PHE46      -0.0042
     61  CD2       13.1640  -37.3830   16.7890 C.ar   46  PHE46      -0.0042
     62  CE1       11.7270  -39.7390   16.9260 C.ar   46  PHE46      -0.0003
     63  CE2       11.8460  -37.3630   17.2150 C.ar   46  PHE46      -0.0003
     64  CZ        11.1250  -38.5420   17.2830 C.ar   46  PHE46      -0.0000
     65  N         17.2440  -37.3170   13.7350 N.am   47  GLY47      -0.1942
     66  CA        18.6300  -36.9750   13.4720 C.3    47  GLY47       0.2014
     67  C         18.9190  -35.5170   13.7520 C.2    47  GLY47       0.2638
     68  O         18.0110  -34.7290   14.0170 O.2    47  GLY47      -0.2714
     69  N         20.1950  -35.1590   13.6880 N.am   48  LEU48      -0.1977
     70  CA        20.6360  -33.7910   13.9360 C.3    48  LEU48       0.1596
     71  C         21.8000  -33.4470   13.0070 C.2    48  LEU48       0.2287
     72  O         22.7620  -34.1940   12.9330 O.2    48  LEU48      -0.2864
     73  CB        21.0760  -33.6330   15.4000 C.3    48  LEU48       0.0297
     74  CG        21.4710  -32.2270   15.8680 C.3    48  LEU48       0.0022
     75  CD1       20.2850  -31.2740   15.7510 C.3    48  LEU48       0.0001
     76  CD2       22.0140  -32.2440   17.3090 C.3    48  LEU48       0.0001
@<TRIPOS>BOND
     1    40    42   ar
     2    40    38   ar
     3    17    16    2
     4    42    41   ar
     5    20    19   ar
     6    38    37   ar
     7    19    21   ar
     8    19    18    1
     9    15    18    1
    10    15    16    1
    11    15    14    1
    12    12    11    2
    13    41    39   ar
    14    37    39   ar
    15    37    36    1
    16    25    24    2
    17    11    14   am
    18    11    10    1
    19    36    33    1
    20    29    28    1
    21    29    30    1
    22    24    28   am
    23    24    23    1
    24    13    10    1
    25    32    30   am
    26    32    33    1
    27    22    23    1
    28    30    31    2
    29    10     9    1
    30    33    34    1
    31    23    26    1
    32     9     3   am
    33    35    34    2
    34     4     3    2
    35    34    43   am
    36    72    71    2
    37    27    26    1
    38    71    70    1
    39     3     2    1
    40    66    65    1
    41    66    67    1
    42    69    67   am
    43    69    70    1
    44    65    56   am
    45    46    45    2
    46    67    68    2
    47    70    73    1
    48    43    44    1
    49    54    55    1
    50    51    52    1
    51    51    50    1
    52    56    57    2
    53    56    55    1
    54    45    50   am
    55    45    44    1
    56    52    53    2
    57    55    58    1
    58     2     1    1
    59     2     5    1
    60    44    47    1
    61    73    74    1
    62     5     6    1
    63    75    74    1
    64    74    76    1
    65    58    59    1
    66    47    49    1
    67    47    48    1
    68     8     6    1
    69    59    60   ar
    70    59    61   ar
    71    60    62   ar
    72     6     7    1
    73    61    63   ar
    74    62    64   ar
    75    63    64   ar
