@<TRIPOS>MOLECULE
tmp/3t0tA00.pdb
 80 74 0 0 0
SMALL
GASTEIGER

@<TRIPOS>ATOM
      1  N         31.9190    8.5500   -9.9720 N.3   348  THR348     -0.1218
      2  CA        30.6320    7.8890  -10.1860 C.3   348  THR348      0.1862
      3  C         29.5410    8.5950   -9.4070 C.2   348  THR348      0.2287
      4  O         28.4170    8.6940   -9.8650 O.2   348  THR348     -0.2866
      5  CB        30.6890    6.4000   -9.7980 C.3   348  THR348      0.1770
      6  OG1       31.6480    5.7360  -10.6310 O.3   348  THR348     -0.2211
      7  CG2       29.3240    5.7330   -9.9610 C.3   348  THR348      0.0375
      8  N         24.3100   10.9280  -13.6990 N.3   353  THR353     -0.1203
      9  CA        24.0330    9.6230  -14.2960 C.3   353  THR353      0.1994
     10  C         22.9210    9.7840  -15.3350 C.2   353  THR353      0.2618
     11  O         21.7560   10.0190  -15.0000 O.2   353  THR353     -0.2717
     12  CB        23.6600    8.5850  -13.2310 C.3   353  THR353      0.1784
     13  OG1       24.8550    8.1560  -12.5750 O.3   353  THR353     -0.2211
     14  CG2       22.9910    7.3840  -13.8540 C.3   353  THR353      0.0376
     15  N         23.3100    9.6640  -16.5990 N.am  354  SER354     -0.1951
     16  CA        22.4430   10.0010  -17.7050 C.3   354  SER354      0.1924
     17  C         22.7300    9.1220  -18.9070 C.2   354  SER354      0.2314
     18  O         23.7540    8.4220  -18.9590 O.2   354  SER354     -0.2863
     19  CB        22.6730   11.4590  -18.0790 C.3   354  SER354      0.2116
     20  OG        24.0630   11.7230  -18.1780 O.3   354  SER354     -0.2180
     21  N         26.2360    7.1650  -19.7400 N.3   358  ALA358     -0.1245
     22  CA        26.0650    5.7400  -19.4030 C.3   358  ALA358      0.1562
     23  C         27.2780    4.8590  -19.7450 C.2   358  ALA358      0.2260
     24  O         27.5540    3.8680  -19.0810 O.2   358  ALA358     -0.2867
     25  CB        24.8050    5.1990  -20.0800 C.3   358  ALA358      0.0290
     26  N         30.6240    5.4160  -17.4830 N.3   361  ILE361     -0.1231
     27  CA        30.4940    4.7070  -16.2110 C.3   361  ILE361      0.1692
     28  C         30.8820    3.2470  -16.3570 C.2   361  ILE361      0.2592
     29  O         31.7280    2.7440  -15.6160 O.2   361  ILE361     -0.2718
     30  CB        29.0400    4.7550  -15.6850 C.3   361  ILE361      0.0266
     31  CG1       28.6030    6.2110  -15.4330 C.3   361  ILE361      0.0019
     32  CG2       28.9100    3.9230  -14.4290 C.3   361  ILE361      0.0020
     33  CD1       27.1040    6.4080  -15.2190 C.3   361  ILE361      0.0001
     34  N         30.2520    2.5810  -17.3220 N.am  362  SER362     -0.1952
     35  CA        30.4430    1.1450  -17.5420 C.3   362  SER362      0.1924
     36  C         31.8350    0.8120  -17.9920 C.2   362  SER362      0.2314
     37  O         32.3590   -0.2330  -17.6160 O.2   362  SER362     -0.2863
     38  CB        29.4750    0.6270  -18.5900 C.3   362  SER362      0.2116
     39  OG        28.1690    0.5900  -18.0550 O.3   362  SER362     -0.2180
     40  N         34.3060    1.1890  -14.9160 N.3   365  HIS365     -0.1226
     41  CA        34.1860    0.0500  -14.0250 C.3   365  HIS365      0.1752
     42  C         34.7790   -1.1550  -14.6450 C.2   365  HIS365      0.2596
     43  O         35.6040   -1.8230  -14.0390 O.2   365  HIS365     -0.2718
     44  CB        32.7350   -0.2290  -13.6600 C.3   365  HIS365      0.0759
     45  CG        32.1500    0.7560  -12.6600 C.ar  365  HIS365      0.0818
     46  ND1       32.8780    1.3110  -11.6670 N.ar  365  HIS365     -0.2268
     47  CD2       30.8530    1.2520  -12.5120 C.ar  365  HIS365      0.1154
     48  CE1       32.0980    2.1340  -10.9400 C.ar  365  HIS365      0.1986
     49  NE2       30.8590    2.0950  -11.4530 N.ar  365  HIS365     -0.2212
     50  N         34.3680   -1.4580  -15.8650 N.am  366  THR366     -0.1953
     51  CA        34.9110   -2.6150  -16.5680 C.3   366  THR366      0.1897
     52  C         36.4370   -2.5430  -16.6080 C.2   366  THR366      0.2313
     53  O         37.1130   -3.5380  -16.3410 O.2   366  THR366     -0.2863
     54  CB        34.3630   -2.7330  -18.0060 C.3   366  THR366      0.1794
     55  OG1       32.9380   -2.9190  -17.9820 O.3   366  THR366     -0.2208
     56  CG2       34.9890   -3.9160  -18.6980 C.3   366  THR366      0.0378
     57  N         37.9700   -3.1740  -13.0000 N.3   369  ASN369     -0.1225
     58  CA        37.7380   -4.5340  -12.5540 C.3   369  ASN369      0.1785
     59  C         38.4710   -5.6360  -13.3200 C.2   369  ASN369      0.2597
     60  O         38.9190   -6.6050  -12.7170 O.2   369  ASN369     -0.2718
     61  CB        36.2510   -4.8300  -12.5970 C.3   369  ASN369      0.1169
     62  CG        35.5060   -4.1810  -11.4690 C.2   369  ASN369      0.2627
     63  OD1       35.5040   -4.6950  -10.3600 O.2   369  ASN369     -0.2716
     64  ND2       34.8470   -3.0630  -11.7430 N.am  369  ASN369     -0.0877
     65  N         38.5650   -5.5110  -14.6400 N.am  370  LEU370     -0.1980
     66  CA        39.2170   -6.5350  -15.4640 C.3   370  LEU370      0.1596
     67  C         40.6900   -6.1950  -15.7290 C.2   370  LEU370      0.2287
     68  O         41.4310   -6.9990  -16.3030 O.2   370  LEU370     -0.2864
     69  CB        38.4820   -6.6930  -16.7980 C.3   370  LEU370      0.0297
     70  CG        37.0110   -7.0570  -16.7290 C.3   370  LEU370      0.0022
     71  CD1       36.4100   -6.9390  -18.1140 C.3   370  LEU370      0.0001
     72  CD2       36.8580   -8.4460  -16.1710 C.3   370  LEU370      0.0001
     73  N         30.4410    0.0290  -26.2670 N.3   467  MET467     -0.1245
     74  CA        31.7470   -0.4840  -25.8850 C.3   467  MET467      0.1570
     75  C         31.8680   -1.9480  -26.2550 C.2   467  MET467      0.2261
     76  O         30.8770   -2.6710  -26.2420 O.2   467  MET467     -0.2867
     77  CB        31.9870   -0.3110  -24.3880 C.3   467  MET467      0.0387
     78  CG        31.1140   -1.1720  -23.4750 C.3   467  MET467      0.0595
     79  SD        31.7600   -1.2180  -21.7840 S.3   467  MET467     -0.1393
     80  CE        30.6430   -2.4360  -21.1050 C.3   467  MET467      0.0692
@<TRIPOS>BOND
     1    73    74    1
     2    75    76    2
     3    75    74    1
     4    74    77    1
     5    77    78    1
     6    78    79    1
     7    79    80    1
     8    25    22    1
     9    23    22    1
    10    23    24    2
    11    21    22    1
    12    18    17    2
    13    17    16    1
    14    56    54    1
    15    38    39    1
    16    38    35    1
    17    20    19    1
    18    71    70    1
    19    19    16    1
    20    54    55    1
    21    54    51    1
    22    36    37    2
    23    36    35    1
    24    16    15    1
    25    35    34    1
    26    26    27    1
    27    34    28   am
    28    69    70    1
    29    69    66    1
    30    70    72    1
    31    52    51    1
    32    52    53    2
    33    15    10   am
    34    51    50    1
    35    28    27    1
    36    28    29    2
    37    68    67    2
    38    27    30    1
    39    50    42   am
    40    67    66    1
    41    30    31    1
    42    30    32    1
    43    66    65    1
    44    31    33    1
    45    10    11    2
    46    10     9    1
    47    40    41    1
    48    42    43    2
    49    42    41    1
    50    65    59   am
    51     9     8    1
    52     9    12    1
    53    41    44    1
    54    14    12    1
    55    44    45    1
    56    59    60    2
    57    59    58    1
    58    12    13    1
    59    57    58    1
    60    45    47   ar
    61    45    46   ar
    62    61    58    1
    63    61    62    1
    64    47    49   ar
    65    64    62   am
    66    46    48   ar
    67    62    63    2
    68    49    48   ar
    69     6     5    1
    70     2     1    1
    71     2     5    1
    72     2     3    1
    73     7     5    1
    74     4     3    2
