@<TRIPOS>MOLECULE
tmp/3t0vA00.pdb
 96 95 0 0 0
SMALL
GASTEIGER

@<TRIPOS>ATOM
      1  N         20.3650   10.3890   -9.9810 N.3    29  GLU29      -0.1231
      2  CA        20.4620   11.0190  -11.2980 C.3    29  GLU29       0.1699
      3  C         19.3080   10.6520  -12.2370 C.2    29  GLU29       0.2592
      4  O         18.7120   11.5260  -12.8660 O.2    29  GLU29      -0.2718
      5  CB        21.8130   10.7510  -11.9720 C.3    29  GLU29       0.0402
      6  CG        21.9980   11.5530  -13.2560 C.3    29  GLU29       0.1161
      7  CD        23.4440   11.6420  -13.7100 C.2    29  GLU29       0.3649
      8  OE1       24.2860   10.8590  -13.2240 O.co2  29  GLU29      -0.2457
      9  OE2       23.7410   12.5040  -14.5630 O.co2  29  GLU29      -0.2457
     10  N         18.9950    9.3610  -12.3210 N.am   30  ASP30      -0.1960
     11  CA        17.9930    8.8750  -13.2640 C.3    30  ASP30       0.1840
     12  C         16.7690    8.2800  -12.5800 C.2    30  ASP30       0.2622
     13  O         15.8040    7.9130  -13.2550 O.2    30  ASP30      -0.2715
     14  CB        18.5910    7.8180  -14.1980 C.3    30  ASP30       0.1450
     15  CG        19.7210    8.3550  -15.0520 C.2    30  ASP30       0.3671
     16  OD1       19.7050    9.5570  -15.3950 O.co2  30  ASP30      -0.2456
     17  OD2       20.6240    7.5610  -15.3960 O.co2  30  ASP30      -0.2456
     18  N         16.8110    8.1710  -11.2540 N.am   31  ASN31      -0.1958
     19  CA        15.7030    7.5970  -10.4980 C.3    31  ASN31       0.1819
     20  C         14.9860    8.6470   -9.6690 C.2    31  ASN31       0.2622
     21  O         15.6000    9.6070   -9.2130 O.2    31  ASN31      -0.2715
     22  CB        16.1920    6.4630   -9.5980 C.3    31  ASN31       0.1195
     23  CG        16.7900    5.3290  -10.3790 C.2    31  ASN31       0.2630
     24  OD1       16.2410    4.9090  -11.3940 O.2    31  ASN31      -0.2716
     25  ND2       17.9380    4.8520   -9.9410 N.am   31  ASN31      -0.0877
     26  N         13.6830    8.4620   -9.4910 N.am   32  SER32      -0.1950
     27  CA        12.8720    9.3890   -8.7040 C.3    32  SER32       0.1924
     28  C         13.3640    9.5370   -7.2830 C.2    32  SER32       0.2314
     29  O         13.7870    8.5740   -6.6490 O.2    32  SER32      -0.2863
     30  CB        11.4230    8.9240   -8.6440 C.3    32  SER32       0.2116
     31  OG        10.7660    9.1710   -9.8660 O.3    32  SER32      -0.2180
     32  N         12.2180   10.7240   -3.4170 N.3    34  TYR34      -0.1241
     33  CA        11.0660   10.9040   -2.5410 C.3    34  TYR34       0.1605
     34  C         11.5600   11.5750   -1.2720 C.2    34  TYR34       0.2264
     35  O         12.7090   11.3790   -0.8900 O.2    34  TYR34      -0.2867
     36  CB        10.4320    9.5470   -2.1920 C.3    34  TYR34       0.0534
     37  CG        10.0870    8.7100   -3.4060 C.ar   34  TYR34      -0.0201
     38  CD1        8.7950    8.6780   -3.9190 C.ar   34  TYR34      -0.0009
     39  CD2       11.0680    7.9740   -4.0580 C.ar   34  TYR34      -0.0009
     40  CE1        8.4900    7.9230   -5.0430 C.ar   34  TYR34       0.0417
     41  CE2       10.7770    7.2240   -5.1730 C.ar   34  TYR34       0.0417
     42  CZ         9.4880    7.2000   -5.6660 C.ar   34  TYR34       0.1957
     43  OH         9.2000    6.4480   -6.7850 O.3    34  TYR34      -0.2866
     44  N          8.3850   11.3210   -6.8310 N.3    50  ASN50      -0.1225
     45  CA         8.7360   11.6140   -8.2250 C.3    50  ASN50       0.1785
     46  C          9.4070   12.9810   -8.3630 C.2    50  ASN50       0.2597
     47  O          9.0570   13.7840   -9.2310 O.2    50  ASN50      -0.2718
     48  CB         7.5110   11.4830   -9.1370 C.3    50  ASN50       0.1169
     49  CG         6.9840   10.0610   -9.1820 C.2    50  ASN50       0.2627
     50  OD1        7.6030    9.1480   -8.6370 O.2    50  ASN50      -0.2716
     51  ND2        5.8550    9.8640   -9.8410 N.am   50  ASN50      -0.0877
     52  N         10.3880   13.2120   -7.4920 N.am   51  ASP51      -0.1974
     53  CA        11.2250   14.4240   -7.4730 C.3    51  ASP51       0.1709
     54  C         10.5120   15.6680   -6.9360 C.2    51  ASP51       0.2293
     55  O         11.0460   16.3670   -6.0740 O.2    51  ASP51      -0.2864
     56  CB        11.8060   14.7650   -8.8590 C.3    51  ASP51       0.1436
     57  CG        12.6850   13.6710   -9.4380 C.2    51  ASP51       0.3671
     58  OD1       13.1950   12.8260   -8.6810 O.co2  51  ASP51      -0.2456
     59  OD2       12.8850   13.6790  -10.6780 O.co2  51  ASP51      -0.2456
     60  N         15.2300   18.5890   -8.2740 N.3    66  LYS66      -0.1245
     61  CA        16.3770   17.7460   -8.5420 C.3    66  LYS66       0.1561
     62  C         17.1600   18.2510   -9.7410 C.2    66  LYS66       0.2260
     63  O         16.5750   18.6830  -10.7420 O.2    66  LYS66      -0.2867
     64  CB        15.9450   16.3080   -8.7860 C.3    66  LYS66       0.0271
     65  CG        17.1130   15.3680   -8.7890 C.3    66  LYS66       0.0035
     66  CD        16.6410   13.9470   -8.8310 C.3    66  LYS66       0.0206
     67  CE        16.2080   13.5450  -10.2300 C.3    66  LYS66       0.1093
     68  NZ        15.6570   12.1630  -10.1900 N.3    66  LYS66      -0.1314
     69  N         15.9460    4.8820   -5.4690 N.3    91  TRP91      -0.1241
     70  CA        16.4490    3.5740   -5.8560 C.3    91  TRP91       0.1605
     71  C         17.9070    3.6890   -6.3190 C.2    91  TRP91       0.2264
     72  O         18.2830    4.6410   -7.0110 O.2    91  TRP91      -0.2867
     73  CB        15.5810    2.9760   -6.9730 C.3    91  TRP91       0.0550
     74  CG        16.1050    1.6880   -7.5190 C.ar   91  TRP91       0.0003
     75  CD1       16.7130    1.4960   -8.7270 C.ar   91  TRP91       0.0946
     76  CD2       16.0700    0.4070   -6.8760 C.ar   91  TRP91       0.0152
     77  NE1       17.0670    0.1730   -8.8730 N.ar   91  TRP91      -0.2442
     78  CE2       16.6830   -0.5170   -7.7510 C.ar   91  TRP91       0.0810
     79  CE3       15.5910   -0.0460   -5.6390 C.ar   91  TRP91       0.0012
     80  CZ2       16.8160   -1.8670   -7.4340 C.ar   91  TRP91       0.0191
     81  CZ3       15.7240   -1.3910   -5.3290 C.ar   91  TRP91       0.0001
     82  CH2       16.3370   -2.2810   -6.2180 C.ar   91  TRP91       0.0015
     83  N         16.7290    0.3350   -2.1610 N.3    98  TRP98      -0.1241
     84  CA        16.1690    1.6500   -1.8860 C.3    98  TRP98       0.1605
     85  C         16.9720    2.3100   -0.7710 C.2    98  TRP98       0.2264
     86  O         16.9920    1.8210    0.3540 O.2    98  TRP98      -0.2867
     87  CB        14.7290    1.5080   -1.4190 C.3    98  TRP98       0.0550
     88  CG        13.7930    1.0470   -2.4600 C.ar   98  TRP98       0.0003
     89  CD1       13.3260   -0.2260   -2.6490 C.ar   98  TRP98       0.0946
     90  CD2       13.1900    1.8560   -3.4650 C.ar   98  TRP98       0.0152
     91  NE1       12.4700   -0.2500   -3.7230 N.ar   98  TRP98      -0.2442
     92  CE2       12.3670    1.0180   -4.2360 C.ar   98  TRP98       0.0810
     93  CE3       13.2710    3.2140   -3.7900 C.ar   98  TRP98       0.0012
     94  CZ2       11.6190    1.4950   -5.3070 C.ar   98  TRP98       0.0191
     95  CZ3       12.5290    3.6860   -4.8540 C.ar   98  TRP98       0.0001
     96  CH2       11.7130    2.8290   -5.5980 C.ar   98  TRP98       0.0015
@<TRIPOS>BOND
     1    17    15   ar
     2    16    15   ar
     3    15    14    1
     4     9     7   ar
     5    14    11    1
     6     7     6    1
     7     7     8   ar
     8    11    12    1
     9    11    10    1
    10     6     5    1
    11    13    12    2
    12     4     3    2
    13    12    18   am
    14    10     3   am
    15     3     2    1
    16     5     2    1
    17    24    23    2
    18     2     1    1
    19    18    19    1
    20    63    62    2
    21    59    57   ar
    22    19    20    1
    23    19    22    1
    24    23    25   am
    25    23    22    1
    26    67    68    1
    27    67    66    1
    28    31    30    1
    29    51    49   am
    30    62    61    1
    31    20    26   am
    32    20    21    2
    33    26    27    1
    34    57    56    1
    35    57    58   ar
    36    47    46    2
    37    49    48    1
    38    49    50    2
    39    48    45    1
    40    77    75   ar
    41    77    78   ar
    42    56    53    1
    43    66    65    1
    44    65    64    1
    45    64    61    1
    46    75    74   ar
    47    27    30    1
    48    27    28    1
    49    61    60    1
    50    46    45    1
    51    46    52   am
    52    45    44    1
    53    78    80   ar
    54    78    76   ar
    55    74    73    1
    56    74    76   ar
    57    52    53    1
    58    53    54    1
    59    80    82   ar
    60    28    29    2
    61    72    71    2
    62    73    70    1
    63    54    55    2
    64    76    79   ar
    65    43    42    1
    66    71    70    1
    67    82    81   ar
    68    70    69    1
    69    42    41   ar
    70    42    40   ar
    71    79    81   ar
    72    96    94   ar
    73    96    95   ar
    74    94    92   ar
    75    41    39   ar
    76    40    38   ar
    77    95    93   ar
    78    92    91   ar
    79    92    90   ar
    80    39    37   ar
    81    38    37   ar
    82    93    90   ar
    83    91    89   ar
    84    90    88   ar
    85    32    33    1
    86    37    36    1
    87    89    88   ar
    88    33    36    1
    89    33    34    1
    90    88    87    1
    91    83    84    1
    92    84    87    1
    93    84    85    1
    94    34    35    2
    95    85    86    2
