@<TRIPOS>MOLECULE
tmp/3t0wB01.pdb
 101 98 0 0 0
SMALL
GASTEIGER

@<TRIPOS>ATOM
      1  N        -21.6220   -8.2000  -13.4970 N.3    34  TYR34      -0.1241
      2  CA       -22.7420   -7.3510  -13.8940 C.3    34  TYR34       0.1605
      3  C        -23.3400   -7.8900  -15.1780 C.2    34  TYR34       0.2264
      4  O        -22.6250   -8.4230  -16.0250 O.2    34  TYR34      -0.2867
      5  CB       -22.2770   -5.9070  -14.1240 C.3    34  TYR34       0.0534
      6  CG       -21.5260   -5.3020  -12.9620 C.ar   34  TYR34      -0.0201
      7  CD1      -22.1550   -4.4330  -12.0810 C.ar   34  TYR34      -0.0009
      8  CD2      -20.1800   -5.5940  -12.7520 C.ar   34  TYR34      -0.0009
      9  CE1      -21.4660   -3.8820  -11.0160 C.ar   34  TYR34       0.0417
     10  CE2      -19.4850   -5.0430  -11.6950 C.ar   34  TYR34       0.0417
     11  CZ       -20.1340   -4.1890  -10.8280 C.ar   34  TYR34       0.1957
     12  OH       -19.4390   -3.6330   -9.7700 O.3    34  TYR34      -0.2866
     13  N        -25.9620   -6.7590  -18.4280 N.3    36  TYR36      -0.1241
     14  CA       -26.7710   -5.7500  -19.0910 C.3    36  TYR36       0.1605
     15  C        -27.4530   -6.2700  -20.3440 C.2    36  TYR36       0.2264
     16  O        -27.0250   -7.2550  -20.9460 O.2    36  TYR36      -0.2867
     17  CB       -25.9700   -4.4760  -19.3730 C.3    36  TYR36       0.0534
     18  CG       -24.8330   -4.5950  -20.3660 C.ar   36  TYR36      -0.0201
     19  CD1      -23.5490   -4.9070  -19.9460 C.ar   36  TYR36      -0.0009
     20  CD2      -25.0400   -4.3540  -21.7190 C.ar   36  TYR36      -0.0009
     21  CE1      -22.4990   -4.9900  -20.8540 C.ar   36  TYR36       0.0417
     22  CE2      -24.0050   -4.4340  -22.6230 C.ar   36  TYR36       0.0417
     23  CZ       -22.7380   -4.7500  -22.1900 C.ar   36  TYR36       0.1957
     24  OH       -21.7120   -4.8220  -23.1010 O.3    36  TYR36      -0.2866
     25  N        -28.6370   -1.9820  -17.2510 N.3    46  VAL46      -0.1245
     26  CA       -27.9780   -2.9050  -16.3420 C.3    46  VAL46       0.1561
     27  C        -29.0520   -3.6160  -15.5250 C.2    46  VAL46       0.2260
     28  O        -29.8120   -2.9780  -14.8040 O.2    46  VAL46      -0.2867
     29  CB       -26.9980   -2.1750  -15.4070 C.3    46  VAL46       0.0252
     30  CG1      -26.4480   -3.1420  -14.3630 C.3    46  VAL46       0.0019
     31  CG2      -25.8700   -1.5270  -16.2170 C.3    46  VAL46       0.0019
     32  N        -26.3830   -6.3260  -10.7520 N.3    49  TYR49      -0.1227
     33  CA       -25.0880   -5.8490  -10.2760 C.3    49  TYR49       0.1736
     34  C        -24.6490   -6.7300   -9.1050 C.2    49  TYR49       0.2595
     35  O        -25.4660   -7.4020   -8.4900 O.2    49  TYR49      -0.2718
     36  CB       -25.1460   -4.3580   -9.8840 C.3    49  TYR49       0.0548
     37  CG       -26.0870   -4.0550   -8.7480 C.ar   49  TYR49      -0.0200
     38  CD1      -27.4540   -3.9270   -8.9700 C.ar   49  TYR49      -0.0009
     39  CD2      -25.6140   -3.9070   -7.4500 C.ar   49  TYR49      -0.0009
     40  CE1      -28.3210   -3.6550   -7.9320 C.ar   49  TYR49       0.0417
     41  CE2      -26.4790   -3.6290   -6.4020 C.ar   49  TYR49       0.0417
     42  CZ       -27.8310   -3.5120   -6.6520 C.ar   49  TYR49       0.1957
     43  OH       -28.7110   -3.2390   -5.6220 O.3    49  TYR49      -0.2866
     44  N        -23.3560   -6.7440   -8.8080 N.am   50  ASN50      -0.1974
     45  CA       -22.8590   -7.5160   -7.6660 C.3    50  ASN50       0.1688
     46  C        -23.3320   -8.9690   -7.6610 C.2    50  ASN50       0.2292
     47  O        -23.7890   -9.4820   -6.6330 O.2    50  ASN50      -0.2864
     48  CB       -23.2380   -6.8350   -6.3470 C.3    50  ASN50       0.1181
     49  CG       -22.5730   -5.4900   -6.1840 C.2    50  ASN50       0.2629
     50  OD1      -21.9310   -4.9870   -7.1020 O.2    50  ASN50      -0.2716
     51  ND2      -22.7220   -4.8970   -5.0090 N.am   50  ASN50      -0.0877
     52  N        -27.7960   -9.1070   -7.5390 N.3    53  ARG53      -0.1245
     53  CA       -28.7020   -8.0480   -7.1230 C.3    53  ARG53       0.1563
     54  C        -29.4060   -7.4480   -8.3290 C.2    53  ARG53       0.2260
     55  O        -28.7680   -7.0290   -9.2910 O.2    53  ARG53      -0.2867
     56  CB       -27.9520   -6.9870   -6.3140 C.3    53  ARG53       0.0307
     57  CG       -27.2760   -7.5820   -5.0870 C.3    53  ARG53       0.0489
     58  CD       -26.5740   -6.5470   -4.2380 C.3    53  ARG53       0.2205
     59  NE       -27.4760   -5.4850   -3.8030 N.pl3  53  ARG53      -0.0865
     60  CZ       -27.1120   -4.4860   -3.0060 C.cat  53  ARG53       0.5346
     61  NH1      -25.8660   -4.4220   -2.5540 N.pl3  53  ARG53       0.1354
     62  NH2      -27.9880   -3.5530   -2.6640 N.pl3  53  ARG53       0.1354
     63  N        -31.3190   -4.7340  -10.3910 N.3    55  SER55      -0.1217
     64  CA       -31.4880   -3.2880  -10.4420 C.3    55  SER55       0.1889
     65  C        -32.9540   -2.9360  -10.2470 C.2    55  SER55       0.2288
     66  O        -33.8410   -3.7120  -10.6100 O.2    55  SER55      -0.2866
     67  CB       -31.0000   -2.7370  -11.7790 C.3    55  SER55       0.2089
     68  OG       -29.6210   -2.9860  -11.9370 O.3    55  SER55      -0.2183
     69  N        -20.0870   -8.9340  -17.5300 N.3    89  LEU89      -0.1245
     70  CA       -18.7630   -8.3350  -17.4080 C.3    89  LEU89       0.1561
     71  C        -18.3040   -8.3940  -15.9560 C.2    89  LEU89       0.2260
     72  O        -19.1230   -8.5130  -15.0310 O.2    89  LEU89      -0.2867
     73  CB       -18.7620   -6.8840  -17.9140 C.3    89  LEU89       0.0270
     74  CG       -19.4790   -5.8630  -17.0240 C.3    89  LEU89       0.0019
     75  CD1      -18.4820   -5.0390  -16.2100 C.3    89  LEU89       0.0001
     76  CD2      -20.3800   -4.9390  -17.8520 C.3    89  LEU89       0.0001
     77  N        -11.0710   -4.6150  -17.1840 N.3    98  TRP98      -0.1241
     78  CA       -12.4250   -5.1300  -17.3460 C.3    98  TRP98       0.1605
     79  C        -12.4380   -6.2110  -18.4000 C.2    98  TRP98       0.2264
     80  O        -11.7440   -6.1080  -19.4040 O.2    98  TRP98      -0.2867
     81  CB       -13.3950   -4.0040  -17.7330 C.3    98  TRP98       0.0550
     82  CG       -13.3790   -2.9150  -16.7310 C.ar   98  TRP98       0.0003
     83  CD1      -12.7670   -1.6970  -16.8460 C.ar   98  TRP98       0.0946
     84  CD2      -13.9580   -2.9540  -15.4220 C.ar   98  TRP98       0.0152
     85  NE1      -12.9510   -0.9690  -15.6950 N.ar   98  TRP98      -0.2442
     86  CE2      -13.6750   -1.7220  -14.8040 C.ar   98  TRP98       0.0810
     87  CE3      -14.7000   -3.9110  -14.7180 C.ar   98  TRP98       0.0012
     88  CZ2      -14.1040   -1.4210  -13.5130 C.ar   98  TRP98       0.0191
     89  CZ3      -15.1230   -3.6140  -13.4370 C.ar   98  TRP98       0.0001
     90  CH2      -14.8180   -2.3780  -12.8430 C.ar   98  TRP98       0.0015
     91  N        -15.2570   -9.0180  -20.5790 N.3   100  PHE100     -0.1241
     92  CA       -16.6260   -9.0670  -21.0630 C.3   100  PHE100      0.1605
     93  C        -16.9210  -10.3900  -21.7400 C.2   100  PHE100      0.2264
     94  O        -16.0320  -11.0290  -22.2980 O.2   100  PHE100     -0.2867
     95  CB       -16.8640   -7.9390  -22.0750 C.3   100  PHE100      0.0534
     96  CG       -16.5690   -6.5730  -21.5320 C.ar  100  PHE100     -0.0203
     97  CD1      -17.5800   -5.7960  -20.9870 C.ar  100  PHE100     -0.0042
     98  CD2      -15.2780   -6.0710  -21.5470 C.ar  100  PHE100     -0.0042
     99  CE1      -17.3070   -4.5370  -20.4720 C.ar  100  PHE100     -0.0003
    100  CE2      -15.0040   -4.8110  -21.0310 C.ar  100  PHE100     -0.0003
    101  CZ       -16.0200   -4.0500  -20.4920 C.ar  100  PHE100     -0.0000
@<TRIPOS>BOND
     1    24    23    1
     2    22    23   ar
     3    22    20   ar
     4    94    93    2
     5    23    21   ar
     6    95    96    1
     7    95    92    1
     8    93    92    1
     9    20    18   ar
    10    98    96   ar
    11    98   100   ar
    12    96    97   ar
    13    92    91    1
    14   100   101   ar
    15    97    99   ar
    16    16    15    2
    17    21    19   ar
    18   101    99   ar
    19    18    19   ar
    20    18    17    1
    21    15    14    1
    22    80    79    2
    23    17    14    1
    24    14    13    1
    25    79    78    1
    26    73    70    1
    27    73    74    1
    28    76    74    1
    29    81    78    1
    30    81    82    1
    31    69    70    1
    32    70    71    1
    33    78    77    1
    34    25    26    1
    35    74    75    1
    36    83    82   ar
    37    83    85   ar
    38    82    84   ar
    39    26    27    1
    40    26    29    1
    41    31    29    1
    42     4     3    2
    43    71    72    2
    44    85    86   ar
    45    27    28    2
    46    84    86   ar
    47    84    87   ar
    48    29    30    1
    49     3     2    1
    50    86    88   ar
    51    87    89   ar
    52     5     2    1
    53     5     6    1
    54     2     1    1
    55    88    90   ar
    56    89    90   ar
    57     6     8   ar
    58     6     7   ar
    59     8    10   ar
    60     7     9   ar
    61    68    67    1
    62    67    64    1
    63    10    11   ar
    64     9    11   ar
    65    11    12    1
    66    32    33    1
    67    66    65    2
    68    64    63    1
    69    64    65    1
    70    33    36    1
    71    33    34    1
    72    36    37    1
    73    55    54    2
    74    34    44   am
    75    34    35    2
    76    38    37   ar
    77    38    40   ar
    78    44    45    1
    79    37    39   ar
    80    54    53    1
    81    40    42   ar
    82    45    46    1
    83    45    48    1
    84    46    47    2
    85    52    53    1
    86    39    41   ar
    87    53    56    1
    88    50    49    2
    89    42    41   ar
    90    42    43    1
    91    48    49    1
    92    56    57    1
    93    49    51   am
    94    57    58    1
    95    58    59    1
    96    59    60    2
    97    60    62    1
    98    60    61    1
