@<TRIPOS>MOLECULE
tmp/3t10A00.pdb
 175 164 0 0 0
SMALL
GASTEIGER

@<TRIPOS>ATOM
      1  N          1.3840   -1.8330   21.0020 N.3    37  GLU37      -0.1231
      2  CA         2.7390   -2.2340   20.6480 C.3    37  GLU37       0.1699
      3  C          3.1440   -1.7000   19.2800 C.2    37  GLU37       0.2592
      4  O          4.2600   -1.2180   19.0870 O.2    37  GLU37      -0.2718
      5  CB         2.8790   -3.7640   20.6770 C.3    37  GLU37       0.0402
      6  CG         2.7610   -4.3540   22.0710 C.3    37  GLU37       0.1161
      7  CD         3.7670   -3.7470   23.0620 C.2    37  GLU37       0.3649
      8  OE1        4.9200   -3.4890   22.6710 O.co2  37  GLU37      -0.2457
      9  OE2        3.4060   -3.5420   24.2420 O.co2  37  GLU37      -0.2457
     10  N          2.2340   -1.7320   18.3150 N.am   38  LEU38      -0.1980
     11  CA         2.5800   -1.2610   16.9890 C.3    38  LEU38       0.1596
     12  C          2.7150    0.2560   16.9540 C.2    38  LEU38       0.2287
     13  O          3.6170    0.7920   16.3140 O.2    38  LEU38      -0.2864
     14  CB         1.5700   -1.7610   15.9670 C.3    38  LEU38       0.0297
     15  CG         1.4820   -3.2960   15.8580 C.3    38  LEU38       0.0022
     16  CD1        0.4460   -3.7120   14.8590 C.3    38  LEU38       0.0001
     17  CD2        2.8670   -3.9190   15.5360 C.3    38  LEU38       0.0001
     18  N          3.6130    2.0970   19.5000 N.3    40  SER40      -0.1202
     19  CA         4.8730    2.3690   20.1920 C.3    40  SER40       0.2020
     20  C          6.0580    2.2140   19.2400 C.2    40  SER40       0.2619
     21  O          6.9980    2.9930   19.2770 O.2    40  SER40      -0.2717
     22  CB         5.0300    1.4560   21.4010 C.3    40  SER40       0.2103
     23  OG         4.1490    1.8760   22.4140 O.3    40  SER40      -0.2182
     24  N          6.0080    1.2030   18.3890 N.am   41  ASN41      -0.1960
     25  CA         7.0680    1.0420   17.3950 C.3    41  ASN41       0.1819
     26  C          7.1210    2.2140   16.4450 C.2    41  ASN41       0.2622
     27  O          8.1980    2.6880   16.0690 O.2    41  ASN41      -0.2715
     28  CB         6.9290   -0.2720   16.6490 C.3    41  ASN41       0.1195
     29  CG         7.2560   -1.4420   17.5060 C.2    41  ASN41       0.2630
     30  OD1        7.9120   -1.2830   18.5150 O.2    41  ASN41      -0.2716
     31  ND2        6.8100   -2.6200   17.1250 N.am   41  ASN41      -0.0877
     32  N          5.9560    2.6900   16.0080 N.am   42  SER42      -0.1950
     33  CA         5.9040    3.8350   15.1140 C.3    42  SER42       0.1924
     34  C          6.4610    5.0750   15.7900 C.2    42  SER42       0.2314
     35  O          7.2140    5.8310   15.1930 O.2    42  SER42      -0.2863
     36  CB         4.4780    4.0800   14.6480 C.3    42  SER42       0.2116
     37  OG         4.0280    3.0410   13.7880 O.3    42  SER42      -0.2180
     38  N          8.6110    5.2380   18.2340 N.3    44  ASP44      -0.1225
     39  CA        10.0530    5.0940   18.3460 C.3    44  ASP44       0.1805
     40  C         10.7380    5.4100   17.0140 C.2    44  ASP44       0.2597
     41  O         11.7890    6.0400   17.0050 O.2    44  ASP44      -0.2718
     42  CB        10.4370    3.6720   18.7630 C.3    44  ASP44       0.1424
     43  CG        10.0990    3.3290   20.1980 C.2    44  ASP44       0.3668
     44  OD1        9.7510    4.2280   20.9550 O.co2  44  ASP44      -0.2456
     45  OD2       10.2270    2.1300   20.5500 O.co2  44  ASP44      -0.2456
     46  N         10.1640    4.9640   15.9050 N.am   45  ALA45      -0.1979
     47  CA        10.7300    5.1930   14.5780 C.3    45  ALA45       0.1597
     48  C         10.6550    6.6510   14.1860 C.2    45  ALA45       0.2287
     49  O         11.5410    7.1820   13.5040 O.2    45  ALA45      -0.2864
     50  CB        10.0080    4.3210   13.5320 C.3    45  ALA45       0.0319
     51  N         13.3890    8.4710   15.9680 N.3    48  LYS48      -0.1245
     52  CA        14.6770    8.2570   15.3310 C.3    48  LYS48       0.1561
     53  C         14.9020    9.1900   14.1390 C.2    48  LYS48       0.2260
     54  O         15.9540    9.8080   14.0190 O.2    48  LYS48      -0.2867
     55  CB        14.8670    6.8000   14.9360 C.3    48  LYS48       0.0271
     56  CG        15.0820    5.9060   16.1390 C.3    48  LYS48       0.0035
     57  CD        15.1690    4.4740   15.7580 C.3    48  LYS48       0.0206
     58  CE        15.3130    3.5450   16.9670 C.3    48  LYS48       0.1093
     59  NZ        14.1480    3.3800   17.8060 N.3    48  LYS48      -0.1314
     60  N          3.4390    4.6920    9.4840 N.3    83  ASP83      -0.1239
     61  CA         4.1790    5.8130   10.0320 C.3    83  ASP83       0.1674
     62  C          5.1450    6.3790    9.0160 C.2    83  ASP83       0.2266
     63  O          5.4970    5.7170    8.0430 O.2    83  ASP83      -0.2867
     64  CB         4.8810    5.4130   11.3420 C.3    83  ASP83       0.1410
     65  CG         5.9960    4.4030   11.1300 C.2    83  ASP83       0.3668
     66  OD1        7.0030    4.7640   10.4700 O.co2  83  ASP83      -0.2456
     67  OD2        5.8930    3.2690   11.6530 O.co2  83  ASP83      -0.2456
     68  N         11.6470    6.4210   10.6010 N.3    86  ILE86      -0.1231
     69  CA        12.9170    6.1890    9.9800 C.3    86  ILE86       0.1692
     70  C         12.8950    5.0350    8.9680 C.2    86  ILE86       0.2593
     71  O         13.7350    4.9910    8.0660 O.2    86  ILE86      -0.2718
     72  CB        13.9840    5.9600   11.0650 C.3    86  ILE86       0.0266
     73  CG1       15.3880    6.1320   10.4830 C.3    86  ILE86       0.0019
     74  CG2       13.7680    4.6060   11.8120 C.3    86  ILE86       0.0020
     75  CD1       16.4320    6.5970   11.4270 C.3    86  ILE86       0.0001
     76  N         11.9580    4.1010    9.0960 N.am   87  GLY87      -0.1942
     77  CA        11.9900    2.9480    8.2210 C.3    87  GLY87       0.2014
     78  C         13.0840    1.9620    8.5690 C.2    87  GLY87       0.2638
     79  O         13.8490    2.1420    9.5270 O.2    87  GLY87      -0.2714
     80  N         13.1740    0.9070    7.7810 N.am   88  MET88      -0.1976
     81  CA        14.1640   -0.1400    7.9780 C.3    88  MET88       0.1605
     82  C         14.8390   -0.4460    6.6680 C.2    88  MET88       0.2287
     83  O         14.1940   -0.5750    5.6330 O.2    88  MET88      -0.2864
     84  CB        13.5030   -1.4360    8.5030 C.3    88  MET88       0.0413
     85  CG        13.1370   -1.3640    9.9630 C.3    88  MET88       0.0598
     86  SD        12.2080   -2.7670   10.5670 S.3    88  MET88      -0.1393
     87  CE        10.5660   -2.3760    9.9880 C.3    88  MET88       0.0692
     88  N         16.1250   -7.3220   12.7330 N.3    96  ASN96      -0.1225
     89  CA        15.3010   -6.8160   13.8210 C.3    96  ASN96       0.1785
     90  C         13.9500   -7.4990   13.9110 C.2    96  ASN96       0.2597
     91  O         13.3320   -7.4780   14.9710 O.2    96  ASN96      -0.2718
     92  CB        15.1100   -5.3060   13.6980 C.3    96  ASN96       0.1169
     93  CG        16.4080   -4.5420   13.7110 C.2    96  ASN96       0.2627
     94  OD1       17.4740   -5.0940   13.9730 O.2    96  ASN96      -0.2716
     95  ND2       16.3370   -3.2680   13.3590 N.am   96  ASN96      -0.0877
     96  N         13.4830   -8.0680   12.8030 N.am   97  LEU97      -0.1980
     97  CA        12.1870   -8.7260   12.7440 C.3    97  LEU97       0.1596
     98  C         12.3230  -10.2030   12.4700 C.2    97  LEU97       0.2287
     99  O         11.5850  -10.7640   11.6860 O.2    97  LEU97      -0.2864
    100  CB        11.2680   -8.0900   11.6920 C.3    97  LEU97       0.0297
    101  CG        10.6530   -6.7420   12.0350 C.3    97  LEU97       0.0022
    102  CD1        9.6770   -6.3700   10.9360 C.3    97  LEU97       0.0001
    103  CD2        9.9850   -6.6980   13.4230 C.3    97  LEU97       0.0001
    104  N         16.4030  -12.4800   21.0000 N.3   102  LYS102     -0.1245
    105  CA        16.0460  -11.4560   21.9740 C.3   102  LYS102      0.1561
    106  C         16.2350  -12.0660   23.3560 C.2   102  LYS102      0.2260
    107  O         15.7610  -13.1630   23.6190 O.2   102  LYS102     -0.2867
    108  CB        14.6080  -11.0010   21.7340 C.3   102  LYS102      0.0271
    109  CG        14.4600  -10.2370   20.3870 C.3   102  LYS102      0.0035
    110  CD        15.0440   -8.8460   20.5190 C.3   102  LYS102      0.0206
    111  CE        15.3190   -8.1340   19.2420 C.3   102  LYS102      0.1093
    112  NZ        15.7040   -6.7500   19.6440 N.3   102  LYS102     -0.1314
    113  N          5.6610   -6.3240   25.7830 N.3   122  GLY122     -0.1225
    114  CA         6.5750   -5.2410   25.4720 C.3   122  GLY122      0.1811
    115  C          7.7270   -5.1920   26.4500 C.2   122  GLY122      0.2280
    116  O          8.8810   -4.9720   26.0700 O.2   122  GLY122     -0.2866
    117  N         10.7090   -7.2780   25.5130 N.3   125  GLY125     -0.1210
    118  CA        11.5200   -6.9360   24.3620 C.3   125  GLY125      0.1956
    119  C         11.0420   -7.5300   23.0440 C.2   125  GLY125      0.2612
    120  O         11.7690   -7.4780   22.0360 O.2   125  GLY125     -0.2717
    121  N          9.8180   -8.0630   23.0160 N.am  126  VAL126     -0.1965
    122  CA         9.2950   -8.7970   21.8680 C.3   126  VAL126      0.1727
    123  C          7.9120   -8.3030   21.4510 C.2   126  VAL126      0.2617
    124  O          7.1120   -9.0480   20.9060 O.2   126  VAL126     -0.2715
    125  CB         9.3220  -10.3450   22.1190 C.3   126  VAL126      0.0290
    126  CG1       10.7230  -10.8890   21.9370 C.3   126  VAL126      0.0023
    127  CG2        8.8070  -10.6960   23.4940 C.3   126  VAL126      0.0023
    128  N          7.6540   -7.0170   21.6610 N.am  127  GLY127     -0.1940
    129  CA         6.3310   -6.4480   21.4410 C.3   127  GLY127      0.2014
    130  C          5.7110   -6.6560   20.0760 C.2   127  GLY127      0.2639
    131  O          4.4860   -6.7970   19.9580 O.2   127  GLY127     -0.2714
    132  N          6.5330   -6.6630   19.0200 N.am  128  PHE128     -0.1959
    133  CA         5.9980   -6.7590   17.6630 C.3   128  PHE128      0.1771
    134  C          5.1660   -8.0030   17.4770 C.2   128  PHE128      0.2619
    135  O          4.1720   -7.9860   16.7570 O.2   128  PHE128     -0.2715
    136  CB         7.1600   -6.7330   16.6610 C.3   128  PHE128      0.0574
    137  CG         6.7560   -7.1130   15.2750 C.ar  128  PHE128     -0.0200
    138  CD1        6.2030   -6.1760   14.4190 C.ar  128  PHE128     -0.0042
    139  CD2        6.9620   -8.3920   14.7810 C.ar  128  PHE128     -0.0042
    140  CE1        5.8250   -6.5160   13.1170 C.ar  128  PHE128     -0.0003
    141  CE2        6.5990   -8.7340   13.4900 C.ar  128  PHE128     -0.0003
    142  CZ         6.0390   -7.8080   12.6670 C.ar  128  PHE128     -0.0000
    143  N          5.5820   -9.0950   18.1180 N.am  129  TYR129     -0.1974
    144  CA         4.9210  -10.3660   17.8750 C.3   129  TYR129      0.1639
    145  C          3.4930  -10.4400   18.4180 C.2   129  TYR129      0.2290
    146  O          2.7540  -11.3620   18.0690 O.2   129  TYR129     -0.2864
    147  CB         5.7920  -11.5440   18.3460 C.3   129  TYR129      0.0560
    148  CG         7.1260  -11.5060   17.6330 C.ar  129  TYR129     -0.0198
    149  CD1        7.2420  -11.9940   16.3510 C.ar  129  TYR129     -0.0009
    150  CD2        8.2280  -10.8700   18.2020 C.ar  129  TYR129     -0.0009
    151  CE1        8.4370  -11.8910   15.6570 C.ar  129  TYR129      0.0417
    152  CE2        9.4310  -10.7720   17.5190 C.ar  129  TYR129      0.0417
    153  CZ         9.5180  -11.2600   16.2430 C.ar  129  TYR129      0.1957
    154  OH        10.6950  -11.1610   15.5320 O.3   129  TYR129     -0.2866
    155  N          4.9470   -6.3120    6.3760 N.3   140  VAL140     -0.1245
    156  CA         5.5830   -5.0650    6.7510 C.3   140  VAL140      0.1561
    157  C          6.2500   -4.4810    5.5240 C.2   140  VAL140      0.2260
    158  O          7.1400   -5.1080    4.9550 O.2   140  VAL140     -0.2867
    159  CB         6.6120   -5.2750    7.8780 C.3   140  VAL140      0.0252
    160  CG1        7.3120   -3.9540    8.2490 C.3   140  VAL140      0.0019
    161  CG2        5.9390   -5.9120    9.1220 C.3   140  VAL140      0.0019
    162  N          7.1840    3.0880    7.5900 N.3   174  THR174     -0.1218
    163  CA         6.8050    1.6820    7.6620 C.3   174  THR174      0.1862
    164  C          5.3000    1.5590    7.7040 C.2   174  THR174      0.2287
    165  O          4.6150    2.3490    8.3220 O.2   174  THR174     -0.2866
    166  CB         7.4410    1.0330    8.9080 C.3   174  THR174      0.1770
    167  OG1        8.8690    1.1140    8.8090 O.3   174  THR174     -0.2211
    168  CG2        7.0660   -0.4300    9.0980 C.3   174  THR174      0.0375
    169  N          2.5530   -1.5320    8.6180 N.3   176  VAL176     -0.1245
    170  CA         2.3180   -2.8910    9.1140 C.3   176  VAL176      0.1561
    171  C          0.8800   -3.2390    8.7740 C.2   176  VAL176      0.2260
    172  O         -0.0500   -2.5620    9.2200 O.2   176  VAL176     -0.2867
    173  CB         2.5730   -3.0040   10.6260 C.3   176  VAL176      0.0252
    174  CG1        2.2720   -4.4200   11.1080 C.3   176  VAL176      0.0019
    175  CG2        3.9890   -2.5930   10.9810 C.3   176  VAL176      0.0019
@<TRIPOS>BOND
     1   158   157    2
     2   157   156    1
     3    83    82    2
     4   155   156    1
     5    82    81    1
     6   156   159    1
     7   162   163    1
     8   163   164    1
     9   163   166    1
    10   164   165    2
    11    80    81    1
    12    80    78   am
    13   159   160    1
    14   159   161    1
    15    81    84    1
    16    63    62    2
    17    71    70    2
    18    77    78    1
    19    77    76    1
    20    84    85    1
    21    78    79    2
    22   169   170    1
    23   171   170    1
    24   171   172    2
    25   167   166    1
    26   166   168    1
    27    70    76   am
    28    70    69    1
    29    62    61    1
    30   170   173    1
    31    60    61    1
    32    85    86    1
    33    69    68    1
    34    69    72    1
    35    87    86    1
    36    61    64    1
    37    66    65   ar
    38    73    72    1
    39    73    75    1
    40   173   175    1
    41   173   174    1
    42   102   101    1
    43    72    74    1
    44    65    64    1
    45    65    67   ar
    46    99    98    2
    47   100   101    1
    48   100    97    1
    49   101   103    1
    50    98    97    1
    51   142   140   ar
    52   142   141   ar
    53    88    89    1
    54    97    96    1
    55    96    90   am
    56   140   138   ar
    57    95    93   am
    58   141   139   ar
    59    49    48    2
    60    50    47    1
    61    92    93    1
    62    92    89    1
    63    93    94    2
    64    37    36    1
    65    89    90    1
    66    90    91    2
    67    54    53    2
    68    53    52    1
    69    48    47    1
    70   138   137   ar
    71    47    46    1
    72    36    33    1
    73   139   137   ar
    74    16    15    1
    75    55    52    1
    76    55    56    1
    77    33    34    1
    78    33    32    1
    79    35    34    2
    80   137   136    1
    81    52    51    1
    82   154   153    1
    83    17    15    1
    84   151   153   ar
    85   151   149   ar
    86    57    56    1
    87    57    58    1
    88    15    14    1
    89    46    40   am
    90    14    11    1
    91    32    26   am
    92    27    26    2
    93   153   152   ar
    94    13    12    2
    95   149   148   ar
    96    26    25    1
    97    28    25    1
    98    28    29    1
    99   136   133    1
   100   135   134    2
   101    12    11    1
   102    58    59    1
   103    11    10    1
   104    41    40    2
   105    40    39    1
   106    31    29   am
   107    25    24    1
   108   134   133    1
   109   134   143   am
   110    29    30    2
   111   152   150   ar
   112   148   150   ar
   113   148   147    1
   114   133   132    1
   115   144   143    1
   116   144   147    1
   117   144   145    1
   118   146   145    2
   119    38    39    1
   120    10     3   am
   121    39    42    1
   122    24    20   am
   123    42    43    1
   124   132   130   am
   125     4     3    2
   126    20    21    2
   127    20    19    1
   128   111   112    1
   129   111   110    1
   130     3     2    1
   131    18    19    1
   132   131   130    2
   133   130   129    1
   134    19    22    1
   135    43    45   ar
   136    43    44   ar
   137   109   110    1
   138   109   108    1
   139     2     5    1
   140     2     1    1
   141     5     6    1
   142   124   123    2
   143   104   105    1
   144    22    23    1
   145   129   128    1
   146   123   128   am
   147   123   122    1
   148   108   105    1
   149   122   125    1
   150   122   121    1
   151   126   125    1
   152   105   106    1
   153   120   119    2
   154     6     7    1
   155   125   127    1
   156     8     7   ar
   157   121   119   am
   158   119   118    1
   159     7     9   ar
   160   106   107    2
   161   118   117    1
   162   114   113    1
   163   114   115    1
   164   116   115    2
