@<TRIPOS>MOLECULE
tmp/3t11B01.pdb
 101 96 0 0 0
SMALL
GASTEIGER

@<TRIPOS>ATOM
      1  N         -8.8640   -2.3030   22.0100 N.3    25  ASP25      -0.1239
      2  CA        -7.8160   -2.0520   21.0230 C.3    25  ASP25       0.1674
      3  C         -7.0910   -3.3510   20.6340 C.2    25  ASP25       0.2266
      4  O         -6.1260   -3.7520   21.2920 O.2    25  ASP25      -0.2867
      5  CB        -6.8720   -0.9540   21.5570 C.3    25  ASP25       0.1410
      6  CG        -5.8680   -0.4850   20.5230 C.2    25  ASP25       0.3668
      7  OD1       -5.9160   -0.9820   19.3830 O.co2  25  ASP25      -0.2456
      8  OD2       -5.0170    0.3680   20.8570 O.co2  25  ASP25      -0.2456
      9  N         -5.2370   -3.5700   18.2280 N.3    27  GLY27      -0.1210
     10  CA        -3.9980   -3.1060   17.6450 C.3    27  GLY27       0.1956
     11  C         -2.9010   -2.9310   18.6620 C.2    27  GLY27       0.2612
     12  O         -1.8190   -2.5100   18.3030 O.2    27  GLY27      -0.2717
     13  N         -3.1540   -3.3100   19.9200 N.am   28  ALA28      -0.1965
     14  CA        -2.2140   -3.0920   21.0290 C.3    28  ALA28       0.1728
     15  C         -1.9540   -4.3820   21.8170 C.2    28  ALA28       0.2616
     16  O         -2.9120   -5.0520   22.2440 O.2    28  ALA28      -0.2715
     17  CB        -2.7860   -2.0110   21.9930 C.3    28  ALA28       0.0334
     18  N         -0.6830   -4.7080   22.0650 N.am   29  ASP29      -0.1957
     19  CA        -0.3420   -5.8800   22.9010 C.3    29  ASP29       0.1840
     20  C         -0.8050   -5.7080   24.3430 C.2    29  ASP29       0.2622
     21  O         -1.2940   -6.6770   24.9580 O.2    29  ASP29      -0.2715
     22  CB         1.1770   -6.1130   22.9590 C.3    29  ASP29       0.1450
     23  CG         1.7980   -6.3760   21.6000 C.2    29  ASP29       0.3671
     24  OD1        1.0860   -6.5550   20.5730 O.co2  29  ASP29      -0.2456
     25  OD2        3.0360   -6.4020   21.5640 O.co2  29  ASP29      -0.2456
     26  N         -0.6390   -4.4770   24.8620 N.am   30  ASP30      -0.1971
     27  CA        -0.8230   -4.1350   26.2810 C.3    30  ASP30       0.1709
     28  C         -1.9850   -3.1750   26.5690 C.2    30  ASP30       0.2293
     29  O         -2.4710   -2.4560   25.6660 O.2    30  ASP30      -0.2864
     30  CB         0.5020   -3.5720   26.8320 C.3    30  ASP30       0.1436
     31  CG         1.6130   -4.5770   26.7470 C.2    30  ASP30       0.3671
     32  OD1        1.4170   -5.7180   27.2680 O.co2  30  ASP30      -0.2456
     33  OD2        2.6550   -4.2610   26.1180 O.co2  30  ASP30      -0.2456
     34  N         -3.1850    0.1290   28.5780 N.3    32  VAL32      -0.1245
     35  CA        -2.6800    1.4030   29.0960 C.3    32  VAL32       0.1561
     36  C         -3.8700    2.2500   29.5140 C.2    32  VAL32       0.2260
     37  O         -4.7680    2.5240   28.7140 O.2    32  VAL32      -0.2867
     38  CB        -1.7600    2.1670   28.1030 C.3    32  VAL32       0.0252
     39  CG1       -1.0220    3.3300   28.8190 C.3    32  VAL32       0.0019
     40  CG2       -0.7560    1.2340   27.4840 C.3    32  VAL32       0.0019
     41  N          7.1230    2.5380   26.8230 N.3    47  ILE47      -0.1231
     42  CA         6.3400    2.0260   25.7140 C.3    47  ILE47       0.1692
     43  C          6.2860    3.0360   24.5890 C.2    47  ILE47       0.2593
     44  O          6.0890    4.2450   24.8210 O.2    47  ILE47      -0.2718
     45  CB         4.9090    1.5390   26.1260 C.3    47  ILE47       0.0266
     46  CG1        4.1560    2.6580   26.8270 C.3    47  ILE47       0.0019
     47  CG2        5.0050    0.3300   27.0010 C.3    47  ILE47       0.0020
     48  CD1        2.6750    2.4190   26.9240 C.3    47  ILE47       0.0001
     49  N          6.3910    2.5070   23.3680 N.am   48  GLY48      -0.1942
     50  CA         6.5420    3.2920   22.1610 C.3    48  GLY48       0.2014
     51  C          5.2950    3.5490   21.3130 C.2    48  GLY48       0.2639
     52  O          4.3980    2.7150   21.2230 O.2    48  GLY48      -0.2714
     53  N          5.2670    4.7220   20.6800 N.am   49  GLY49      -0.1939
     54  CA         4.2250    5.0740   19.7260 C.3    49  GLY49       0.2014
     55  C          4.9760    5.6760   18.5710 C.2    49  GLY49       0.2638
     56  O          6.1970    5.6560   18.5830 O.2    49  GLY49      -0.2714
     57  N          4.2730    6.2410   17.5970 N.am   50  ILE50      -0.1977
     58  CA         4.9180    6.7990   16.3810 C.3    50  ILE50       0.1596
     59  C          6.0280    7.8180   16.6160 C.2    50  ILE50       0.2287
     60  O          6.9850    7.8550   15.8560 O.2    50  ILE50      -0.2864
     61  CB         3.8890    7.4810   15.3950 C.3    50  ILE50       0.0276
     62  CG1        3.2140    8.6950   16.0640 C.3    50  ILE50       0.0022
     63  CG2        2.8770    6.4540   14.8670 C.3    50  ILE50       0.0022
     64  CD1        2.7780    9.7780   15.1290 C.3    50  ILE50       0.0001
     65  N          6.6770    6.8660   26.0630 N.3    54  ILE54      -0.1245
     66  CA         6.0500    7.2750   27.3160 C.3    54  ILE54       0.1561
     67  C          6.5750    6.3310   28.4360 C.2    54  ILE54       0.2260
     68  O          6.6650    5.1000   28.2390 O.2    54  ILE54      -0.2867
     69  CB         4.4670    7.1910   27.2270 C.3    54  ILE54       0.0252
     70  CG1        3.8510    8.1020   26.1270 C.3    54  ILE54       0.0019
     71  CG2        3.7760    7.3510   28.6270 C.3    54  ILE54       0.0019
     72  CD1        4.3040    9.5210   26.0730 C.3    54  ILE54       0.0001
     73  N          0.3360    8.3470   31.0830 N.3    79  PRO79      -0.2102
     74  CA        -0.3850    9.2410   30.1540 C.3    79  PRO79       0.1504
     75  C         -0.5580    8.6170   28.7660 C.2    79  PRO79       0.2576
     76  O          0.3920    8.1830   28.1080 O.2    79  PRO79      -0.2718
     77  CB         0.4690   10.5320   30.1220 C.3    79  PRO79       0.0282
     78  CG         1.8740   10.0780   30.5580 C.3    79  PRO79       0.0208
     79  CD         1.7000    8.8070   31.4160 C.3    79  PRO79       0.0893
     80  N         -1.8030    8.5750   28.3470 N.am   80  THR80      -0.1940
     81  CA        -2.1800    8.0280   27.0670 C.3    80  THR80       0.2013
     82  C         -3.2410    8.9720   26.5170 C.2    80  THR80       0.2484
     83  O         -4.0390    9.5290   27.2810 O.2    80  THR80      -0.2729
     84  CB        -2.7210    6.5620   27.2000 C.3    80  THR80       0.1807
     85  OG1       -3.1320    6.0890   25.9100 O.3    80  THR80      -0.2208
     86  CG2       -3.9070    6.4350   28.2630 C.3    80  THR80       0.0379
     87  N         -3.2440    9.1810   25.1840 N.am   81  PRO81      -0.2726
     88  CA        -4.2900   10.0510   24.5810 C.3    81  PRO81       0.1402
     89  C         -5.7240    9.4680   24.7090 C.2    81  PRO81       0.2269
     90  O         -6.7140   10.1980   24.6610 O.2    81  PRO81      -0.2865
     91  CB        -3.8470   10.1700   23.1070 C.3    81  PRO81       0.0296
     92  CG        -2.9650    8.9270   22.8550 C.3    81  PRO81       0.0237
     93  CD        -2.2650    8.6780   24.1800 C.3    81  PRO81       0.0939
     94  N         -6.7550    2.3340   26.5890 N.3    84  ILE84      -0.1245
     95  CA        -6.8300    1.2420   25.6530 C.3    84  ILE84       0.1561
     96  C         -6.7260   -0.1050   26.4200 C.2    84  ILE84       0.2260
     97  O         -5.9530   -0.2200   27.3850 O.2    84  ILE84      -0.2867
     98  CB        -5.7630    1.4020   24.5080 C.3    84  ILE84       0.0252
     99  CG1       -4.3150    1.4320   25.0320 C.3    84  ILE84       0.0019
    100  CG2       -6.1130    2.6170   23.6080 C.3    84  ILE84       0.0019
    101  CD1       -3.2030    1.1050   23.9200 C.3    84  ILE84       0.0001
@<TRIPOS>BOND
     1    63    61    1
     2    64    62    1
     3    61    62    1
     4    61    58    1
     5    60    59    2
     6    58    59    1
     7    58    57    1
     8    57    55   am
     9    10     9    1
    10    10    11    1
    11    12    11    2
    12    55    56    2
    13    55    54    1
    14    11    13   am
    15     7     6   ar
    16    54    53    1
    17    13    14    1
    18     6     8   ar
    19     6     5    1
    20    24    23   ar
    21     3     2    1
    22     3     4    2
    23    53    51   am
    24     2     5    1
    25     2     1    1
    26    14    15    1
    27    14    17    1
    28    52    51    2
    29    51    50    1
    30    25    23   ar
    31    23    22    1
    32    15    18   am
    33    15    16    2
    34    18    19    1
    35    50    49    1
    36    92    91    1
    37    92    93    1
    38    19    22    1
    39    19    20    1
    40    91    88    1
    41    49    43   am
    42   100    98    1
    43   101    99    1
    44    93    87    1
    45    20    26   am
    46    20    21    2
    47    98    99    1
    48    98    95    1
    49    88    89    1
    50    88    87    1
    51    43    44    2
    52    43    42    1
    53    90    89    2
    54    26    27    1
    55    87    82   am
    56    95    96    1
    57    95    94    1
    58    29    28    2
    59    42    45    1
    60    42    41    1
    61    85    84    1
    62    65    66    1
    63    72    70    1
    64    33    31   ar
    65    45    46    1
    66    45    47    1
    67    70    69    1
    68    27    28    1
    69    27    30    1
    70    96    97    2
    71    82    81    1
    72    82    83    2
    73    31    30    1
    74    31    32   ar
    75    46    48    1
    76    81    84    1
    77    81    80    1
    78    84    86    1
    79    69    66    1
    80    69    71    1
    81    66    67    1
    82    40    38    1
    83    38    39    1
    84    38    35    1
    85    76    75    2
    86    68    67    2
    87    80    75   am
    88    34    35    1
    89    37    36    2
    90    75    74    1
    91    35    36    1
    92    77    74    1
    93    77    78    1
    94    74    73    1
    95    78    79    1
    96    73    79    1
