@<TRIPOS>MOLECULE
tmp/3t13A01.pdb
 118 114 0 0 0
SMALL
GASTEIGER

@<TRIPOS>ATOM
      1  N          9.3230    6.8550    1.0780 N.3    30  ARG30      -0.1231
      2  CA         8.3500    6.3930    2.0460 C.3    30  ARG30       0.1694
      3  C          7.1070    5.9480    1.2520 C.2    30  ARG30       0.2592
      4  O          6.6010    6.6860    0.3650 O.2    30  ARG30      -0.2718
      5  CB         8.0090    7.5920    2.9600 C.3    30  ARG30       0.0321
      6  CG         6.8160    7.3750    3.8810 C.3    30  ARG30       0.0489
      7  CD         7.1560    6.2560    4.8820 C.3    30  ARG30       0.2205
      8  NE         6.1940    6.2400    5.9960 N.pl3  30  ARG30      -0.0865
      9  CZ         5.0220    5.6010    6.0360 C.cat  30  ARG30       0.5346
     10  NH1        4.5310    5.0170    4.9580 N.pl3  30  ARG30       0.1354
     11  NH2        4.2940    5.6000    7.1740 N.pl3  30  ARG30       0.1354
     12  N          6.6620    4.7180    1.5080 N.am   31  LEU31      -0.1966
     13  CA         5.5320    4.1490    0.7220 C.3    31  LEU31       0.1728
     14  C          4.2640    4.9370    0.9930 C.2    31  LEU31       0.2616
     15  O          3.8290    5.0370    2.1640 O.2    31  LEU31      -0.2715
     16  CB         5.3120    2.6680    1.1350 C.3    31  LEU31       0.0311
     17  CG         6.4550    1.7520    0.7330 C.3    31  LEU31       0.0022
     18  CD1        6.0330    0.2780    0.9290 C.3    31  LEU31       0.0001
     19  CD2        6.7540    1.8690   -0.6360 C.3    31  LEU31       0.0001
     20  N          3.5470    5.3230   -0.0830 N.am   32  LEU32      -0.1963
     21  CA         2.2450    5.9610    0.1150 C.3    32  LEU32       0.1728
     22  C          1.1820    5.0640    0.7010 C.2    32  LEU32       0.2616
     23  O          1.1270    3.8580    0.3910 O.2    32  LEU32      -0.2715
     24  CB         1.7320    6.5100   -1.2360 C.3    32  LEU32       0.0311
     25  CG         2.3940    7.8520   -1.6250 C.3    32  LEU32       0.0022
     26  CD1        1.9850    8.1900   -3.0930 C.3    32  LEU32       0.0001
     27  CD2        1.7950    8.9980   -0.7240 C.3    32  LEU32       0.0001
     28  N          0.3510    5.6840    1.5440 N.am   33  LEU33      -0.1963
     29  CA        -0.9180    5.0750    1.9770 C.3    33  LEU33       0.1728
     30  C         -0.8350    3.8050    2.8090 C.2    33  LEU33       0.2616
     31  O         -1.8720    3.1830    3.0470 O.2    33  LEU33      -0.2715
     32  CB        -1.8930    4.8490    0.7930 C.3    33  LEU33       0.0311
     33  CG        -2.4980    6.1290    0.1490 C.3    33  LEU33       0.0022
     34  CD1       -3.3150    5.6710   -1.0870 C.3    33  LEU33       0.0001
     35  CD2       -3.4050    6.8540    1.1540 C.3    33  LEU33       0.0001
     36  N          0.3070    3.5530    3.4340 N.am   34  VAL34      -0.1963
     37  CA         0.4600    2.3790    4.2940 C.3    34  VAL34       0.1727
     38  C          1.3300    2.7670    5.4830 C.2    34  VAL34       0.2616
     39  O          2.2170    3.6180    5.3680 O.2    34  VAL34      -0.2715
     40  CB         1.1130    1.1520    3.5430 C.3    34  VAL34       0.0290
     41  CG1        0.3080    0.8330    2.2430 C.3    34  VAL34       0.0023
     42  CG2        2.6390    1.3790    3.2380 C.3    34  VAL34       0.0023
     43  N          1.0840    2.1030    6.6080 N.am   35  ASP35      -0.1971
     44  CA         1.9330    2.2680    7.8130 C.3    35  ASP35       0.1709
     45  C          2.3190    0.8420    8.2470 C.2    35  ASP35       0.2293
     46  O          1.4650    0.0750    8.6970 O.2    35  ASP35      -0.2864
     47  CB         1.0770    2.8610    8.9220 C.3    35  ASP35       0.1436
     48  CG         0.7860    4.3450    8.7080 C.2    35  ASP35       0.3671
     49  OD1        1.6750    5.0890    8.2600 O.co2  35  ASP35      -0.2456
     50  OD2       -0.3530    4.7650    8.9700 O.co2  35  ASP35      -0.2456
     51  N          7.5650   14.1950    1.5780 N.3    72  ASP72      -0.1239
     52  CA         7.0180   14.5250    2.9150 C.3    72  ASP72       0.1674
     53  C          7.8710   15.5830    3.5920 C.2    72  ASP72       0.2266
     54  O          8.7950   16.1270    2.9660 O.2    72  ASP72      -0.2867
     55  CB         6.8220   13.2780    3.8010 C.3    72  ASP72       0.1410
     56  CG         8.1350   12.6030    4.2790 C.2    72  ASP72       0.3668
     57  OD1        9.2630   13.1440    4.1030 O.co2  72  ASP72      -0.2456
     58  OD2        7.9950   11.4610    4.8170 O.co2  72  ASP72      -0.2456
     59  N         10.0150   15.3720    5.7630 N.3    74  TYR74      -0.1241
     60  CA        11.3230   14.8550    6.2280 C.3    74  TYR74       0.1605
     61  C         12.1930   14.5670    5.0170 C.2    74  TYR74       0.2264
     62  O         13.2900   13.9870    5.1520 O.2    74  TYR74      -0.2867
     63  CB        11.0970   13.6120    7.0940 C.3    74  TYR74       0.0534
     64  CG        10.2920   13.9090    8.3110 C.ar   74  TYR74      -0.0201
     65  CD1        8.9690   13.5240    8.3790 C.ar   74  TYR74      -0.0009
     66  CD2       10.8390   14.6390    9.3560 C.ar   74  TYR74      -0.0009
     67  CE1        8.1940   13.8120    9.4780 C.ar   74  TYR74       0.0417
     68  CE2       10.0650   14.9850   10.4650 C.ar   74  TYR74       0.0417
     69  CZ         8.7510   14.5570   10.5120 C.ar   74  TYR74       0.1957
     70  OH         7.9460   14.8790   11.5730 O.3    74  TYR74      -0.2866
     71  N         11.4850   12.7490    2.3740 N.3    76  ARG76      -0.1245
     72  CA        11.3150   11.4200    1.7260 C.3    76  ARG76       0.1563
     73  C         10.3920   11.5290    0.5240 C.2    76  ARG76       0.2260
     74  O          9.3090   12.1310    0.6230 O.2    76  ARG76      -0.2867
     75  CB        10.8010   10.3600    2.7000 C.3    76  ARG76       0.0307
     76  CG        11.7360   10.2930    3.9760 C.3    76  ARG76       0.0489
     77  CD        11.2290    9.1930    4.8690 C.3    76  ARG76       0.2205
     78  NE         9.9540    9.5800    5.5020 N.pl3  76  ARG76      -0.0865
     79  CZ         9.3770    8.8800    6.4760 C.cat  76  ARG76       0.5346
     80  NH1        9.9130    7.7200    6.8710 N.pl3  76  ARG76       0.1354
     81  NH2        8.2310    9.3120    7.0050 N.pl3  76  ARG76       0.1354
     82  N          7.4750   10.3530   -1.8980 N.3    78  LEU78      -0.1245
     83  CA         6.2670    9.6550   -1.5250 C.3    78  LEU78       0.1561
     84  C          5.7460    8.9470   -2.7960 C.2    78  LEU78       0.2260
     85  O          5.3040    9.5970   -3.7610 O.2    78  LEU78      -0.2867
     86  CB         5.2170   10.6530   -1.0250 C.3    78  LEU78       0.0270
     87  CG         5.5840   11.3380    0.3060 C.3    78  LEU78       0.0019
     88  CD1        4.4860   12.4110    0.6400 C.3    78  LEU78       0.0001
     89  CD2        5.6260   10.2070    1.3630 C.3    78  LEU78       0.0001
     90  N         -2.9770    3.9340    5.5540 N.3   101  ALA101     -0.1231
     91  CA        -2.6640    5.2080    6.2160 C.3   101  ALA101      0.1694
     92  C         -3.6430    6.2880    5.8120 C.2   101  ALA101      0.2592
     93  O         -4.3430    6.1520    4.7980 O.2   101  ALA101     -0.2718
     94  CB        -1.2110    5.6340    5.8620 C.3   101  ALA101      0.0304
     95  N         -3.7230    7.3680    6.5970 N.am  102  TYR102     -0.1976
     96  CA        -4.4560    8.5490    6.1540 C.3   102  TYR102      0.1639
     97  C         -3.9380    9.0380    4.7970 C.2   102  TYR102      0.2290
     98  O         -2.7380    9.0000    4.5640 O.2   102  TYR102     -0.2864
     99  CB        -4.2650    9.6910    7.1650 C.3   102  TYR102      0.0560
    100  CG        -4.8780    9.3710    8.5350 C.ar  102  TYR102     -0.0198
    101  CD1       -6.2190    9.0310    8.6560 C.ar  102  TYR102     -0.0009
    102  CD2       -4.1050    9.4260    9.6920 C.ar  102  TYR102     -0.0009
    103  CE1       -6.7750    8.7240    9.9000 C.ar  102  TYR102      0.0417
    104  CE2       -4.6410    9.1050   10.9350 C.ar  102  TYR102      0.0417
    105  CZ        -5.9730    8.7560   11.0360 C.ar  102  TYR102      0.1957
    106  OH        -6.5140    8.4610   12.2840 O.3   102  TYR102     -0.2866
    107  N         -2.4140   11.7700    2.4760 N.3   104  TYR104     -0.1241
    108  CA        -1.5320   12.8980    2.6900 C.3   104  TYR104      0.1605
    109  C         -1.5150   13.7710    1.4150 C.2   104  TYR104      0.2264
    110  O         -1.0330   13.3480    0.3320 O.2   104  TYR104     -0.2867
    111  CB        -0.1110   12.4090    2.9960 C.3   104  TYR104      0.0534
    112  CG         0.8730   13.5320    3.2850 C.ar  104  TYR104     -0.0201
    113  CD1        0.8660   14.1830    4.5130 C.ar  104  TYR104     -0.0009
    114  CD2        1.8280   13.9200    2.3190 C.ar  104  TYR104     -0.0009
    115  CE1        1.7990   15.2740    4.7870 C.ar  104  TYR104      0.0417
    116  CE2        2.7330   14.9820    2.5670 C.ar  104  TYR104      0.0417
    117  CZ         2.7340   15.6030    3.8150 C.ar  104  TYR104      0.1957
    118  OH         3.6050   16.6350    4.0350 O.3   104  TYR104     -0.2866
@<TRIPOS>BOND
     1    85    84    2
     2    26    25    1
     3    84    83    1
     4    82    83    1
     5    25    24    1
     6    25    27    1
     7    83    86    1
     8    24    21    1
     9    34    33    1
    10    86    87    1
    11    19    17    1
    12    20    21    1
    13    20    14   am
    14    21    22    1
    15    33    32    1
    16    33    35    1
    17    87    88    1
    18    87    89    1
    19   110   109    2
    20     4     3    2
    21    23    22    2
    22    73    74    2
    23    73    72    1
    24    22    28   am
    25    13    14    1
    26    13    16    1
    27    13    12    1
    28    17    18    1
    29    17    16    1
    30    32    29    1
    31    14    15    2
    32     1     2    1
    33     3    12   am
    34     3     2    1
    35   109   108    1
    36    28    29    1
    37    51    52    1
    38    72    71    1
    39    72    75    1
    40    29    30    1
    41     2     5    1
    42    41    40    1
    43   114   116   ar
    44   114   112   ar
    45   107   108    1
    46   116   117   ar
    47   108   111    1
    48    75    76    1
    49    30    31    2
    50    30    36   am
    51    52    53    1
    52    52    55    1
    53     5     6    1
    54    54    53    2
    55   111   112    1
    56    42    40    1
    57   112   113   ar
    58    36    37    1
    59    40    37    1
    60    55    56    1
    61   117   118    1
    62   117   115   ar
    63     6     7    1
    64    76    77    1
    65    57    56   ar
    66    56    58   ar
    67    37    38    1
    68   113   115   ar
    69    98    97    2
    70    97    96    1
    71    93    92    2
    72    77    78    1
    73     7     8    1
    74    10     9    1
    75    61    62    2
    76    61    60    1
    77    39    38    2
    78    38    43   am
    79    78    79    2
    80    90    91    1
    81    59    60    1
    82    92    91    1
    83    92    95   am
    84    94    91    1
    85     8     9    2
    86     9    11    1
    87    96    95    1
    88    96    99    1
    89    60    63    1
    90    79    80    1
    91    79    81    1
    92    43    44    1
    93    63    64    1
    94    99   100    1
    95    44    45    1
    96    44    47    1
    97    45    46    2
    98    49    48   ar
    99    64    65   ar
   100    64    66   ar
   101    65    67   ar
   102   100   101   ar
   103   100   102   ar
   104   101   103   ar
   105    48    47    1
   106    48    50   ar
   107    66    68   ar
   108    67    69   ar
   109   102   104   ar
   110   103   105   ar
   111    68    69   ar
   112    69    70    1
   113   104   105   ar
   114   105   106    1
