@<TRIPOS>MOLECULE
tmp/3t19A00.pdb
 207 209 0 0 0
SMALL
GASTEIGER

@<TRIPOS>ATOM
      1  N         11.5110   21.5110   21.7920 N.3    92  PRO92      -0.2102
      2  CA        10.8140   21.1620   20.5490 C.3    92  PRO92       0.1504
      3  C          9.3180   21.0210   20.7950 C.2    92  PRO92       0.2575
      4  O          8.9010   20.4900   21.8260 O.2    92  PRO92      -0.2718
      5  CB        11.4510   19.8380   20.1320 C.3    92  PRO92       0.0282
      6  CG        12.7270   19.7420   20.9190 C.3    92  PRO92       0.0208
      7  CD        12.4900   20.4710   22.1810 C.3    92  PRO92       0.0893
      8  N          8.5080   21.5950   19.8930 N.am   93  HIS93      -0.1976
      9  CA         7.0610   21.4960   19.9690 C.3    93  HIS93       0.1656
     10  C          6.6260   20.4120   18.9900 C.2    93  HIS93       0.2291
     11  O          7.1040   20.4010   17.8540 O.2    93  HIS93      -0.2864
     12  CB         6.3660   22.8300   19.6360 C.3    93  HIS93       0.0771
     13  CG         4.9240   22.8210   20.0260 C.ar   93  HIS93       0.0820
     14  ND1        3.9890   22.0660   19.3330 N.ar   93  HIS93      -0.2267
     15  CD2        4.3250   23.3720   21.0990 C.ar   93  HIS93       0.1154
     16  CE1        2.8580   22.2020   19.9940 C.ar   93  HIS93       0.1986
     17  NE2        3.0140   22.9820   21.0610 N.ar   93  HIS93      -0.2212
     18  N          7.3150   18.8700   14.3010 N.3    97  LEU97      -0.1231
     19  CA         7.8390   17.5640   13.8920 C.3    97  LEU97       0.1693
     20  C          7.2630   17.1900   12.5230 C.2    97  LEU97       0.2592
     21  O          6.0770   17.4280   12.2690 O.2    97  LEU97      -0.2718
     22  CB         7.5230   16.4550   14.9440 C.3    97  LEU97       0.0284
     23  CG         8.0640   16.6520   16.3570 C.3    97  LEU97       0.0019
     24  CD1        7.4870   15.6660   17.2980 C.3    97  LEU97       0.0001
     25  CD2        9.5110   16.5240   16.3970 C.3    97  LEU97       0.0001
     26  N          8.1100   16.6490   11.6350 N.am   98  LYS98      -0.1966
     27  CA         7.6500   16.1840   10.3380 C.3    98  LYS98       0.1728
     28  C          7.1970   14.7490   10.5430 C.2    98  LYS98       0.2616
     29  O          7.4930   14.1580   11.5920 O.2    98  LYS98      -0.2715
     30  CB         8.7250   16.3090    9.2510 C.3    98  LYS98       0.0311
     31  CG         9.1330   17.7440    8.9920 C.3    98  LYS98       0.0038
     32  CD        10.6000   17.8640    8.6000 C.3    98  LYS98       0.0206
     33  CE        11.0660   19.3040    8.5520 C.3    98  LYS98       0.1093
     34  NZ        11.3070   19.8710    9.9110 N.3    98  LYS98      -0.1314
     35  N          6.3870   14.2240    9.6290 N.am   99  LYS99      -0.1963
     36  CA         5.9370   12.8500    9.7590 C.3    99  LYS99       0.1728
     37  C          7.0130   11.9600    9.1110 C.2    99  LYS99       0.2616
     38  O          7.3140   12.0910    7.9120 O.2    99  LYS99      -0.2715
     39  CB         4.5260   12.6560    9.1520 C.3    99  LYS99       0.0311
     40  CG         3.9700   11.2410    9.3040 C.3    99  LYS99       0.0038
     41  CD         2.4620   11.2330    9.3170 C.3    99  LYS99       0.0206
     42  CE         1.8890   10.6000    8.0830 C.3    99  LYS99       0.1093
     43  NZ         0.4060   10.6570    8.0960 N.3    99  LYS99      -0.1314
     44  N          7.6660   11.1450    9.9370 N.am  100  LYS100     -0.1963
     45  CA         8.7160   10.2400    9.4680 C.3   100  LYS100      0.1728
     46  C          8.1880    8.8230    9.4080 C.2   100  LYS100      0.2616
     47  O          7.3270    8.4440   10.2150 O.2   100  LYS100     -0.2715
     48  CB         9.9460   10.3140   10.3770 C.3   100  LYS100      0.0311
     49  CG        11.0670   11.1460    9.7800 C.3   100  LYS100      0.0038
     50  CD        11.4900   12.1760   10.7700 C.3   100  LYS100      0.0206
     51  CE        10.8220   13.5200   10.5720 C.3   100  LYS100      0.1093
     52  NZ        11.4090   14.2470    9.4080 N.3   100  LYS100     -0.1314
     53  N          8.7060    8.0410    8.4560 N.am  101  LYS101     -0.1963
     54  CA         8.3320    6.6280    8.2650 C.3   101  LYS101      0.1728
     55  C          8.5600    5.8340    9.5550 C.2   101  LYS101      0.2617
     56  O          7.6580    5.1480   10.0440 O.2   101  LYS101     -0.2715
     57  CB         9.1130    6.0140    7.0840 C.3   101  LYS101      0.0311
     58  CG         8.2070    5.5470    5.9530 C.3   101  LYS101      0.0038
     59  CD         8.7830    5.8830    4.5640 C.3   101  LYS101      0.0206
     60  CE         8.0320    5.2100    3.4320 C.3   101  LYS101      0.1093
     61  NZ         6.6020    5.6300    3.3520 N.3   101  LYS101     -0.1314
     62  N          9.7430    6.0170   10.1460 N.am  102  SER102     -0.1936
     63  CA        10.1410    5.3530   11.3910 C.3   102  SER102      0.2055
     64  C         10.8760    6.3050   12.3130 C.2   102  SER102      0.2643
     65  O         11.7150    7.1030   11.8690 O.2   102  SER102     -0.2714
     66  CB        10.9820    4.0980   11.1130 C.3   102  SER102      0.2130
     67  OG        11.6680    4.1290    9.8660 O.3   102  SER102     -0.2179
     68  N         10.4980    6.2600   13.5980 N.am  103  VAL103     -0.1963
     69  CA        11.1410    7.0150   14.6700 C.3   103  VAL103      0.1727
     70  C         11.4350    6.1080   15.8780 C.2   103  VAL103      0.2617
     71  O         10.5320    5.4060   16.3680 O.2   103  VAL103     -0.2715
     72  CB        10.5710    8.4430   15.0430 C.3   103  VAL103      0.0290
     73  CG1        9.9850    9.1830   13.8370 C.3   103  VAL103      0.0023
     74  CG2        9.5950    8.4200   16.2130 C.3   103  VAL103      0.0023
     75  N         12.7040    6.1000   16.3310 N.am  104  THR104     -0.1937
     76  CA        13.0790    5.3470   17.5210 C.3   104  THR104      0.2028
     77  C         13.6160    6.2200   18.6420 C.2   104  THR104      0.2642
     78  O         14.3690    7.1720   18.4060 O.2   104  THR104     -0.2714
     79  CB        13.9600    4.0950   17.2270 C.3   104  THR104      0.1808
     80  OG1       15.0900    4.4350   16.4180 O.3   104  THR104     -0.2208
     81  CG2       13.1570    2.9070   16.6350 C.3   104  THR104      0.0379
     82  N         13.2420    5.8690   19.8740 N.am  105  VAL105     -0.1977
     83  CA        13.7460    6.5470   21.0600 C.3   105  VAL105      0.1596
     84  C         14.9720    5.8020   21.6280 C.2   105  VAL105      0.2287
     85  O         14.8870    4.6190   21.9720 O.2   105  VAL105     -0.2864
     86  CB        12.6180    6.7830   22.1140 C.3   105  VAL105      0.0276
     87  CG1       13.1830    7.1410   23.4930 C.3   105  VAL105      0.0022
     88  CG2       11.6440    7.8540   21.6330 C.3   105  VAL105      0.0022
     89  N         17.0440   12.4490   11.0190 N.3   176  VAL176     -0.1245
     90  CA        16.7210   13.4430   12.0350 C.3   176  VAL176      0.1561
     91  C         17.1610   12.8970   13.3690 C.2   176  VAL176      0.2260
     92  O         16.8040   11.7680   13.7320 O.2   176  VAL176     -0.2867
     93  CB        15.2050   13.8370   12.0850 C.3   176  VAL176      0.0252
     94  CG1       14.9940   15.1430   12.8370 C.3   176  VAL176      0.0019
     95  CG2       14.5970   13.9250   10.7010 C.3   176  VAL176      0.0019
     96  N         16.9980   14.2850   17.3380 N.3   178  TYR178     -0.1241
     97  CA        16.6050   15.2800   18.3270 C.3   178  TYR178      0.1605
     98  C         17.4360   15.0100   19.6180 C.2   178  TYR178      0.2264
     99  O         17.4870   13.8750   20.0990 O.2   178  TYR178     -0.2867
    100  CB        15.0790   15.2450   18.5690 C.3   178  TYR178      0.0534
    101  CG        14.2750   16.0840   17.5930 C.ar  178  TYR178     -0.0201
    102  CD1       13.9720   17.4150   17.8720 C.ar  178  TYR178     -0.0009
    103  CD2       13.7370   15.5260   16.4380 C.ar  178  TYR178     -0.0009
    104  CE1       13.1870   18.1810   17.0030 C.ar  178  TYR178      0.0417
    105  CE2       12.9680   16.2890   15.5510 C.ar  178  TYR178      0.0417
    106  CZ        12.7210   17.6260   15.8210 C.ar  178  TYR178      0.1957
    107  OH        11.9760   18.3990   14.9500 O.3   178  TYR178     -0.2866
    108  N         16.2760   11.2690   19.8860 N.3   185  TYR185     -0.1227
    109  CA        15.0780   10.8480   19.1500 C.3   185  TYR185      0.1736
    110  C         15.4620   10.8420   17.7190 C.2   185  TYR185      0.2595
    111  O         15.8970   11.8680   17.1880 O.2   185  TYR185     -0.2718
    112  CB        13.8900   11.7670   19.4240 C.3   185  TYR185      0.0548
    113  CG        13.6780   12.0550   20.8910 C.ar  185  TYR185     -0.0200
    114  CD1       13.5740   13.3590   21.3560 C.ar  185  TYR185     -0.0009
    115  CD2       13.6370   11.0230   21.8240 C.ar  185  TYR185     -0.0009
    116  CE1       13.4040   13.6310   22.7070 C.ar  185  TYR185      0.0417
    117  CE2       13.4630   11.2830   23.1760 C.ar  185  TYR185      0.0417
    118  CZ        13.3520   12.5900   23.6160 C.ar  185  TYR185      0.1957
    119  OH        13.1730   12.8390   24.9580 O.3   185  TYR185     -0.2866
    120  N         15.4420    9.6480   17.1310 N.am  186  VAL186     -0.1966
    121  CA        15.9250    9.4110   15.7650 C.3   186  VAL186      0.1727
    122  C         14.8030    9.0800   14.7830 C.2   186  VAL186      0.2616
    123  O         14.0270    8.1420   15.0030 O.2   186  VAL186     -0.2715
    124  CB        17.0800    8.3750   15.7200 C.3   186  VAL186      0.0290
    125  CG1       17.8690    8.5070   14.4270 C.3   186  VAL186      0.0023
    126  CG2       18.0100    8.5320   16.9230 C.3   186  VAL186      0.0023
    127  N         14.7340    9.8680   13.7160 N.am  187  GLY187     -0.1955
    128  CA        13.7030    9.7070   12.7010 C.3   187  GLY187      0.1869
    129  C         14.2410    9.7090   11.2920 C.2   187  GLY187      0.2309
    130  O         15.2020   10.4290   10.9870 O.2   187  GLY187     -0.2863
    131  N          5.6380    3.3800   19.8820 N.3   222  PRO222     -0.2116
    132  CA         4.6530    4.4750   19.9090 C.3   222  PRO222      0.1372
    133  C          3.2900    4.0070   20.4410 C.2   222  PRO222      0.2244
    134  O          3.0170    2.8150   20.3650 O.2   222  PRO222     -0.2868
    135  CB         4.5590    4.9020   18.4400 C.3   222  PRO222      0.0268
    136  CG         5.7210    4.2710   17.7670 C.3   222  PRO222      0.0207
    137  CD         5.9640    3.0090   18.4950 C.3   222  PRO222      0.0892
    138  N          4.4370    7.6890   22.0010 N.3   224  PHE224     -0.1227
    139  CA         5.4610    8.1810   22.9290 C.3   224  PHE224      0.1736
    140  C          4.8670    9.2300   23.8560 C.2   224  PHE224      0.2595
    141  O          4.2040   10.1650   23.3970 O.2   224  PHE224     -0.2718
    142  CB         6.6520    8.7710   22.1740 C.3   224  PHE224      0.0547
    143  CG         7.3080    7.8190   21.2080 C.ar  224  PHE224     -0.0202
    144  CD1        8.0150    6.7100   21.6680 C.ar  224  PHE224     -0.0042
    145  CD2        7.2500    8.0450   19.8410 C.ar  224  PHE224     -0.0042
    146  CE1        8.6200    5.8240   20.7740 C.ar  224  PHE224     -0.0003
    147  CE2        7.8750    7.1690   18.9490 C.ar  224  PHE224     -0.0003
    148  CZ         8.5550    6.0620   19.4220 C.ar  224  PHE224     -0.0000
    149  N          5.0500    9.0350   25.1680 N.am  225  LEU225     -0.1966
    150  CA         4.5630    9.9540   26.1960 C.3   225  LEU225      0.1728
    151  C          5.7680   10.7510   26.5690 C.2   225  LEU225      0.2616
    152  O          6.7700   10.1990   27.0440 O.2   225  LEU225     -0.2715
    153  CB         3.9670    9.2370   27.4310 C.3   225  LEU225      0.0311
    154  CG         2.7790    8.2730   27.2500 C.3   225  LEU225      0.0022
    155  CD1        1.9690    8.5500   25.9690 C.3   225  LEU225      0.0001
    156  CD2        3.2520    6.8500   27.2630 C.3   225  LEU225      0.0001
    157  N          5.7280   12.0340   26.2410 N.am  226  TRP226     -0.1974
    158  CA         6.8690   12.9100   26.4400 C.3   226  TRP226      0.1640
    159  C          6.3990   14.3090   26.7250 C.2   226  TRP226      0.2290
    160  O          5.6450   14.8800   25.9380 O.2   226  TRP226     -0.2864
    161  CB         7.7810   12.8380   25.2000 C.3   226  TRP226      0.0576
    162  CG         8.9310   13.8050   25.1740 C.ar  226  TRP226      0.0006
    163  CD1       10.1850   13.6140   25.6830 C.ar  226  TRP226      0.0946
    164  CD2        8.9500   15.0840   24.5330 C.ar  226  TRP226      0.0152
    165  NE1       10.9740   14.7040   25.4230 N.ar  226  TRP226     -0.2442
    166  CE2       10.2440   15.6260   24.7200 C.ar  226  TRP226      0.0810
    167  CE3        7.9720   15.8610   23.8750 C.ar  226  TRP226      0.0012
    168  CZ2       10.5980   16.8930   24.2500 C.ar  226  TRP226      0.0191
    169  CZ3        8.3270   17.1090   23.4020 C.ar  226  TRP226      0.0001
    170  CH2        9.6250   17.6190   23.5990 C.ar  226  TRP226      0.0015
    171  N          2.7010   11.2580   21.3010 N.3   231  LEU231     -0.1231
    172  CA         3.1450   11.3130   19.9090 C.3   231  LEU231      0.1693
    173  C          2.8630   10.0170   19.1780 C.2   231  LEU231      0.2592
    174  O          3.6700    9.0800   19.2310 O.2   231  LEU231     -0.2718
    175  CB         4.6250   11.7300   19.7940 C.3   231  LEU231      0.0284
    176  CG         4.9700   13.0770   20.4180 C.3   231  LEU231      0.0019
    177  CD1        6.3680   13.0870   20.9220 C.3   231  LEU231      0.0001
    178  CD2        4.7590   14.2190   19.4420 C.3   231  LEU231      0.0001
    179  N          1.6820    9.9550   18.5230 N.am  232  HIS232     -0.1962
    180  CA         1.2010    8.8260   17.7080 C.3   232  HIS232      0.1772
    181  C          1.8110    8.9200   16.2850 C.2   232  HIS232      0.2462
    182  O          2.2940    9.9860   15.8990 O.2   232  HIS232     -0.2730
    183  CB        -0.3390    8.8190   17.6260 C.3   232  HIS232      0.0785
    184  CG        -1.0460    8.7320   18.9410 C.ar  232  HIS232      0.0821
    185  ND1       -1.1410    9.8290   19.7860 N.ar  232  HIS232     -0.2267
    186  CD2       -1.7470    7.7060   19.4770 C.ar  232  HIS232      0.1154
    187  CE1       -1.8530    9.4200   20.8230 C.ar  232  HIS232      0.1986
    188  NE2       -2.2510    8.1550   20.6780 N.ar  232  HIS232     -0.2212
    189  N          1.7870    7.8470   15.4660 N.am  233  PRO233     -0.2727
    190  CA         2.4200    7.9400   14.1300 C.3   233  PRO233      0.1402
    191  C          1.8720    8.9400   13.0990 C.2   233  PRO233      0.2269
    192  O          2.5880    9.2750   12.1580 O.2   233  PRO233     -0.2865
    193  CB         2.3680    6.4960   13.6100 C.3   233  PRO233      0.0296
    194  CG         2.1000    5.6520   14.8110 C.3   233  PRO233      0.0237
    195  CD         1.3060    6.4740   15.7400 C.3   233  PRO233      0.0939
    196  N          1.1110   16.6640   12.0180 N.3   315  TYR315     -0.1241
    197  CA         2.5290   17.0000   11.8660 C.3   315  TYR315      0.1605
    198  C          2.7740   17.9650   10.7070 C.2   315  TYR315      0.2264
    199  O          1.8840   18.2210    9.8960 O.2   315  TYR315     -0.2867
    200  CB         3.3930   15.7190   11.7840 C.3   315  TYR315      0.0534
    201  CG         3.3050   14.8740   13.0440 C.ar  315  TYR315     -0.0201
    202  CD1        3.7650   15.3570   14.2680 C.ar  315  TYR315     -0.0009
    203  CD2        2.7740   13.5900   13.0080 C.ar  315  TYR315     -0.0009
    204  CE1        3.7050   14.5790   15.4210 C.ar  315  TYR315      0.0417
    205  CE2        2.7070   12.8040   14.1550 C.ar  315  TYR315      0.0417
    206  CZ         3.1740   13.3000   15.3610 C.ar  315  TYR315      0.1957
    207  OH         3.0690   12.5290   16.4930 O.3   315  TYR315     -0.2866
@<TRIPOS>BOND
     1    61    60    1
     2    60    59    1
     3    59    58    1
     4    58    57    1
     5    57    54    1
     6    38    37    2
     7    42    43    1
     8    42    41    1
     9    54    53    1
    10    54    55    1
    11    53    46   am
    12    33    32    1
    13    33    34    1
    14    32    31    1
    15    31    30    1
    16    37    36    1
    17    37    44   am
    18    39    40    1
    19    39    36    1
    20    30    27    1
    21    40    41    1
    22    52    51    1
    23    46    45    1
    24    46    47    2
    25    45    44    1
    26    45    48    1
    27    55    56    2
    28    55    62   am
    29    35    36    1
    30    35    28   am
    31    49    48    1
    32    49    50    1
    33    67    66    1
    34   199   198    2
    35    62    63    1
    36    27    28    1
    37    27    26    1
    38    28    29    2
    39    51    50    1
    40    95    93    1
    41   198   197    1
    42   130   129    2
    43    89    90    1
    44    66    63    1
    45   129   128    1
    46    63    64    1
    47    26    20   am
    48   200   197    1
    49   200   201    1
    50   197   196    1
    51    65    64    2
    52    90    93    1
    53    90    91    1
    54    93    94    1
    55   192   191    2
    56    21    20    2
    57    64    68   am
    58    20    19    1
    59   128   127    1
    60   203   201   ar
    61   203   205   ar
    62   201   202   ar
    63   191   190    1
    64    91    92    2
    65    68    69    1
    66   193   190    1
    67   193   194    1
    68   127   122   am
    69    73    72    1
    70    19    18    1
    71    19    22    1
    72   190   189    1
    73   205   206   ar
    74   202   204   ar
    75   125   124    1
    76    69    72    1
    77    69    70    1
    78   122   123    2
    79   122   121    1
    80   194   195    1
    81    22    23    1
    82   107   106    1
    83    72    74    1
    84   206   204   ar
    85   206   207    1
    86   189   195    1
    87   189   181   am
    88   105   106   ar
    89   105   103   ar
    90   124   121    1
    91   124   126    1
    92   121   120    1
    93   106   104   ar
    94    70    75   am
    95    70    71    2
    96   182   181    2
    97   181   180    1
    98    75    76    1
    99    23    25    1
   100    23    24    1
   101    80    79    1
   102   103   101   ar
   103    81    79    1
   104   104   102   ar
   105   120   110   am
   106   111   110    2
   107    79    76    1
   108    96    97    1
   109    76    77    1
   110   101   102   ar
   111   101   100    1
   112   183   180    1
   113   183   184    1
   114   180   179    1
   115   110   109    1
   116   136   135    1
   117   136   137    1
   118    11    10    2
   119    97   100    1
   120    97    98    1
   121    78    77    2
   122   135   132    1
   123   137   131    1
   124   179   173   am
   125    77    82   am
   126   184   186   ar
   127   184   185   ar
   128   147   148   ar
   129   147   145   ar
   130    10     9    1
   131   109   112    1
   132   109   108    1
   133   173   174    2
   134   173   172    1
   135    14    16   ar
   136    14    13   ar
   137   148   146   ar
   138   112   113    1
   139   178   176    1
   140   186   188   ar
   141    98    99    2
   142    12     9    1
   143    12    13    1
   144   185   187   ar
   145   175   172    1
   146   175   176    1
   147   145   143   ar
   148    82    83    1
   149   131   132    1
   150     8     9    1
   151     8     3   am
   152   172   171    1
   153   132   133    1
   154    16    17   ar
   155    13    15   ar
   156     5     2    1
   157     5     6    1
   158   134   133    2
   159   176   177    1
   160     2     3    1
   161     2     1    1
   162   188   187   ar
   163   146   144   ar
   164     3     4    2
   165   113   114   ar
   166   113   115   ar
   167     6     7    1
   168    83    84    1
   169    83    86    1
   170    17    15   ar
   171   143   144   ar
   172   143   142    1
   173   114   116   ar
   174    84    85    2
   175    88    86    1
   176     1     7    1
   177   115   117   ar
   178   138   139    1
   179    86    87    1
   180   142   139    1
   181   116   118   ar
   182   139   140    1
   183   117   118   ar
   184   141   140    2
   185   169   170   ar
   186   169   167   ar
   187   170   168   ar
   188   118   119    1
   189   140   149   am
   190   167   164   ar
   191   168   166   ar
   192   164   166   ar
   193   164   162   ar
   194   166   165   ar
   195   149   150    1
   196   162   161    1
   197   162   163   ar
   198   161   158    1
   199   165   163   ar
   200   160   159    2
   201   155   154    1
   202   150   151    1
   203   150   153    1
   204   157   158    1
   205   157   151   am
   206   158   159    1
   207   151   152    2
   208   154   156    1
   209   154   153    1
