@<TRIPOS>MOLECULE
tmp/3t1dA00.pdb
 120 117 0 0 0
SMALL
GASTEIGER

@<TRIPOS>ATOM
      1  N         50.9530   49.0460   35.4490 N.3    34  LEU34      -0.1245
      2  CA        51.3710   48.0250   36.3780 C.3    34  LEU34       0.1561
      3  C         52.8950   48.1160   36.4660 C.2    34  LEU34       0.2260
      4  O         53.5530   48.2260   35.4260 O.2    34  LEU34      -0.2867
      5  CB        50.8760   46.6970   35.8290 C.3    34  LEU34       0.0270
      6  CG        51.0980   45.3960   36.5490 C.3    34  LEU34       0.0019
      7  CD1       50.3330   45.3530   37.8730 C.3    34  LEU34       0.0001
      8  CD2       50.6860   44.2870   35.5770 C.3    34  LEU34       0.0001
      9  N         58.4160   41.8550   40.2470 N.3    38  ALA38      -0.1231
     10  CA        58.2280   40.6470   39.3940 C.3    38  ALA38       0.1694
     11  C         57.5640   40.9930   38.0510 C.2    38  ALA38       0.2591
     12  O         57.2180   40.0960   37.2960 O.2    38  ALA38      -0.2718
     13  CB        57.3930   39.5700   40.1040 C.3    38  ALA38       0.0304
     14  N         57.3760   42.2750   37.7550 N.am   39  ILE39      -0.1980
     15  CA        56.7480   42.6900   36.5030 C.3    39  ILE39       0.1595
     16  C         57.8390   43.0370   35.5000 C.2    39  ILE39       0.2287
     17  O         58.7120   43.8700   35.7750 O.2    39  ILE39      -0.2864
     18  CB        55.8690   43.9430   36.7130 C.3    39  ILE39       0.0276
     19  CG1       54.8070   43.7000   37.8020 C.3    39  ILE39       0.0022
     20  CG2       55.2400   44.3860   35.4050 C.3    39  ILE39       0.0022
     21  CD1       53.8390   42.6020   37.4480 C.3    39  ILE39       0.0001
     22  N         51.4830   42.5690   28.0920 N.3    47  GLN47      -0.1245
     23  CA        50.4450   42.4030   29.1100 C.3    47  GLN47       0.1566
     24  C         49.1220   42.9770   28.5760 C.2    47  GLN47       0.2260
     25  O         49.0820   44.0650   28.0130 O.2    47  GLN47      -0.2867
     26  CB        50.8750   43.1010   30.4150 C.3    47  GLN47       0.0367
     27  CG        49.8760   43.0670   31.5670 C.3    47  GLN47       0.0905
     28  CD        49.7320   41.6830   32.1670 C.2    47  GLN47       0.2608
     29  OE1       50.7240   41.0770   32.5530 O.2    47  GLN47      -0.2717
     30  NE2       48.4980   41.1730   32.2380 N.am   47  GLN47      -0.0878
     31  N         43.4360   43.9880   32.4220 N.3    50  TYR50      -0.1241
     32  CA        42.4730   43.2450   33.2140 C.3    50  TYR50       0.1605
     33  C         41.7750   44.2330   34.1260 C.2    50  TYR50       0.2264
     34  O         42.1440   45.3820   34.1670 O.2    50  TYR50      -0.2867
     35  CB        43.1420   42.1120   34.0100 C.3    50  TYR50       0.0534
     36  CG        44.2050   42.4990   35.0480 C.ar   50  TYR50      -0.0201
     37  CD1       45.5140   42.7410   34.6710 C.ar   50  TYR50      -0.0009
     38  CD2       43.8910   42.5840   36.4040 C.ar   50  TYR50      -0.0009
     39  CE1       46.4760   43.0640   35.5910 C.ar   50  TYR50       0.0417
     40  CE2       44.8540   42.9230   37.3460 C.ar   50  TYR50       0.0417
     41  CZ        46.1480   43.1560   36.9310 C.ar   50  TYR50       0.1957
     42  OH        47.1310   43.5050   37.8340 O.3    50  TYR50      -0.2866
     43  N         50.7910   39.7860   53.4360 N.3   104  PHE104     -0.1241
     44  CA        50.0770   40.4690   52.3670 C.3   104  PHE104      0.1605
     45  C         49.5720   41.8320   52.8200 C.2   104  PHE104      0.2264
     46  O         48.9150   41.9430   53.8250 O.2   104  PHE104     -0.2867
     47  CB        48.9000   39.6170   51.8620 C.3   104  PHE104      0.0534
     48  CG        48.2900   40.1260   50.5790 C.ar  104  PHE104     -0.0203
     49  CD1       48.7060   39.6350   49.3450 C.ar  104  PHE104     -0.0042
     50  CD2       47.3090   41.0840   50.5980 C.ar  104  PHE104     -0.0042
     51  CE1       48.1520   40.0940   48.1460 C.ar  104  PHE104     -0.0003
     52  CE2       46.7360   41.5370   49.4090 C.ar  104  PHE104     -0.0003
     53  CZ        47.1640   41.0480   48.1820 C.ar  104  PHE104     -0.0000
     54  N         50.8680   47.1060   46.6000 N.3   121  PHE121     -0.1227
     55  CA        50.7210   45.7590   47.1270 C.3   121  PHE121      0.1736
     56  C         52.1060   45.1670   47.4650 C.2   121  PHE121      0.2595
     57  O         53.0680   45.3290   46.7040 O.2   121  PHE121     -0.2718
     58  CB        50.1100   44.8260   46.0910 C.3   121  PHE121      0.0547
     59  CG        48.7760   45.2490   45.5710 C.ar  121  PHE121     -0.0202
     60  CD1       48.6730   46.2010   44.5830 C.ar  121  PHE121     -0.0042
     61  CD2       47.6300   44.6380   46.0280 C.ar  121  PHE121     -0.0042
     62  CE1       47.4500   46.5650   44.0780 C.ar  121  PHE121     -0.0003
     63  CE2       46.3910   44.9850   45.5230 C.ar  121  PHE121     -0.0003
     64  CZ        46.2980   45.9420   44.5290 C.ar  121  PHE121     -0.0000
     65  N         52.1950   44.5030   48.6110 N.am  122  LYS122     -0.1966
     66  CA        53.3900   43.8020   49.0230 C.3   122  LYS122      0.1728
     67  C         52.9940   42.4560   49.5940 C.2   122  LYS122      0.2616
     68  O         52.0540   42.3640   50.3700 O.2   122  LYS122     -0.2715
     69  CB        54.1070   44.5920   50.0860 C.3   122  LYS122      0.0311
     70  CG        55.4840   44.0450   50.4770 C.3   122  LYS122      0.0038
     71  CD        56.1850   44.9990   51.4630 C.3   122  LYS122      0.0206
     72  CE        55.7040   44.7420   52.9010 C.3   122  LYS122      0.1093
     73  NZ        56.0970   43.3930   53.4470 N.3   122  LYS122     -0.1314
     74  N         53.6890   41.4130   49.1880 N.am  123  LYS123     -0.1977
     75  CA        53.4800   40.0910   49.7390 C.3   123  LYS123      0.1596
     76  C         54.7900   39.3550   49.8860 C.2   123  LYS123      0.2287
     77  O         55.7360   39.6290   49.1690 O.2   123  LYS123     -0.2864
     78  CB        52.5200   39.2890   48.8580 C.3   123  LYS123      0.0298
     79  CG        53.0010   39.0540   47.4420 C.3   123  LYS123      0.0038
     80  CD        52.0980   38.0640   46.6860 C.3   123  LYS123      0.0206
     81  CE        52.8170   37.4640   45.4890 C.3   123  LYS123      0.1093
     82  NZ        51.9050   36.8550   44.4740 N.3   123  LYS123     -0.1314
     83  N         55.9090   35.5460   49.5770 N.3   125  SER125     -0.1217
     84  CA        55.5070   34.2330   49.1310 C.3   125  SER125      0.1889
     85  C         56.7660   33.3850   49.0050 C.2   125  SER125      0.2288
     86  O         57.7630   33.8150   48.3920 O.2   125  SER125     -0.2866
     87  CB        54.7900   34.3390   47.7760 C.3   125  SER125      0.2089
     88  OG        54.4110   33.0440   47.3490 O.3   125  SER125     -0.2183
     89  N         57.6970   40.3900   47.3080 N.3   130  TYR130     -0.1227
     90  CA        57.2540   41.0040   46.0720 C.3   130  TYR130      0.1736
     91  C         56.4750   42.2770   46.3650 C.2   130  TYR130      0.2595
     92  O         55.7870   42.3830   47.3920 O.2   130  TYR130     -0.2718
     93  CB        56.3430   40.0460   45.2800 C.3   130  TYR130      0.0548
     94  CG        57.0050   38.7410   44.8760 C.ar  130  TYR130     -0.0200
     95  CD1       57.8270   38.6810   43.7670 C.ar  130  TYR130     -0.0009
     96  CD2       56.8090   37.5800   45.6070 C.ar  130  TYR130     -0.0009
     97  CE1       58.4380   37.5130   43.3800 C.ar  130  TYR130      0.0417
     98  CE2       57.4130   36.3830   45.2260 C.ar  130  TYR130      0.0417
     99  CZ        58.2250   36.3560   44.1120 C.ar  130  TYR130      0.1957
    100  OH        58.8510   35.1930   43.7390 O.3   130  TYR130     -0.2866
    101  N         56.5870   43.2440   45.4590 N.am  131  PHE131     -0.1962
    102  CA        55.7450   44.4140   45.4920 C.3   131  PHE131      0.1771
    103  C         55.3670   44.8440   44.0860 C.2   131  PHE131      0.2619
    104  O         56.0540   44.5550   43.1050 O.2   131  PHE131     -0.2715
    105  CB        56.3790   45.5720   46.2690 C.3   131  PHE131      0.0574
    106  CG        57.5210   46.2460   45.5750 C.ar  131  PHE131     -0.0200
    107  CD1       58.7770   45.6680   45.5470 C.ar  131  PHE131     -0.0042
    108  CD2       57.3530   47.4910   44.9730 C.ar  131  PHE131     -0.0042
    109  CE1       59.8420   46.3090   44.8980 C.ar  131  PHE131     -0.0003
    110  CE2       58.4140   48.1470   44.3630 C.ar  131  PHE131     -0.0003
    111  CZ        59.6590   47.5500   44.3120 C.ar  131  PHE131     -0.0000
    112  N         54.2660   45.5610   44.0400 N.am  132  LYS132     -0.1977
    113  CA        53.5900   45.9470   42.8410 C.3   132  LYS132      0.1596
    114  C         52.9040   47.2870   43.1160 C.2   132  LYS132      0.2287
    115  O         52.4110   47.5230   44.2310 O.2   132  LYS132     -0.2864
    116  CB        52.5230   44.9000   42.5890 C.3   132  LYS132      0.0298
    117  CG        51.8410   44.9490   41.2710 C.3   132  LYS132      0.0038
    118  CD        50.3940   44.5190   41.3900 C.3   132  LYS132      0.0206
    119  CE        50.2410   43.0670   41.7380 C.3   132  LYS132      0.1093
    120  NZ        48.8300   42.6050   41.5340 N.3   132  LYS132     -0.1314
@<TRIPOS>BOND
     1    25    24    2
     2    22    23    1
     3    24    23    1
     4    23    26    1
     5    26    27    1
     6    27    28    1
     7    28    30   am
     8    28    29    2
     9    31    32    1
    10    32    35    1
    11    32    33    1
    12    35    36    1
    13    33    34    2
    14    37    36   ar
    15    37    39   ar
    16    36    38   ar
    17    20    18    1
    18     4     3    2
    19     1     2    1
    20    16    17    2
    21    16    15    1
    22     8     6    1
    23    39    41   ar
    24     5     2    1
    25     5     6    1
    26     2     3    1
    27    38    40   ar
    28    15    18    1
    29    15    14    1
    30     6     7    1
    31    18    19    1
    32    41    40   ar
    33    41    42    1
    34    12    11    2
    35    21    19    1
    36    14    11   am
    37    11    10    1
    38    10    13    1
    39    10     9    1
    40   117   118    1
    41   117   116    1
    42   118   119    1
    43   120   119    1
    44   116   113    1
    45   113   114    1
    46   113   112    1
    47   104   103    2
    48   114   115    2
    49    97    95   ar
    50    97    99   ar
    51   100    99    1
    52    95    94   ar
    53   112   103   am
    54    62    64   ar
    55    62    60   ar
    56   103   102    1
    57    99    98   ar
    58   111   110   ar
    59   111   109   ar
    60   110   108   ar
    61    82    81    1
    62    64    63   ar
    63    60    59   ar
    64    94    93    1
    65    94    96   ar
    66   109   107   ar
    67   108   106   ar
    68    98    96   ar
    69    93    90    1
    70   101   102    1
    71   101    91   am
    72    81    80    1
    73   102   105    1
    74    63    61   ar
    75   107   106   ar
    76    59    61   ar
    77    59    58    1
    78   106   105    1
    79    90    91    1
    80    90    89    1
    81    58    55    1
    82    91    92    2
    83    54    55    1
    84    80    79    1
    85    57    56    2
    86    55    56    1
    87    88    87    1
    88    79    78    1
    89    56    65   am
    90    87    84    1
    91    51    53   ar
    92    51    49   ar
    93    53    52   ar
    94    86    85    2
    95    65    66    1
    96    78    75    1
    97    85    84    1
    98    66    67    1
    99    66    69    1
   100    84    83    1
   101    77    76    2
   102    74    67   am
   103    74    75    1
   104    49    48   ar
   105    52    50   ar
   106    67    68    2
   107    75    76    1
   108    69    70    1
   109    70    71    1
   110    48    50   ar
   111    48    47    1
   112    71    72    1
   113    47    44    1
   114    44    45    1
   115    44    43    1
   116    45    46    2
   117    72    73    1
