@<TRIPOS>MOLECULE
tmp/3t1kA00.pdb
 168 158 0 0 0
SMALL
GASTEIGER

@<TRIPOS>ATOM
      1  N        -28.0180   17.6840  -33.0340 N.3    31  GLU31      -0.1231
      2  CA       -28.8330   17.1560  -31.9580 C.3    31  GLU31       0.1699
      3  C        -28.4630   15.7000  -31.6640 C.2    31  GLU31       0.2592
      4  O        -28.4060   15.3000  -30.4790 O.2    31  GLU31      -0.2718
      5  CB       -30.3390   17.2530  -32.2660 C.3    31  GLU31       0.0402
      6  CG       -30.8430   18.6820  -32.3090 C.3    31  GLU31       0.1161
      7  CD       -30.7790   19.3710  -30.9440 C.2    31  GLU31       0.3649
      8  OE1      -30.8650   18.7010  -29.8960 O.co2  31  GLU31      -0.2457
      9  OE2      -30.6500   20.6170  -30.9210 O.co2  31  GLU31      -0.2457
     10  N        -28.2120   14.8940  -32.6980 N.am   32  LEU32      -0.1980
     11  CA       -27.8840   13.4710  -32.4520 C.3    32  LEU32       0.1596
     12  C        -26.4790   13.3430  -31.8660 C.2    32  LEU32       0.2287
     13  O        -26.2560   12.5270  -30.9560 O.2    32  LEU32      -0.2864
     14  CB       -28.0040   12.6570  -33.7420 C.3    32  LEU32       0.0297
     15  CG       -29.4290   12.6840  -34.3120 C.3    32  LEU32       0.0022
     16  CD1      -29.5060   11.8820  -35.6310 C.3    32  LEU32       0.0001
     17  CD2      -30.4860   12.1950  -33.3180 C.3    32  LEU32       0.0001
     18  N        -25.0630   15.6060  -29.9750 N.3    34  SER34      -0.1202
     19  CA       -25.2350   16.0140  -28.5590 C.3    34  SER34       0.2020
     20  C        -25.7840   14.8800  -27.7060 C.2    34  SER34       0.2619
     21  O        -25.3210   14.6840  -26.5830 O.2    34  SER34      -0.2717
     22  CB       -26.1450   17.2280  -28.4210 C.3    34  SER34       0.2103
     23  OG       -25.5000   18.3900  -28.9680 O.3    34  SER34      -0.2182
     24  N        -26.7270   14.1020  -28.2390 N.am   35  ASN35      -0.1960
     25  CA       -27.2280   12.9240  -27.4950 C.3    35  ASN35       0.1819
     26  C        -26.1390   11.9280  -27.2550 C.2    35  ASN35       0.2622
     27  O        -26.0630   11.3400  -26.1480 O.2    35  ASN35      -0.2715
     28  CB       -28.3930   12.2640  -28.2120 C.3    35  ASN35       0.1195
     29  CG       -29.6170   13.0990  -28.1590 C.2    35  ASN35       0.2630
     30  OD1      -29.7000   13.9950  -27.3190 O.2    35  ASN35      -0.2716
     31  ND2      -30.5760   12.8430  -29.0480 N.am   35  ASN35      -0.0877
     32  N        -25.2870   11.7000  -28.2550 N.am   36  SER36      -0.1950
     33  CA       -24.1490   10.7740  -28.0880 C.3    36  SER36       0.1924
     34  C        -23.1700   11.2890  -27.0380 C.2    36  SER36       0.2314
     35  O        -22.7230   10.5320  -26.1780 O.2    36  SER36      -0.2863
     36  CB       -23.4230   10.5600  -29.4130 C.3    36  SER36       0.2116
     37  OG       -24.2620    9.8530  -30.3030 O.3    36  SER36      -0.2180
     38  N        -23.8550   13.2880  -24.5280 N.3    38  ASP38      -0.1225
     39  CA       -24.4830   13.1590  -23.1940 C.3    38  ASP38       0.1805
     40  C        -24.3590   11.7230  -22.7160 C.2    38  ASP38       0.2597
     41  O        -24.0640   11.4710  -21.5240 O.2    38  ASP38      -0.2718
     42  CB       -25.9620   13.5440  -23.1930 C.3    38  ASP38       0.1424
     43  CG       -26.2030   15.0340  -23.5100 C.2    38  ASP38       0.3668
     44  OD1      -25.2500   15.8290  -23.3850 O.co2  38  ASP38      -0.2456
     45  OD2      -27.3610   15.3940  -23.8670 O.co2  38  ASP38      -0.2456
     46  N        -24.5750   10.7680  -23.6220 N.am   39  ALA39      -0.1979
     47  CA       -24.5480    9.3370  -23.2520 C.3    39  ALA39       0.1597
     48  C        -23.1270    8.8940  -22.8860 C.2    39  ALA39       0.2287
     49  O        -22.9260    8.0480  -21.9970 O.2    39  ALA39      -0.2864
     50  CB       -25.0820    8.5110  -24.3990 C.3    39  ALA39       0.0319
     51  N        -22.3500   10.1400  -19.4760 N.3    42  LYS42      -0.1245
     52  CA       -22.9860    9.3140  -18.4550 C.3    42  LYS42       0.1561
     53  C        -22.1510    8.0830  -18.1070 C.2    42  LYS42       0.2260
     54  O        -21.9210    7.7910  -16.9230 O.2    42  LYS42      -0.2867
     55  CB       -24.4100    8.9130  -18.8290 C.3    42  LYS42       0.0271
     56  CG       -25.4280   10.0500  -18.6780 C.3    42  LYS42       0.0035
     57  CD       -26.8320    9.5800  -19.0110 C.3    42  LYS42       0.0206
     58  CE       -27.8590   10.7020  -18.9160 C.3    42  LYS42       0.1093
     59  NZ       -27.7070   11.6900  -19.9810 N.3    42  LYS42      -0.1314
     60  N        -22.4570    5.6380  -31.1030 N.3    77  ASP77      -0.1239
     61  CA       -21.6320    6.0300  -29.9660 C.3    77  ASP77       0.1674
     62  C        -21.4200    4.8490  -29.0260 C.2    77  ASP77       0.2266
     63  O        -22.1460    3.8510  -29.0860 O.2    77  ASP77      -0.2867
     64  CB       -22.2410    7.2020  -29.1780 C.3    77  ASP77       0.1410
     65  CG       -23.5620    6.8430  -28.5250 C.2    77  ASP77       0.3668
     66  OD1      -23.5710    5.9680  -27.6150 O.co2  77  ASP77      -0.2456
     67  OD2      -24.5950    7.4040  -28.8940 O.co2  77  ASP77      -0.2456
     68  N        -23.6160    5.2670  -22.7170 N.3    80  ILE80      -0.1231
     69  CA       -24.2160    4.4210  -21.6840 C.3    80  ILE80       0.1692
     70  C        -25.2430    3.4270  -22.2940 C.2    80  ILE80       0.2593
     71  O        -25.5350    2.3680  -21.7280 O.2    80  ILE80      -0.2718
     72  CB       -24.8220    5.3010  -20.5630 C.3    80  ILE80       0.0266
     73  CG1      -25.3230    4.4360  -19.4030 C.3    80  ILE80       0.0019
     74  CG2      -25.9720    6.1710  -21.0790 C.3    80  ILE80       0.0020
     75  CD1      -25.1370    5.0440  -18.0180 C.3    80  ILE80       0.0001
     76  N        -25.8060    3.7540  -23.4450 N.am   81  GLY81      -0.1942
     77  CA       -26.8290    2.8920  -24.0260 C.3    81  GLY81       0.2014
     78  C        -28.1700    3.0710  -23.3030 C.2    81  GLY81       0.2638
     79  O        -28.2560    3.8440  -22.3230 O.2    81  GLY81      -0.2714
     80  N        -29.2060    2.4080  -23.7910 N.am   82  MET82      -0.1976
     81  CA       -30.5340    2.4380  -23.1680 C.3    82  MET82       0.1605
     82  C        -31.0060    1.0430  -22.8740 C.2    82  MET82       0.2287
     83  O        -30.8700    0.1500  -23.7020 O.2    82  MET82      -0.2864
     84  CB       -31.5530    3.1700  -24.0670 C.3    82  MET82       0.0413
     85  CG       -31.3470    4.7050  -24.0720 C.3    82  MET82       0.0598
     86  SD       -32.3600    5.5290  -25.3060 S.3    82  MET82      -0.1393
     87  CE       -31.4120    5.1670  -26.7790 C.3    82  MET82       0.0692
     88  N        -38.0550    7.1380  -22.6580 N.3    90  ASN90      -0.1225
     89  CA       -37.3340    8.3300  -23.0970 C.3    90  ASN90       0.1785
     90  C        -37.5070    8.6830  -24.5710 C.2    90  ASN90       0.2597
     91  O        -37.2380    9.8290  -24.9730 O.2    90  ASN90      -0.2718
     92  CB       -35.8440    8.1640  -22.8170 C.3    90  ASN90       0.1169
     93  CG       -35.5390    7.8820  -21.3520 C.2    90  ASN90       0.2627
     94  OD1      -36.4090    7.9990  -20.4720 O.2    90  ASN90      -0.2716
     95  ND2      -34.2920    7.4930  -21.0850 N.am   90  ASN90      -0.0877
     96  N        -37.8960    7.6970  -25.3760 N.am   91  LEU91      -0.1980
     97  CA       -38.0620    7.9470  -26.8190 C.3    91  LEU91       0.1596
     98  C        -39.5010    7.7660  -27.2700 C.2    91  LEU91       0.2287
     99  O        -39.7560    7.1610  -28.3180 O.2    91  LEU91      -0.2864
    100  CB       -37.1140    7.1080  -27.6920 C.3    91  LEU91       0.0297
    101  CG       -35.6290    7.4660  -27.6860 C.3    91  LEU91       0.0022
    102  CD1      -34.8580    6.5150  -28.6040 C.3    91  LEU91       0.0001
    103  CD2      -35.4560    8.9390  -28.1310 C.3    91  LEU91       0.0001
    104  N        -43.1700   15.5150  -22.7190 N.3    96  LYS96      -0.1245
    105  CA       -42.1210   16.4720  -22.4670 C.3    96  LYS96       0.1561
    106  C        -42.7930   17.8280  -22.2550 C.2    96  LYS96       0.2260
    107  O        -43.6720   18.2340  -23.0310 O.2    96  LYS96      -0.2867
    108  CB       -41.1600   16.5060  -23.6620 C.3    96  LYS96       0.0271
    109  CG       -40.4010   15.1860  -23.8610 C.3    96  LYS96       0.0035
    110  CD       -39.3040   15.0230  -22.7840 C.3    96  LYS96       0.0206
    111  CE       -38.9260   13.5680  -22.6110 C.3    96  LYS96       0.1093
    112  NZ       -39.5910   13.0290  -21.4120 N.3    96  LYS96      -0.1314
    113  N        -33.7660   21.6950  -29.5660 N.3   116  GLY116     -0.1225
    114  CA       -33.0340   21.1580  -28.4150 C.3   116  GLY116      0.1811
    115  C        -33.3530   21.9500  -27.1660 C.2   116  GLY116      0.2280
    116  O        -33.4760   21.3830  -26.1040 O.2   116  GLY116     -0.2866
    117  N        -36.3940   20.6130  -25.2400 N.3   119  GLY119     -0.1210
    118  CA       -36.3620   19.2810  -24.6400 C.3   119  GLY119      0.1956
    119  C        -36.7650   18.1420  -25.5480 C.2   119  GLY119      0.2612
    120  O        -36.9590   17.0210  -25.0690 O.2   119  GLY119     -0.2717
    121  N        -36.8330   18.3930  -26.8640 N.am  120  VAL120     -0.1965
    122  CA       -37.3330   17.3990  -27.8270 C.3   120  VAL120      0.1727
    123  C        -36.3640   17.2320  -29.0180 C.2   120  VAL120      0.2617
    124  O        -36.7860   16.9200  -30.1400 O.2   120  VAL120     -0.2715
    125  CB       -38.8150   17.7150  -28.2950 C.3   120  VAL120      0.0290
    126  CG1      -39.7970   17.3700  -27.2030 C.3   120  VAL120      0.0023
    127  CG2      -38.9530   19.2060  -28.6350 C.3   120  VAL120      0.0023
    128  N        -35.0650   17.3510  -28.7510 N.am  121  GLY121     -0.1940
    129  CA       -34.0440   17.3790  -29.7870 C.3   121  GLY121      0.2014
    130  C        -34.0150   16.1830  -30.7060 C.2   121  GLY121      0.2639
    131  O        -33.7380   16.3220  -31.9000 O.2   121  GLY121     -0.2714
    132  N        -34.2750   15.0030  -30.1710 N.am  122  PHE122     -0.1959
    133  CA       -34.1770   13.7840  -30.9830 C.3   122  PHE122      0.1771
    134  C        -35.0640   13.8300  -32.2320 C.2   122  PHE122      0.2619
    135  O        -34.6900   13.3060  -33.2950 O.2   122  PHE122     -0.2715
    136  CB       -34.5600   12.5600  -30.1110 C.3   122  PHE122      0.0574
    137  CG       -34.7260   11.2930  -30.8870 C.ar  122  PHE122     -0.0200
    138  CD1      -33.6260   10.5310  -31.2230 C.ar  122  PHE122     -0.0042
    139  CD2      -35.9950   10.8630  -31.2720 C.ar  122  PHE122     -0.0042
    140  CE1      -33.7720    9.3370  -31.9350 C.ar  122  PHE122     -0.0003
    141  CE2      -36.1640    9.6770  -31.9760 C.ar  122  PHE122     -0.0003
    142  CZ       -35.0480    8.9090  -32.2880 C.ar  122  PHE122     -0.0000
    143  N        -36.2360   14.4300  -32.0860 N.am  123  TYR123     -0.1974
    144  CA       -37.2530   14.3710  -33.1460 C.3   123  TYR123      0.1639
    145  C        -36.8330   15.1670  -34.3800 C.2   123  TYR123      0.2290
    146  O        -37.4470   15.0230  -35.4240 O.2   123  TYR123     -0.2864
    147  CB       -38.6370   14.7710  -32.6150 C.3   123  TYR123      0.0560
    148  CG       -38.9980   13.8010  -31.5150 C.ar  123  TYR123     -0.0198
    149  CD1      -39.4660   12.5340  -31.8160 C.ar  123  TYR123     -0.0009
    150  CD2      -38.8110   14.1380  -30.1830 C.ar  123  TYR123     -0.0009
    151  CE1      -39.7450   11.6170  -30.7980 C.ar  123  TYR123      0.0417
    152  CE2      -39.0680   13.2400  -29.1720 C.ar  123  TYR123      0.0417
    153  CZ       -39.5330   11.9840  -29.4780 C.ar  123  TYR123      0.1957
    154  OH       -39.8070   11.0670  -28.4560 O.3   123  TYR123     -0.2866
    155  N        -25.1270    3.2160  -28.5190 N.3   168  THR168     -0.1218
    156  CA       -26.3370    3.4290  -29.3160 C.3   168  THR168      0.1862
    157  C        -25.9790    3.7540  -30.7490 C.2   168  THR168      0.2287
    158  O        -24.9870    4.4680  -31.0080 O.2   168  THR168     -0.2866
    159  CB       -27.2010    4.5630  -28.7030 C.3   168  THR168      0.1770
    160  OG1      -27.5330    4.1920  -27.3580 O.3   168  THR168     -0.2211
    161  CG2      -28.4940    4.8310  -29.4890 C.3   168  THR168      0.0375
    162  N        -27.9290    5.3210  -34.0850 N.3   170  VAL170     -0.1245
    163  CA       -29.1500    5.8740  -34.6610 C.3   170  VAL170      0.1561
    164  C        -28.9870    5.8010  -36.1770 C.2   170  VAL170      0.2260
    165  O        -28.0650    6.4160  -36.7440 O.2   170  VAL170     -0.2867
    166  CB       -29.3510    7.3580  -34.2510 C.3   170  VAL170      0.0252
    167  CG1      -30.6330    7.9880  -34.9490 C.3   170  VAL170      0.0019
    168  CG2      -29.3830    7.4890  -32.7150 C.3   170  VAL170      0.0019
@<TRIPOS>BOND
     1   165   164    2
     2   164   163    1
     3    16    15    1
     4   146   145    2
     5   167   166    1
     6   163   166    1
     7   163   162    1
     8   145   144    1
     9    15    14    1
    10    15    17    1
    11   166   168    1
    12    14    11    1
    13   135   134    2
    14   144   147    1
    15   144   143    1
    16     1     2    1
    17    10    11    1
    18    10     3   am
    19   147   148    1
    20    11    12    1
    21     6     5    1
    22     6     7    1
    23   142   141   ar
    24   142   140   ar
    25     5     2    1
    26   134   143   am
    27   134   133    1
    28   141   139   ar
    29     2     3    1
    30   140   138   ar
    31   131   130    2
    32    12    13    2
    33   149   148   ar
    34   149   151   ar
    35     3     4    2
    36   148   150   ar
    37   139   137   ar
    38   138   137   ar
    39    60    61    1
    40   158   157    2
    41   133   132    1
    42   133   136    1
    43     7     9   ar
    44     7     8   ar
    45   137   136    1
    46   151   153   ar
    47   157   156    1
    48   130   132   am
    49   130   129    1
    50    37    36    1
    51   150   152   ar
    52   124   123    2
    53    18    19    1
    54    61    64    1
    55    61    62    1
    56   129   128    1
    57   113   114    1
    58   161   159    1
    59   153   152   ar
    60   153   154    1
    61    36    33    1
    62   156   159    1
    63   156   155    1
    64    64    65    1
    65    63    62    2
    66    31    29   am
    67   123   128   am
    68   123   122    1
    69    23    22    1
    70    67    65   ar
    71   159   160    1
    72   127   125    1
    73   102   101    1
    74    19    22    1
    75    19    20    1
    76    65    66   ar
    77   114   115    1
    78    99    98    2
    79   125   122    1
    80   125   126    1
    81    32    33    1
    82    32    26   am
    83    24    20   am
    84    24    25    1
    85    28    29    1
    86    28    25    1
    87    29    30    2
    88   103   101    1
    89    33    34    1
    90   122   121    1
    91    20    21    2
    92   100   101    1
    93   100    97    1
    94    25    26    1
    95    98    97    1
    96    26    27    2
    97   115   116    2
    98    34    35    2
    99   121   119   am
   100    97    96    1
   101    87    86    1
   102   119   120    2
   103   119   118    1
   104    96    90   am
   105    86    85    1
   106   117   118    1
   107    91    90    2
   108    90    89    1
   109    38    39    1
   110    50    47    1
   111    85    84    1
   112    84    81    1
   113    77    76    1
   114    77    78    1
   115    45    43   ar
   116   109   108    1
   117   109   110    1
   118    80    78   am
   119    80    81    1
   120    83    82    2
   121   108   105    1
   122    46    47    1
   123    46    40   am
   124    43    44   ar
   125    43    42    1
   126    76    70   am
   127    78    79    2
   128    47    48    1
   129    39    42    1
   130    39    40    1
   131    81    82    1
   132    89    92    1
   133    89    88    1
   134   107   106    2
   135    48    49    2
   136    92    93    1
   137   110   111    1
   138   104   105    1
   139    68    69    1
   140    40    41    2
   141   111   112    1
   142   105   106    1
   143    70    71    2
   144    70    69    1
   145    69    72    1
   146    93    95   am
   147    93    94    2
   148    74    72    1
   149    72    73    1
   150    59    58    1
   151    51    52    1
   152    73    75    1
   153    57    58    1
   154    57    56    1
   155    55    56    1
   156    55    52    1
   157    52    53    1
   158    53    54    2
