@<TRIPOS>MOLECULE
tmp/3t1lA00.pdb
 101 93 0 0 0
SMALL
GASTEIGER

@<TRIPOS>ATOM
      1  N         12.2610  -12.2920    7.5910 N.3    32  ARG32      -0.1245
      2  CA        12.6620  -10.9540    7.1680 C.3    32  ARG32       0.1563
      3  C         11.5640   -9.9220    7.3390 C.2    32  ARG32       0.2260
      4  O         10.3780  -10.2550    7.3530 O.2    32  ARG32      -0.2867
      5  CB        13.1060  -10.9800    5.7060 C.3    32  ARG32       0.0307
      6  CG        11.9530  -11.2100    4.7250 C.3    32  ARG32       0.0489
      7  CD        12.4270  -11.4160    3.2990 C.3    32  ARG32       0.2205
      8  NE        13.0960  -10.2410    2.7310 N.pl3  32  ARG32      -0.0865
      9  CZ        12.4930   -9.1950    2.1600 C.cat  32  ARG32       0.5346
     10  NH1       11.1630   -9.1160    2.0760 N.pl3  32  ARG32       0.1354
     11  NH2       13.2330   -8.2030    1.6780 N.pl3  32  ARG32       0.1354
     12  N         10.9990   -0.1960    2.2310 N.3    36  ASP36      -0.1239
     13  CA        11.6410    0.2890    1.0030 C.3    36  ASP36       0.1674
     14  C         11.0960    1.6640    0.6150 C.2    36  ASP36       0.2266
     15  O          9.9510    1.8030    0.1790 O.2    36  ASP36      -0.2867
     16  CB        11.4060   -0.7090   -0.1260 C.3    36  ASP36       0.1410
     17  CG        12.1840   -1.9900    0.0610 C.2    36  ASP36       0.3668
     18  OD1       13.4160   -1.9100    0.0440 O.co2  36  ASP36      -0.2456
     19  OD2       11.5750   -3.0700    0.2360 O.co2  36  ASP36      -0.2456
     20  N         16.5660    0.9720    1.7900 N.3    46  HIS46      -0.1241
     21  CA        16.1020   -0.3810    2.0680 C.3    46  HIS46       0.1621
     22  C         16.5500   -0.6780    3.4810 C.2    46  HIS46       0.2264
     23  O         17.7450   -0.6850    3.7490 O.2    46  HIS46      -0.2867
     24  CB        16.7750   -1.3120    1.0570 C.3    46  HIS46       0.0745
     25  CG        16.5290   -2.7810    1.2350 C.ar   46  HIS46       0.0817
     26  ND1       15.3220   -3.3820    0.9450 N.ar   46  HIS46      -0.2268
     27  CD2       17.3910   -3.7890    1.5040 C.ar   46  HIS46       0.1154
     28  CE1       15.4330   -4.6900    1.1180 C.ar   46  HIS46       0.1986
     29  NE2       16.6840   -4.9650    1.4340 N.ar   46  HIS46      -0.2212
     30  N         16.2660   -3.5430    6.2420 N.3    48  ASN48      -0.1240
     31  CA        15.9980   -4.9810    6.0760 C.3    48  ASN48       0.1653
     32  C         16.5180   -5.8390    7.2310 C.2    48  ASN48       0.2266
     33  O         17.6030   -6.4160    7.1420 O.2    48  ASN48      -0.2867
     34  CB        16.6110   -5.4190    4.7350 C.3    48  ASN48       0.1155
     35  CG        16.4650   -6.9060    4.4290 C.2    48  ASN48       0.2627
     36  OD1       17.3260   -7.4670    3.7590 O.2    48  ASN48      -0.2716
     37  ND2       15.3890   -7.5430    4.8920 N.am   48  ASN48      -0.0877
     38  N         17.0200   -9.0990    9.0570 N.3    50  ARG50      -0.1245
     39  CA        17.0990  -10.4960    8.6700 C.3    50  ARG50       0.1563
     40  C         17.2390  -11.3240    9.9400 C.2    50  ARG50       0.2260
     41  O         18.1510  -11.0930   10.7350 O.2    50  ARG50      -0.2867
     42  CB        18.3050  -10.7150    7.7650 C.3    50  ARG50       0.0307
     43  CG        18.2540   -9.8920    6.5050 C.3    50  ARG50       0.0489
     44  CD        19.4540  -10.1330    5.6350 C.3    50  ARG50       0.2205
     45  NE        19.3780   -9.2970    4.4410 N.pl3  50  ARG50      -0.0865
     46  CZ        20.3000   -9.2610    3.4820 C.cat  50  ARG50       0.5346
     47  NH1       21.3910  -10.0130    3.5650 N.pl3  50  ARG50       0.1354
     48  NH2       20.1320   -8.4620    2.4400 N.pl3  50  ARG50       0.1354
     49  N         20.2490   -5.0790    7.6300 N.3    60  VAL60      -0.1245
     50  CA        20.9520   -4.6350    6.4380 C.3    60  VAL60       0.1561
     51  C         20.2660   -3.3900    5.8780 C.2    60  VAL60       0.2260
     52  O         19.0520   -3.3600    5.7310 O.2    60  VAL60      -0.2867
     53  CB        20.9710   -5.7290    5.3660 C.3    60  VAL60       0.0252
     54  CG1       21.5710   -5.2020    4.0630 C.3    60  VAL60       0.0019
     55  CG2       21.7690   -6.9510    5.8680 C.3    60  VAL60       0.0019
     56  N         20.5800   -0.5260    2.5830 N.3    62  ASN62      -0.1240
     57  CA        21.1960   -0.3310    1.2770 C.3    62  ASN62       0.1653
     58  C         20.3330    0.5500    0.3850 C.2    62  ASN62       0.2266
     59  O         19.2380    0.9620    0.7750 O.2    62  ASN62      -0.2867
     60  CB        21.4840   -1.7060    0.6230 C.3    62  ASN62       0.1155
     61  CG        22.6630   -1.6900   -0.3440 C.2    62  ASN62       0.2627
     62  OD1       23.1470   -0.6330   -0.7380 O.2    62  ASN62      -0.2716
     63  ND2       23.1300   -2.8830   -0.7320 N.am   62  ASN62      -0.0877
     64  N         19.2710    0.9100   -3.9320 N.3    64  LYS64      -0.1245
     65  CA        19.2610    0.2630   -5.2450 C.3    64  LYS64       0.1561
     66  C         19.0840    1.3190   -6.3210 C.2    64  LYS64       0.2260
     67  O         18.0880    2.0340   -6.3350 O.2    64  LYS64      -0.2867
     68  CB        18.1330   -0.7750   -5.3390 C.3    64  LYS64       0.0271
     69  CG        18.2300   -1.6700   -6.5720 C.3    64  LYS64       0.0035
     70  CD        17.2710   -2.8530   -6.5080 C.3    64  LYS64       0.0206
     71  CE        15.8510   -2.4550   -6.8610 C.3    64  LYS64       0.1093
     72  NZ        14.9170   -3.6250   -6.8210 N.3    64  LYS64      -0.1314
     73  N         22.1730   -3.0490   -6.4780 N.3    69  TRP69      -0.1241
     74  CA        22.3880   -2.7450   -5.0670 C.3    69  TRP69       0.1605
     75  C         23.7860   -2.1620   -4.8340 C.2    69  TRP69       0.2264
     76  O         24.7530   -2.5380   -5.5120 O.2    69  TRP69      -0.2867
     77  CB        22.1890   -4.0000   -4.2090 C.3    69  TRP69       0.0550
     78  CG        20.7630   -4.4250   -4.0960 C.ar   69  TRP69       0.0003
     79  CD1       20.1720   -5.5010   -4.7000 C.ar   69  TRP69       0.0946
     80  CD2       19.7350   -3.7720   -3.3450 C.ar   69  TRP69       0.0152
     81  NE1       18.8390   -5.5610   -4.3560 N.ar   69  TRP69      -0.2442
     82  CE2       18.5470   -4.5070   -3.5290 C.ar   69  TRP69       0.0810
     83  CE3       19.7060   -2.6360   -2.5280 C.ar   69  TRP69       0.0012
     84  CZ2       17.3400   -4.1430   -2.9230 C.ar   69  TRP69       0.0191
     85  CZ3       18.5070   -2.2720   -1.9340 C.ar   69  TRP69       0.0001
     86  CH2       17.3420   -3.0220   -2.1350 C.ar   69  TRP69       0.0015
     87  N         26.4210   -2.3640    1.2150 N.3    72  GLU72      -0.1245
     88  CA        25.5910   -2.5810    2.3970 C.3    72  GLU72       0.1567
     89  C         26.1550   -1.9160    3.6420 C.2    72  GLU72       0.2260
     90  O         27.3720   -1.9210    3.8730 O.2    72  GLU72      -0.2867
     91  CB        25.4370   -4.0810    2.6850 C.3    72  GLU72       0.0388
     92  CG        24.5830   -4.8130    1.6930 C.3    72  GLU72       0.1160
     93  CD        24.4310   -6.2980    2.0010 C.2    72  GLU72       0.3649
     94  OE1       25.1220   -6.8190    2.9090 O.co2  72  GLU72      -0.2457
     95  OE2       23.6130   -6.9450    1.3220 O.co2  72  GLU72      -0.2457
     96  N          6.9790   -4.7540    3.6420 N.3   125  SER125     -0.1217
     97  CA         6.8200   -6.1630    3.3300 C.3   125  SER125      0.1889
     98  C          7.5160   -7.0320    4.3580 C.2   125  SER125      0.2288
     99  O          8.2510   -6.5390    5.2230 O.2   125  SER125     -0.2866
    100  CB         7.3440   -6.4690    1.9300 C.3   125  SER125      0.2089
    101  OG         8.7360   -6.2020    1.8450 O.3   125  SER125     -0.2183
@<TRIPOS>BOND
     1    71    72    1
     2    71    70    1
     3    69    70    1
     4    69    68    1
     5    73    74    1
     6    67    66    2
     7    66    65    1
     8    76    75    2
     9    68    65    1
    10    65    64    1
    11    74    75    1
    12    74    77    1
    13    79    81   ar
    14    79    78   ar
    15    81    82   ar
    16    77    78    1
    17    78    80   ar
    18    82    80   ar
    19    82    84   ar
    20    80    83   ar
    21    84    86   ar
    22    83    85   ar
    23    86    85   ar
    24    62    61    2
    25    63    61   am
    26    61    60    1
    27    16    17    1
    28    16    13    1
    29    18    17   ar
    30    17    19   ar
    31    15    14    2
    32    58    59    2
    33    58    57    1
    34    14    13    1
    35    60    57    1
    36    26    28   ar
    37    26    25   ar
    38    13    12    1
    39    24    25    1
    40    24    21    1
    41    28    29   ar
    42    87    88    1
    43    25    27   ar
    44    57    56    1
    45    95    93   ar
    46    29    27   ar
    47    11     9    1
    48    92    93    1
    49    92    91    1
    50    20    21    1
    51   101   100    1
    52   100    97    1
    53    93    94   ar
    54    21    22    1
    55    10     9    1
    56     9     8    2
    57    88    91    1
    58    88    89    1
    59    48    46    1
    60     8     7    1
    61     7     6    1
    62    97    96    1
    63    97    98    1
    64    22    23    2
    65    46    47    1
    66    46    45    2
    67    89    90    2
    68    36    35    2
    69    54    53    1
    70    98    99    2
    71    35    34    1
    72    35    37   am
    73    45    44    1
    74     6     5    1
    75    34    31    1
    76    53    55    1
    77    53    50    1
    78    44    43    1
    79     5     2    1
    80    52    51    2
    81    51    50    1
    82    31    30    1
    83    31    32    1
    84    50    49    1
    85    43    42    1
    86    33    32    2
    87     2     3    1
    88     2     1    1
    89     3     4    2
    90    42    39    1
    91    39    38    1
    92    39    40    1
    93    40    41    2
