@<TRIPOS>MOLECULE
tmp/3t1mA00.pdb
 126 117 0 0 0
SMALL
GASTEIGER

@<TRIPOS>ATOM
      1  N         11.2320  -14.5320    9.0670 N.3    30  ASN30      -0.1225
      2  CA        12.5160  -14.5660    8.3850 C.3    30  ASN30       0.1785
      3  C         13.0380  -13.1670    8.0590 C.2    30  ASN30       0.2597
      4  O         14.2250  -12.9070    8.1910 O.2    30  ASN30      -0.2718
      5  CB        12.4000  -15.3860    7.1000 C.3    30  ASN30       0.1169
      6  CG        13.7330  -15.5750    6.4070 C.2    30  ASN30       0.2627
      7  OD1       14.6750  -16.1300    6.9770 O.2    30  ASN30      -0.2716
      8  ND2       13.8160  -15.1200    5.1650 N.am   30  ASN30      -0.0877
      9  N         12.1560  -12.2700    7.6270 N.am   31  ARG31      -0.1979
     10  CA        12.5980  -10.9490    7.1930 C.3    31  ARG31       0.1597
     11  C         11.4990   -9.8970    7.2710 C.2    31  ARG31       0.2287
     12  O         10.3090  -10.2180    7.2680 O.2    31  ARG31      -0.2864
     13  CB        13.1640  -11.0240    5.7710 C.3    31  ARG31       0.0334
     14  CG        12.1880  -11.5520    4.7220 C.3    31  ARG31       0.0492
     15  CD        12.8970  -11.8620    3.4090 C.3    31  ARG31       0.2205
     16  NE        11.9610  -12.1880    2.3330 N.pl3  31  ARG31      -0.0865
     17  CZ        12.2920  -12.3490    1.0500 C.cat  31  ARG31       0.5346
     18  NH1       13.5550  -12.2200    0.6450 N.pl3  31  ARG31       0.1354
     19  NH2       11.3500  -12.6420    0.1600 N.pl3  31  ARG31       0.1354
     20  N         11.0070   -5.7880    5.4870 N.3    33  ALA33      -0.1245
     21  CA        11.6290   -4.7820    4.6380 C.3    33  ALA33       0.1562
     22  C         10.8050   -3.5010    4.5720 C.2    33  ALA33       0.2260
     23  O          9.5820   -3.5520    4.3920 O.2    33  ALA33      -0.2867
     24  CB        11.8580   -5.3130    3.2410 C.3    33  ALA33       0.0290
     25  N         10.9890   -0.1630    2.1220 N.3    35  ASP35      -0.1239
     26  CA        11.6130    0.3160    0.8870 C.3    35  ASP35       0.1674
     27  C         11.0800    1.7050    0.5440 C.2    35  ASP35       0.2266
     28  O          9.9290    1.8520    0.1240 O.2    35  ASP35      -0.2867
     29  CB        11.2990   -0.6540   -0.2460 C.3    35  ASP35       0.1410
     30  CG        12.0500   -1.9700   -0.1110 C.2    35  ASP35       0.3668
     31  OD1       13.2790   -1.9650   -0.2830 O.co2  35  ASP35      -0.2456
     32  OD2       11.4110   -3.0050    0.1620 O.co2  35  ASP35      -0.2456
     33  N         16.5750    1.0200    1.7490 N.3    45  HIS45      -0.1241
     34  CA        16.0690   -0.3250    2.0180 C.3    45  HIS45       0.1621
     35  C         16.5230   -0.6570    3.4300 C.2    45  HIS45       0.2264
     36  O         17.7210   -0.6380    3.7200 O.2    45  HIS45      -0.2867
     37  CB        16.7000   -1.2800    0.9950 C.3    45  HIS45       0.0745
     38  CG        16.4430   -2.7390    1.2150 C.ar   45  HIS45       0.0817
     39  ND1       15.2450   -3.3420    0.9040 N.ar   45  HIS45      -0.2268
     40  CD2       17.2760   -3.7380    1.5970 C.ar   45  HIS45       0.1154
     41  CE1       15.3330   -4.6410    1.1410 C.ar   45  HIS45       0.1986
     42  NE2       16.5570   -4.9110    1.5510 N.ar   45  HIS45      -0.2212
     43  N         16.2670   -3.6320    6.1710 N.3    47  ASN47      -0.1240
     44  CA        15.9870   -5.0630    6.0410 C.3    47  ASN47       0.1653
     45  C         16.4890   -5.8890    7.2280 C.2    47  ASN47       0.2266
     46  O         17.5600   -6.4900    7.1690 O.2    47  ASN47      -0.2867
     47  CB        16.6060   -5.5570    4.7190 C.3    47  ASN47       0.1155
     48  CG        16.3960   -7.0380    4.4500 C.2    47  ASN47       0.2627
     49  OD1       17.2530   -7.6720    3.8270 O.2    47  ASN47      -0.2716
     50  ND2       15.2810   -7.6000    4.9060 N.am   47  ASN47      -0.0877
     51  N         16.9450   -9.1410    9.1140 N.3    49  ARG49      -0.1245
     52  CA        17.0310  -10.5390    8.7360 C.3    49  ARG49       0.1563
     53  C         17.1770  -11.3620   10.0070 C.2    49  ARG49       0.2260
     54  O         18.1070  -11.1430   10.7920 O.2    49  ARG49      -0.2867
     55  CB        18.2240  -10.7770    7.8140 C.3    49  ARG49       0.0307
     56  CG        18.2420   -9.8990    6.5950 C.3    49  ARG49       0.0489
     57  CD        19.4290  -10.1810    5.6920 C.3    49  ARG49       0.2205
     58  NE        19.3600   -9.3680    4.4790 N.pl3  49  ARG49      -0.0865
     59  CZ        20.2850   -9.3590    3.5250 C.cat  49  ARG49       0.5346
     60  NH1       21.3710  -10.1270    3.6210 N.pl3  49  ARG49       0.1354
     61  NH2       20.1230   -8.5790    2.4700 N.pl3  49  ARG49       0.1354
     62  N         17.5510  -14.7310   10.3540 N.3    51  ASN51      -0.1225
     63  CA        18.4910  -15.8430   10.2900 C.3    51  ASN51       0.1785
     64  C         19.3630  -15.7340    9.0470 C.2    51  ASN51       0.2597
     65  O         19.0660  -16.3270    8.0060 O.2    51  ASN51      -0.2718
     66  CB        17.7450  -17.1730   10.3100 C.3    51  ASN51       0.1169
     67  CG        18.6880  -18.3770   10.3140 C.2    51  ASN51       0.2627
     68  OD1       19.9040  -18.2230   10.2550 O.2    51  ASN51      -0.2716
     69  ND2       18.1220  -19.5770   10.3640 N.am   51  ASN51      -0.0877
     70  N         20.4270  -14.9480    9.1600 N.am   52  GLU52      -0.1979
     71  CA        21.4800  -14.9520    8.1590 C.3    52  GLU52       0.1602
     72  C         22.6720  -15.6840    8.7510 C.2    52  GLU52       0.2287
     73  O         23.3900  -15.1360    9.5930 O.2    52  GLU52      -0.2864
     74  CB        21.8720  -13.5360    7.7590 C.3    52  GLU52       0.0415
     75  CG        22.7850  -13.5240    6.5560 C.3    52  GLU52       0.1163
     76  CD        23.4360  -12.1900    6.3370 C.2    52  GLU52       0.3649
     77  OE1       24.2190  -11.7590    7.2110 O.co2  52  GLU52      -0.2457
     78  OE2       23.1750  -11.5760    5.2870 O.co2  52  GLU52      -0.2457
     79  N         20.2390   -5.1320    7.5790 N.3    59  VAL59      -0.1245
     80  CA        20.9640   -4.7020    6.3860 C.3    59  VAL59       0.1561
     81  C         20.2620   -3.4750    5.8130 C.2    59  VAL59       0.2260
     82  O         19.0450   -3.4850    5.6300 O.2    59  VAL59      -0.2867
     83  CB        21.0010   -5.8110    5.3360 C.3    59  VAL59       0.0252
     84  CG1       21.7090   -5.3300    4.0690 C.3    59  VAL59       0.0019
     85  CG2       21.7110   -7.0430    5.9000 C.3    59  VAL59       0.0019
     86  N         20.5920   -0.5480    2.5320 N.3    61  ASN61      -0.1240
     87  CA        21.2040   -0.3760    1.2280 C.3    61  ASN61       0.1653
     88  C         20.3420    0.5010    0.3310 C.2    61  ASN61       0.2266
     89  O         19.2420    0.9110    0.7150 O.2    61  ASN61      -0.2867
     90  CB        21.4700   -1.7530    0.5710 C.3    61  ASN61       0.1155
     91  CG        22.6490   -1.7470   -0.3910 C.2    61  ASN61       0.2627
     92  OD1       23.1410   -0.6870   -0.7950 O.2    61  ASN61      -0.2716
     93  ND2       23.1020   -2.9420   -0.7730 N.am   61  ASN61      -0.0877
     94  N         22.1560   -3.2240   -6.4970 N.3    68  TRP68      -0.1241
     95  CA        22.3610   -2.9140   -5.0820 C.3    68  TRP68       0.1605
     96  C         23.7650   -2.3520   -4.8510 C.2    68  TRP68       0.2264
     97  O         24.7340   -2.7470   -5.5200 O.2    68  TRP68      -0.2867
     98  CB        22.1300   -4.1490   -4.2090 C.3    68  TRP68       0.0550
     99  CG        20.6970   -4.5560   -4.1190 C.ar   68  TRP68       0.0003
    100  CD1       20.1060   -5.6270   -4.7260 C.ar   68  TRP68       0.0946
    101  CD2       19.6660   -3.8940   -3.3810 C.ar   68  TRP68       0.0152
    102  NE1       18.7750   -5.6750   -4.4070 N.ar   68  TRP68      -0.2442
    103  CE2       18.4750   -4.6210   -3.5810 C.ar   68  TRP68       0.0810
    104  CE3       19.6370   -2.7630   -2.5540 C.ar   68  TRP68       0.0012
    105  CZ2       17.2640   -4.2490   -2.9940 C.ar   68  TRP68       0.0191
    106  CZ3       18.4270   -2.3900   -1.9730 C.ar   68  TRP68       0.0001
    107  CH2       17.2630   -3.1370   -2.1910 C.ar   68  TRP68       0.0015
    108  N         26.4410   -2.4490    1.2680 N.3    71  GLU71      -0.1245
    109  CA        25.5910   -2.6800    2.4240 C.3    71  GLU71       0.1567
    110  C         26.1290   -2.0040    3.6640 C.2    71  GLU71       0.2260
    111  O         27.3410   -1.9640    3.8910 O.2    71  GLU71      -0.2867
    112  CB        25.4330   -4.1770    2.7050 C.3    71  GLU71       0.0388
    113  CG        24.6010   -4.8910    1.6620 C.3    71  GLU71       0.1160
    114  CD        24.4440   -6.3840    1.9100 C.2    71  GLU71       0.3649
    115  OE1       25.1420   -6.9460    2.7910 O.co2  71  GLU71      -0.2457
    116  OE2       23.6140   -6.9920    1.2000 O.co2  71  GLU71      -0.2457
    117  N          6.9220   -4.6460    3.6590 N.3   124  SER124     -0.1202
    118  CA         6.7500   -6.0510    3.3120 C.3   124  SER124      0.2020
    119  C          7.4410   -6.9500    4.3370 C.2   124  SER124      0.2619
    120  O          8.1780   -6.4840    5.2060 O.2   124  SER124     -0.2717
    121  CB         7.2790   -6.3330    1.9030 C.3   124  SER124      0.2103
    122  OG         8.6740   -6.1050    1.8310 O.3   124  SER124     -0.2182
    123  N          7.1530   -8.2370    4.2530 N.am  125  GLY125     -0.1956
    124  CA         7.8160   -9.2070    5.1070 C.3   125  GLY125      0.1869
    125  C          6.8740   -9.8830    6.0700 C.2   125  GLY125      0.2309
    126  O          5.6460   -9.8450    5.9070 O.2   125  GLY125     -0.2863
@<TRIPOS>BOND
     1    94    95    1
     2    97    96    2
     3    95    96    1
     4    95    98    1
     5   100   102   ar
     6   100    99   ar
     7   102   103   ar
     8    98    99    1
     9    99   101   ar
    10   103   101   ar
    11   103   105   ar
    12   101   104   ar
    13   105   107   ar
    14   104   106   ar
    15   107   106   ar
    16    92    91    2
    17    93    91   am
    18    91    90    1
    19    31    30   ar
    20    29    30    1
    21    29    26    1
    22    30    32   ar
    23    28    27    2
    24    19    17    1
    25    88    89    2
    26    88    87    1
    27    27    26    1
    28    90    87    1
    29    18    17    1
    30    26    25    1
    31    39    41   ar
    32    39    38   ar
    33    37    38    1
    34    37    34    1
    35    17    16    2
    36    41    42   ar
    37   116   114   ar
    38    38    40   ar
    39    87    86    1
    40   108   109    1
    41    42    40   ar
    42   113   114    1
    43   113   112    1
    44    33    34    1
    45   122   121    1
    46   121   118    1
    47   114   115   ar
    48    34    35    1
    49    16    15    1
    50   109   112    1
    51   109   110    1
    52    61    59    1
    53    24    21    1
    54   118   117    1
    55   118   119    1
    56    15    14    1
    57    35    36    2
    58    59    60    1
    59    59    58    2
    60   110   111    2
    61    49    48    2
    62    84    83    1
    63   123   119   am
    64   123   124    1
    65   119   120    2
    66    23    22    2
    67    48    47    1
    68    48    50   am
    69    58    57    1
    70    22    21    1
    71    21    20    1
    72    47    44    1
    73    14    13    1
    74   124   125    1
    75     8     6   am
    76    78    76   ar
    77    83    85    1
    78    83    80    1
    79    82    81    2
    80    57    56    1
    81    13    10    1
    82    81    80    1
    83   126   125    2
    84    44    43    1
    85    44    45    1
    86    76    75    1
    87    76    77   ar
    88    80    79    1
    89     6     7    2
    90     6     5    1
    91    75    74    1
    92    56    55    1
    93     5     2    1
    94    46    45    2
    95    10    11    1
    96    10     9    1
    97    12    11    2
    98     9     3   am
    99    74    71    1
   100    55    52    1
   101    65    64    2
   102     3     4    2
   103     3     2    1
   104    71    72    1
   105    71    70    1
   106     2     1    1
   107    52    51    1
   108    52    53    1
   109    72    73    2
   110    64    70   am
   111    64    63    1
   112    53    54    2
   113    68    67    2
   114    63    66    1
   115    63    62    1
   116    66    67    1
   117    67    69   am
