@<TRIPOS>MOLECULE
tmp/3t1oA00.pdb
 104 100 0 0 0
SMALL
GASTEIGER

@<TRIPOS>ATOM
      1  N          4.6120    5.0860   23.6360 N.3    21  LEU21      -0.1231
      2  CA         5.2250    3.7670   23.7790 C.3    21  LEU21       0.1693
      3  C          4.7540    2.7410   22.7590 C.2    21  LEU21       0.2593
      4  O          4.8750    1.5020   22.9850 O.2    21  LEU21      -0.2718
      5  CB         5.0400    3.2290   25.1940 C.3    21  LEU21       0.0284
      6  CG         5.5760    4.1000   26.3750 C.3    21  LEU21       0.0019
      7  CD1        5.8610    3.2120   27.5850 C.3    21  LEU21       0.0001
      8  CD2        6.8030    4.9270   26.1350 C.3    21  LEU21       0.0001
      9  N          4.1560    3.1860   21.6640 N.am   22  SER22      -0.1938
     10  CA         3.7690    2.2330   20.6040 C.3    22  SER22       0.2055
     11  C          4.9410    1.6990   19.7530 C.2    22  SER22       0.2644
     12  O          4.7710    0.6720   19.1200 O.2    22  SER22      -0.2714
     13  CB         2.6760    2.7650   19.6700 C.3    22  SER22       0.2130
     14  OG         3.2180    3.8920   19.0070 O.3    22  SER22      -0.2179
     15  N          6.1220    2.3220   19.7680 N.am   23  GLY23      -0.1939
     16  CA         7.2340    1.8140   18.9570 C.3    23  GLY23       0.2014
     17  C          7.7250    2.8140   17.9050 C.2    23  GLY23       0.2639
     18  O          8.4390    2.4490   16.9740 O.2    23  GLY23      -0.2714
     19  N          7.3330    4.0640   18.0590 N.am   24  LYS24      -0.1963
     20  CA         7.7190    5.1500   17.0970 C.3    24  LYS24       0.1728
     21  C          9.2380    5.4210   17.0620 C.2    24  LYS24       0.2617
     22  O          9.8750    5.4370   15.9450 O.2    24  LYS24      -0.2715
     23  CB         6.8940    6.4090   17.3770 C.3    24  LYS24       0.0311
     24  CG         5.3720    6.2140   17.1820 C.3    24  LYS24       0.0038
     25  CD         4.5460    7.4920   17.3210 C.3    24  LYS24       0.0206
     26  CE         4.7630    8.1760   18.7450 C.3    24  LYS24       0.1093
     27  NZ         4.4320    7.1590   19.9390 N.3    24  LYS24      -0.1314
     28  N          9.8420    5.6660   18.2420 N.am   25  THR25      -0.1937
     29  CA        11.2770    5.7880   18.3580 C.3    25  THR25       0.2028
     30  C         11.9620    4.6330   17.7030 C.2    25  THR25       0.2642
     31  O         12.8570    4.8140   16.9100 O.2    25  THR25      -0.2714
     32  CB        11.7540    5.9180   19.8950 C.3    25  THR25       0.1808
     33  OG1       11.1370    7.0980   20.4300 O.3    25  THR25      -0.2208
     34  CG2       13.2220    6.0920   19.9700 C.3    25  THR25       0.0379
     35  N         11.5440    3.4310   18.0860 N.am   26  THR26      -0.1950
     36  CA        12.1180    2.2210   17.5950 C.3    26  THR26       0.1897
     37  C         12.0940    2.0810   16.0500 C.2    26  THR26       0.2313
     38  O         13.0950    1.6830   15.4900 O.2    26  THR26      -0.2863
     39  CB        11.3530    1.0420   18.1910 C.3    26  THR26       0.1794
     40  OG1       11.2830    1.2360   19.6060 O.3    26  THR26      -0.2208
     41  CG2       12.0530   -0.2890   17.8580 C.3    26  THR26       0.0378
     42  N          8.0330   11.1490   20.8340 N.3    79  PRO79      -0.2102
     43  CA         8.2100    9.8750   21.4790 C.3    79  PRO79       0.1504
     44  C          7.7650    9.9770   22.9260 C.2    79  PRO79       0.2576
     45  O          7.6900   11.0830   23.4480 O.2    79  PRO79      -0.2718
     46  CB         9.7250    9.6670   21.4500 C.3    79  PRO79       0.0282
     47  CG        10.3440   11.0070   21.3680 C.3    79  PRO79       0.0208
     48  CD         9.3130   11.8620   20.6350 C.3    79  PRO79       0.0893
     49  N          7.4570    8.8370   23.5520 N.am   80  GLY80      -0.1957
     50  CA         7.3650    8.8130   25.0100 C.3    80  GLY80       0.1869
     51  C          5.9250    9.0390   25.4280 C.2    80  GLY80       0.2309
     52  O          5.0140    9.1830   24.5830 O.2    80  GLY80      -0.2863
     53  N          2.1690   -2.6370   15.3000 N.3   140  ASN140     -0.1225
     54  CA         3.4400   -3.0020   15.8000 C.3   140  ASN140      0.1785
     55  C          3.2030   -3.8970   17.0420 C.2   140  ASN140      0.2597
     56  O          2.0780   -3.9980   17.5020 O.2   140  ASN140     -0.2718
     57  CB         4.2040   -1.7800   16.2710 C.3   140  ASN140      0.1169
     58  CG         5.6110   -2.0930   16.5690 C.2   140  ASN140      0.2627
     59  OD1        6.2110   -2.9480   15.9150 O.2   140  ASN140     -0.2716
     60  ND2        6.2090   -1.3820   17.5330 N.am  140  ASN140     -0.0877
     61  N          4.2880   -4.4820   17.4970 N.am  141  LYS141     -0.1980
     62  CA         4.3770   -5.4650   18.6070 C.3   141  LYS141      0.1596
     63  C          3.6170   -6.7680   18.3240 C.2   141  LYS141      0.2287
     64  O          2.9970   -7.3810   19.2310 O.2   141  LYS141     -0.2864
     65  CB         4.0060   -4.8430   19.9440 C.3   141  LYS141      0.0298
     66  CG         4.5420   -3.4030   20.1600 C.3   141  LYS141      0.0038
     67  CD         4.3420   -2.9630   21.6170 C.3   141  LYS141      0.0206
     68  CE         5.1260   -1.6750   21.9090 C.3   141  LYS141      0.1093
     69  NZ         4.8240   -1.0800   23.2950 N.3   141  LYS141     -0.1314
     70  N          4.7730   -9.5090   18.1880 N.3   143  ASP143     -0.1225
     71  CA         5.3970  -10.5710   18.9870 C.3   143  ASP143      0.1805
     72  C          4.7410  -10.7230   20.3950 C.2   143  ASP143      0.2597
     73  O          4.8720  -11.7800   21.0520 O.2   143  ASP143     -0.2718
     74  CB         6.8830  -10.2920   19.0810 C.3   143  ASP143      0.1424
     75  CG         7.1660   -8.9180   19.6910 C.2   143  ASP143      0.3668
     76  OD1        6.4060   -7.9270   19.3240 O.co2 143  ASP143     -0.2456
     77  OD2        8.1370   -8.8280   20.5030 O.co2 143  ASP143     -0.2456
     78  N          3.9870   -9.7310   20.8750 N.am  144  LEU144     -0.1979
     79  CA         3.4590   -9.8730   22.2560 C.3   144  LEU144      0.1596
     80  C          2.6240  -11.1480   22.3980 C.2   144  LEU144      0.2287
     81  O          1.8400  -11.4710   21.5070 O.2   144  LEU144     -0.2864
     82  CB         2.6120   -8.6480   22.6550 C.3   144  LEU144      0.0297
     83  CG         3.2820   -7.2630   22.5790 C.3   144  LEU144      0.0022
     84  CD1        2.1770   -6.1360   22.7410 C.3   144  LEU144      0.0001
     85  CD2        4.4320   -7.0850   23.5340 C.3   144  LEU144      0.0001
     86  N          7.2230   -5.8490   13.8500 N.3   169  VAL169     -0.1231
     87  CA         7.8440   -6.0470   15.1260 C.3   169  VAL169      0.1692
     88  C          9.0570   -5.1450   15.1200 C.2   169  VAL169      0.2592
     89  O         10.1970   -5.5700   14.8190 O.2   169  VAL169     -0.2718
     90  CB         8.3030   -7.5020   15.3560 C.3   169  VAL169      0.0266
     91  CG1        8.9630   -7.6370   16.7700 C.3   169  VAL169      0.0020
     92  CG2        7.2340   -8.4190   15.1830 C.3   169  VAL169      0.0020
     93  N          8.8410   -3.9040   15.5260 N.am  170  ALA170     -0.1966
     94  CA         9.8560   -2.8530   15.2620 C.3   170  ALA170      0.1728
     95  C         11.1660   -3.1360   15.9640 C.2   170  ALA170      0.2616
     96  O         12.1850   -2.6680   15.5190 O.2   170  ALA170     -0.2715
     97  CB         9.3350   -1.4850   15.6740 C.3   170  ALA170      0.0334
     98  N         11.1260   -3.8130   17.1150 N.am  171  THR171     -0.1951
     99  CA        12.3810   -4.0920   17.8470 C.3   171  THR171      0.1897
    100  C         13.3280   -5.0140   17.0250 C.2   171  THR171      0.2313
    101  O         14.5340   -4.9770   17.2310 O.2   171  THR171     -0.2863
    102  CB        12.0490   -4.7560   19.1810 C.3   171  THR171      0.1794
    103  OG1       10.8980   -5.5750   18.9650 O.3   171  THR171     -0.2208
    104  CG2       11.6570   -3.6900   20.2430 C.3   171  THR171      0.0378
@<TRIPOS>BOND
     1    86    87    1
     2    89    88    2
     3    88    87    1
     4    88    93   am
     5    87    90    1
     6    92    90    1
     7    94    93    1
     8    94    97    1
     9    94    95    1
    10    53    54    1
    11    90    91    1
    12    38    37    2
    13    96    95    2
    14    54    57    1
    15    54    55    1
    16    59    58    2
    17    22    21    2
    18    95    98   am
    19    37    36    1
    20    57    58    1
    21    58    60   am
    22    31    30    2
    23    18    17    2
    24   100   101    2
    25   100    99    1
    26    55    61   am
    27    55    56    2
    28    21    20    1
    29    21    28   am
    30    20    23    1
    31    20    19    1
    32    98    99    1
    33    24    25    1
    34    24    23    1
    35    25    26    1
    36    61    62    1
    37    36    35    1
    38    36    39    1
    39    30    35   am
    40    30    29    1
    41    99   102    1
    42    41    39    1
    43    17    19   am
    44    17    16    1
    45    70    71    1
    46    39    40    1
    47    28    29    1
    48    63    62    1
    49    63    64    2
    50    29    32    1
    51    62    65    1
    52    26    27    1
    53    16    15    1
    54   103   102    1
    55    71    74    1
    56    71    72    1
    57    14    13    1
    58    74    75    1
    59    12    11    2
    60   102   104    1
    61    76    75   ar
    62    13    10    1
    63    75    77   ar
    64    11    15   am
    65    11    10    1
    66    32    34    1
    67    32    33    1
    68    65    66    1
    69    66    67    1
    70    72    78   am
    71    72    73    2
    72    10     9    1
    73    48    42    1
    74    48    47    1
    75    42    43    1
    76    78    79    1
    77    47    46    1
    78    46    43    1
    79    43    44    1
    80    81    80    2
    81    67    68    1
    82     9     3   am
    83    68    69    1
    84    79    80    1
    85    79    82    1
    86    83    82    1
    87    83    84    1
    88    83    85    1
    89     3     4    2
    90     3     2    1
    91    44    45    2
    92    44    49   am
    93    49    50    1
    94     1     2    1
    95     2     5    1
    96    52    51    2
    97    50    51    1
    98     5     6    1
    99     8     6    1
   100     6     7    1
