@<TRIPOS>MOLECULE
tmp/3t1qA00.pdb
 158 153 0 0 0
SMALL
GASTEIGER

@<TRIPOS>ATOM
      1  N         32.6050   13.1900   -5.9960 N.3    13  GLY13      -0.1210
      2  CA        33.6270   13.5460   -5.0240 C.3    13  GLY13       0.1956
      3  C         34.8660   14.0920   -5.7110 C.2    13  GLY13       0.2612
      4  O         35.2260   13.6520   -6.8000 O.2    13  GLY13      -0.2717
      5  N         35.4860   15.0880   -5.0920 N.am   14  LEU14      -0.1965
      6  CA        36.7510   15.6180   -5.5880 C.3    14  LEU14       0.1728
      7  C         36.7150   16.2610   -7.0110 C.2    14  LEU14       0.2617
      8  O         37.7790   16.4300   -7.6290 O.2    14  LEU14      -0.2715
      9  CB        37.8460   14.5150   -5.5200 C.3    14  LEU14       0.0311
     10  CG        38.0850   13.8560   -4.1440 C.3    14  LEU14       0.0022
     11  CD1       38.8300   12.5770   -4.2750 C.3    14  LEU14       0.0001
     12  CD2       38.8280   14.7510   -3.1970 C.3    14  LEU14       0.0001
     13  N         35.5490   16.6040   -7.5580 N.am   15  SER15      -0.1936
     14  CA        35.5720   17.1420   -8.9300 C.3    15  SER15       0.2055
     15  C         35.9390   18.6260   -8.9560 C.2    15  SER15       0.2644
     16  O         36.2100   19.1830  -10.0290 O.2    15  SER15      -0.2714
     17  CB        34.2490   16.9170   -9.6700 C.3    15  SER15       0.2130
     18  OG        33.2010   17.7300   -9.1560 O.3    15  SER15      -0.2179
     19  N         35.9350   19.2570   -7.7750 N.am   16  GLY16      -0.1939
     20  CA        36.3030   20.6510   -7.6340 C.3    16  GLY16       0.2014
     21  C         35.1650   21.5880   -7.2760 C.2    16  GLY16       0.2639
     22  O         35.2820   22.8160   -7.4790 O.2    16  GLY16      -0.2714
     23  N         34.0650   21.0510   -6.7280 N.am   17  LYS17      -0.1963
     24  CA        32.9220   21.9100   -6.3870 C.3    17  LYS17       0.1728
     25  C         33.2750   23.0240   -5.4070 C.2    17  LYS17       0.2617
     26  O         33.0530   24.1950   -5.7130 O.2    17  LYS17      -0.2715
     27  CB        31.7250   21.1130   -5.9090 C.3    17  LYS17       0.0311
     28  CG        31.1050   20.2740   -6.9810 C.3    17  LYS17       0.0038
     29  CD        30.0650   19.3790   -6.4060 C.3    17  LYS17       0.0206
     30  CE        30.6330   18.5790   -5.2220 C.3    17  LYS17       0.1093
     31  NZ        31.6710   17.5950   -5.5230 N.3    17  LYS17      -0.1314
     32  N         33.8660   22.6680   -4.2720 N.am   18  THR18      -0.1937
     33  CA        34.3150   23.6480   -3.2820 C.3    18  THR18       0.2028
     34  C         35.3450   24.5940   -3.8610 C.2    18  THR18       0.2642
     35  O         35.3360   25.7480   -3.5250 O.2    18  THR18      -0.2714
     36  CB        34.9070   22.9480   -1.9770 C.3    18  THR18       0.1808
     37  OG1       33.8840   22.1290   -1.3540 O.3    18  THR18      -0.2208
     38  CG2       35.4980   23.9680   -0.9460 C.3    18  THR18       0.0379
     39  N         36.2350   24.1210   -4.7230 N.am   19  THR19      -0.1950
     40  CA        37.2970   24.9980   -5.2700 C.3    19  THR19       0.1897
     41  C         36.7180   26.1640   -6.0680 C.2    19  THR19       0.2313
     42  O         37.2140   27.2790   -5.9900 O.2    19  THR19      -0.2863
     43  CB        38.3160   24.2350   -6.1000 C.3    19  THR19       0.1794
     44  OG1       38.9670   23.2800   -5.2530 O.3    19  THR19      -0.2208
     45  CG2       39.3840   25.1580   -6.6210 C.3    19  THR19       0.0378
     46  N         38.8850   18.1110    4.7850 N.3    44  GLU44      -0.1231
     47  CA        38.2830   19.0990    3.9040 C.3    44  GLU44       0.1699
     48  C         37.4160   18.5320    2.7660 C.2    44  GLU44       0.2592
     49  O         37.2230   19.2010    1.7650 O.2    44  GLU44      -0.2718
     50  CB        39.2890   20.1780    3.4190 C.3    44  GLU44       0.0402
     51  CG        40.7660   19.8080    3.3320 C.3    44  GLU44       0.1161
     52  CD        41.6720   21.0690    3.3440 C.2    44  GLU44       0.3649
     53  OE1       42.1660   21.4030    4.4590 O.co2  44  GLU44      -0.2457
     54  OE2       41.8660   21.7280    2.2650 O.co2  44  GLU44      -0.2457
     55  N         36.8760   17.3240    2.9280 N.am   45  ARG45      -0.1966
     56  CA        35.7880   16.8700    2.0530 C.3    45  ARG45       0.1729
     57  C         34.5040   17.4730    2.6400 C.2    45  ARG45       0.2616
     58  O         34.2520   17.4400    3.8540 O.2    45  ARG45      -0.2715
     59  CB        35.6750   15.3290    1.9760 C.3    45  ARG45       0.0348
     60  CG        36.9840   14.5350    1.7690 C.3    45  ARG45       0.0492
     61  CD        37.4970   14.4480    0.3150 C.3    45  ARG45       0.2205
     62  NE        36.4100   14.2050   -0.6200 N.pl3  45  ARG45      -0.0865
     63  CZ        36.1290   13.0430   -1.2080 C.cat  45  ARG45       0.5346
     64  NH1       36.8860   11.9780   -0.9980 N.pl3  45  ARG45       0.1354
     65  NH2       35.0850   12.9490   -2.0360 N.pl3  45  ARG45       0.1354
     66  N         33.7070   18.0700    1.7880 N.am   46  THR46      -0.1951
     67  CA        32.4860   18.6890    2.2570 C.3    46  THR46       0.1897
     68  C         31.5240   17.6570    2.8340 C.2    46  THR46       0.2313
     69  O         31.2140   16.6740    2.1810 O.2    46  THR46      -0.2863
     70  CB        31.7740   19.3880    1.1070 C.3    46  THR46       0.1794
     71  OG1       32.7190   20.1830    0.3820 O.3    46  THR46      -0.2208
     72  CG2       30.6290   20.2350    1.6390 C.3    46  THR46       0.0378
     73  N         27.4710   24.3620   -2.5540 N.3    64  THR64      -0.1203
     74  CA        28.1330   23.1570   -2.9730 C.3    64  THR64       0.1994
     75  C         27.4800   22.0900   -2.1420 C.2    64  THR64       0.2618
     76  O         27.0150   22.3420   -1.0530 O.2    64  THR64      -0.2717
     77  CB        29.6160   23.2630   -2.6370 C.3    64  THR64       0.1784
     78  OG1       30.3510   23.4990   -3.8460 O.3    64  THR64      -0.2211
     79  CG2       30.1710   22.0450   -1.8970 C.3    64  THR64       0.0376
     80  N         27.4800   20.8850   -2.6770 N.am   65  VAL65      -0.1966
     81  CA        26.8630   19.7120   -2.1320 C.3    65  VAL65       0.1712
     82  C         28.0130   18.7440   -1.8310 C.2    65  VAL65       0.2458
     83  O         29.0240   18.7950   -2.5250 O.2    65  VAL65      -0.2730
     84  CB        25.9850   19.2230   -3.2820 C.3    65  VAL65       0.0289
     85  CG1       26.3040   17.8370   -3.7530 C.3    65  VAL65       0.0023
     86  CG2       24.5690   19.4990   -2.9920 C.3    65  VAL65       0.0023
     87  N         27.8830   17.8440   -0.8220 N.am   66  PRO66      -0.2716
     88  CA        28.9700   16.8690   -0.6720 C.3    66  PRO66       0.1536
     89  C         28.8700   15.7490   -1.7420 C.2    66  PRO66       0.2599
     90  O         27.7980   15.1610   -1.9400 O.2    66  PRO66      -0.2715
     91  CB        28.7580   16.3260    0.7290 C.3    66  PRO66       0.0310
     92  CG        27.3890   16.7180    1.1030 C.3    66  PRO66       0.0237
     93  CD        26.7350   17.4580   -0.0080 C.3    66  PRO66       0.0939
     94  N         29.9580   15.4970   -2.4600 N.am   67  GLY67      -0.1941
     95  CA        29.9260   14.5900   -3.5820 C.3    67  GLY67       0.2014
     96  C         30.0310   13.0980   -3.3100 C.2    67  GLY67       0.2638
     97  O         29.6130   12.2910   -4.1450 O.2    67  GLY67      -0.2714
     98  N         30.5710   12.7230   -2.1500 N.am   68  GLN68      -0.1977
     99  CA        30.7960   11.3290   -1.8120 C.3    68  GLN68       0.1601
    100  C         29.4830   10.6190   -1.7790 C.2    68  GLN68       0.2287
    101  O         28.4600   11.2180   -1.3190 O.2    68  GLN68      -0.2864
    102  CB        31.4430   11.2610   -0.4620 C.3    68  GLN68       0.0394
    103  CG        32.9200   11.0990   -0.5790 C.3    68  GLN68       0.0908
    104  CD        33.6380   11.2660    0.7480 C.2    68  GLN68       0.2608
    105  OE1       33.4130   12.2420    1.4530 O.2    68  GLN68      -0.2717
    106  NE2       34.5400   10.3330    1.0700 N.am   68  GLN68      -0.0878
    107  N         35.8390   20.3220  -15.4970 N.3   127  ASN127     -0.1225
    108  CA        36.9250   20.9260  -14.7150 C.3   127  ASN127      0.1785
    109  C         38.1550   20.0710  -14.8050 C.2   127  ASN127      0.2597
    110  O         38.0970   19.0100  -15.4030 O.2   127  ASN127     -0.2718
    111  CB        36.5170   21.0420  -13.2480 C.3   127  ASN127      0.1169
    112  CG        37.4810   21.8650  -12.4410 C.2   127  ASN127      0.2627
    113  OD1       37.7500   23.0160  -12.7610 O.2   127  ASN127     -0.2716
    114  ND2       38.0010   21.2900  -11.3860 N.am  127  ASN127     -0.0877
    115  N         39.2570   20.5320  -14.2070 N.am  128  LYS128     -0.1980
    116  CA        40.5840   19.8480  -14.2320 C.3   128  LYS128      0.1596
    117  C         41.2840   19.5980  -15.6020 C.2   128  LYS128      0.2287
    118  O         42.0090   18.6140  -15.7450 O.2   128  LYS128     -0.2864
    119  CB        40.5550   18.5430  -13.4190 C.3   128  LYS128      0.0298
    120  CG        40.2310   18.7160  -11.9650 C.3   128  LYS128      0.0038
    121  CD        40.3860   17.4400  -11.1580 C.3   128  LYS128      0.0206
    122  CE        39.3940   17.4960  -10.0160 C.3   128  LYS128      0.1093
    123  NZ        39.9280   17.0380   -8.7330 N.3   128  LYS128     -0.1314
    124  N         43.9320   20.8140  -16.7780 N.3   130  ASP130     -0.1225
    125  CA        45.3890   20.7560  -16.6550 C.3   130  ASP130      0.1805
    126  C         45.9740   19.3460  -16.4930 C.2   130  ASP130      0.2597
    127  O         47.1790   19.1260  -16.7300 O.2   130  ASP130     -0.2718
    128  CB        45.8780   21.6420  -15.5050 C.3   130  ASP130      0.1424
    129  CG        45.3070   21.2350  -14.1650 C.2   130  ASP130      0.3668
    130  OD1       44.0850   20.9170  -14.0830 O.co2 130  ASP130     -0.2456
    131  OD2       46.1030   21.2380  -13.1970 O.co2 130  ASP130     -0.2456
    132  N         45.1530   18.3930  -16.0600 N.am  131  LEU131     -0.1979
    133  CA        45.6710   17.0270  -15.8570 C.3   131  LEU131      0.1596
    134  C         46.3640   16.4890  -17.1190 C.2   131  LEU131      0.2287
    135  O         45.8440   16.6120  -18.2240 O.2   131  LEU131     -0.2864
    136  CB        44.5590   16.0640  -15.4220 C.3   131  LEU131      0.0297
    137  CG        43.8480   16.2470  -14.0800 C.3   131  LEU131      0.0022
    138  CD1       42.6470   15.2990  -13.9940 C.3   131  LEU131      0.0001
    139  CD2       44.8080   16.0460  -12.9160 C.3   131  LEU131      0.0001
    140  N         39.8200   25.0750  -15.1460 N.3   156  VAL156     -0.1231
    141  CA        40.8430   24.6230  -14.2300 C.3   156  VAL156      0.1692
    142  C         40.5730   25.4720  -13.0370 C.2   156  VAL156      0.2592
    143  O         41.0130   26.6150  -12.9610 O.2   156  VAL156     -0.2718
    144  CB        42.2420   24.9510  -14.6840 C.3   156  VAL156      0.0266
    145  CG1       43.2320   24.5380  -13.6030 C.3   156  VAL156      0.0020
    146  CG2       42.5460   24.2710  -16.0000 C.3   156  VAL156      0.0020
    147  N         39.8130   24.9370  -12.0970 N.am  157  ALA157     -0.1966
    148  CA        39.2580   25.8190  -11.1010 C.3   157  ALA157      0.1728
    149  C         40.2890   26.1940  -10.0710 C.2   157  ALA157      0.2616
    150  O         40.0960   27.1770   -9.3740 O.2   157  ALA157     -0.2715
    151  CB        38.0020   25.2500  -10.4800 C.3   157  ALA157      0.0334
    152  N         41.3880   25.4440   -9.9950 N.am  158  THR158     -0.1951
    153  CA        42.4690   25.7670   -9.0630 C.3   158  THR158      0.1897
    154  C         43.1990   27.0090   -9.4920 C.2   158  THR158      0.2313
    155  O         43.9070   27.5690   -8.6840 O.2   158  THR158     -0.2863
    156  CB        43.5470   24.6720   -8.9760 C.3   158  THR158      0.1794
    157  OG1       43.7070   24.0520  -10.2610 O.3   158  THR158     -0.2208
    158  CG2       43.2010   23.6190   -7.9120 C.3   158  THR158      0.0378
@<TRIPOS>BOND
     1   135   134    2
     2   134   133    1
     3   124   125    1
     4   127   126    2
     5   125   126    1
     6   125   128    1
     7   126   132   am
     8   132   133    1
     9   146   144    1
    10   133   136    1
    11   118   117    2
    12   117   116    1
    13   128   129    1
    14   107   108    1
    15   136   137    1
    16   110   109    2
    17   140   141    1
    18   109   108    1
    19   109   115   am
    20   108   111    1
    21   144   141    1
    22   144   145    1
    23   116   115    1
    24   116   119    1
    25   141   142    1
    26   129   130   ar
    27   129   131   ar
    28   137   138    1
    29   137   139    1
    30   119   120    1
    31   111   112    1
    32   142   143    2
    33   142   147   am
    34   113   112    2
    35   112   114   am
    36   147   148    1
    37   120   121    1
    38   121   122    1
    39   148   151    1
    40   148   149    1
    41   157   156    1
    42   149   152   am
    43   149   150    2
    44    16    15    2
    45   122   123    1
    46   152   153    1
    47    17    18    1
    48    17    14    1
    49   154   153    1
    50   154   155    2
    51   153   156    1
    52   156   158    1
    53    15    14    1
    54    15    19   am
    55    14    13    1
    56    19    20    1
    57    20    21    1
    58     8     7    2
    59    13     7   am
    60    22    21    2
    61    21    23   am
    62     7     6    1
    63    28    29    1
    64    28    27    1
    65     4     3    2
    66    23    24    1
    67    45    43    1
    68    29    30    1
    69    24    27    1
    70    24    25    1
    71    43    40    1
    72    43    44    1
    73    41    42    2
    74    41    40    1
    75     1     2    1
    76    26    25    2
    77     3     5   am
    78     3     2    1
    79     6     9    1
    80     6     5    1
    81    31    30    1
    82     9    10    1
    83    25    32   am
    84    40    39    1
    85    39    34   am
    86    11    10    1
    87    32    33    1
    88    97    96    2
    89    10    12    1
    90    34    35    2
    91    34    33    1
    92    78    77    1
    93    85    84    1
    94    95    96    1
    95    95    94    1
    96    96    98   am
    97    33    36    1
    98    84    86    1
    99    84    81    1
   100    74    77    1
   101    74    73    1
   102    74    75    1
   103    80    75   am
   104    80    81    1
   105    77    79    1
   106    83    82    2
   107    94    89   am
   108    98    99    1
   109    75    76    2
   110    81    82    1
   111    65    63    1
   112    36    37    1
   113    36    38    1
   114    90    89    2
   115    82    87   am
   116    99   100    1
   117    99   102    1
   118   100   101    2
   119    89    88    1
   120    63    64    1
   121    63    62    2
   122    87    88    1
   123    87    93    1
   124    88    91    1
   125    62    61    1
   126   103   102    1
   127   103   104    1
   128    93    92    1
   129    61    60    1
   130    71    70    1
   131    91    92    1
   132   104   106   am
   133   104   105    2
   134    70    72    1
   135    70    67    1
   136    49    48    2
   137    60    59    1
   138    66    67    1
   139    66    57   am
   140    59    56    1
   141    56    57    1
   142    56    55    1
   143    69    68    2
   144    67    68    1
   145    54    52   ar
   146    57    58    2
   147    48    55   am
   148    48    47    1
   149    51    52    1
   150    51    50    1
   151    52    53   ar
   152    50    47    1
   153    47    46    1
