@<TRIPOS>MOLECULE
tmp/3t1uA00.pdb
 181 176 0 0 0
SMALL
GASTEIGER

@<TRIPOS>ATOM
      1  N         10.4900   29.1090   11.0440 N.3    42  HIS42      -0.1226
      2  CA        10.3360   29.9260    9.8360 C.3    42  HIS42       0.1752
      3  C         10.7710   29.2760    8.5320 C.2    42  HIS42       0.2595
      4  O         10.4530   29.7690    7.4430 O.2    42  HIS42      -0.2718
      5  CB        11.1040   31.2420   10.0000 C.3    42  HIS42       0.0759
      6  CG        12.5930   31.0710   10.0270 C.ar   42  HIS42       0.0818
      7  ND1       13.2610   30.5390   11.1070 N.ar   42  HIS42      -0.2268
      8  CD2       13.5340   31.3070    9.0830 C.ar   42  HIS42       0.1154
      9  CE1       14.5490   30.4490   10.8290 C.ar   42  HIS42       0.1986
     10  NE2       14.7430   30.9080    9.6050 N.ar   42  HIS42      -0.2212
     11  N         11.4950   28.1720    8.6390 N.am   43  ARG43      -0.1980
     12  CA        11.9940   27.4870    7.4620 C.3    43  ARG43       0.1597
     13  C         11.7200   25.9970    7.6040 C.2    43  ARG43       0.2287
     14  O         12.4320   25.2820    8.3100 O.2    43  ARG43      -0.2864
     15  CB        13.4920   27.7600    7.3300 C.3    43  ARG43       0.0334
     16  CG        14.0910   27.4250    5.9880 C.3    43  ARG43       0.0492
     17  CD        15.5980   27.5770    6.0670 C.3    43  ARG43       0.2205
     18  NE        16.2480   27.1390    4.8420 N.pl3  43  ARG43      -0.0865
     19  CZ        17.4870   26.6740    4.7930 C.cat  43  ARG43       0.5346
     20  NH1       18.2000   26.5850    5.9090 N.pl3  43  ARG43       0.1354
     21  NH2       18.0120   26.3080    3.6300 N.pl3  43  ARG43       0.1354
     22  N         11.2970   22.5600    5.4780 N.3    45  ILE45      -0.1231
     23  CA        11.5580   21.9250    4.1960 C.3    45  ILE45       0.1692
     24  C         11.4590   20.4130    4.3140 C.2    45  ILE45       0.2592
     25  O         12.3550   19.7560    4.8390 O.2    45  ILE45      -0.2718
     26  CB        12.9550   22.3220    3.6770 C.3    45  ILE45       0.0266
     27  CG1       13.0840   23.8500    3.6690 C.3    45  ILE45       0.0019
     28  CG2       13.1670   21.7700    2.2700 C.3    45  ILE45       0.0020
     29  CD1       14.4770   24.3680    3.2930 C.3    45  ILE45       0.0001
     30  N         10.3470   19.8760    3.8270 N.am   46  ASP46      -0.1960
     31  CA        10.0770   18.4460    3.8660 C.3    46  ASP46       0.1840
     32  C         11.2400   17.6960    3.2250 C.2    46  ASP46       0.2623
     33  O         11.8170   18.1660    2.2430 O.2    46  ASP46      -0.2715
     34  CB         8.7810   18.1590    3.1090 C.3    46  ASP46       0.1450
     35  CG         8.1480   16.8390    3.5040 C.2    46  ASP46       0.3671
     36  OD1        8.7530   16.0850    4.2960 O.co2  46  ASP46      -0.2456
     37  OD2        7.0360   16.5600    3.0130 O.co2  46  ASP46      -0.2456
     38  N         11.5940   16.5480    3.7980 N.am   47  GLY47      -0.1940
     39  CA        12.6960   15.7640    3.2680 C.3    47  GLY47       0.2014
     40  C         14.0610   16.3510    3.5770 C.2    47  GLY47       0.2639
     41  O         15.0880   15.8510    3.1020 O.2    47  GLY47      -0.2714
     42  N         14.0860   17.4140    4.3750 N.am   48  PHE48      -0.1959
     43  CA        15.3490   18.0490    4.7210 C.3    48  PHE48       0.1771
     44  C         15.4070   18.3770    6.2130 C.2    48  PHE48       0.2619
     45  O         15.9990   17.6290    6.9980 O.2    48  PHE48      -0.2715
     46  CB        15.5350   19.3040    3.8510 C.3    48  PHE48       0.0574
     47  CG        16.7850   20.0830    4.1520 C.ar   48  PHE48      -0.0200
     48  CD1       17.9760   19.4330    4.4640 C.ar   48  PHE48      -0.0042
     49  CD2       16.7760   21.4740    4.1010 C.ar   48  PHE48      -0.0042
     50  CE1       19.1390   20.1550    4.7210 C.ar   48  PHE48      -0.0003
     51  CE2       17.9400   22.2080    4.3580 C.ar   48  PHE48      -0.0003
     52  CZ        19.1220   21.5490    4.6670 C.ar   48  PHE48      -0.0000
     53  N         14.7790   19.4720    6.6210 N.am   49  MET49      -0.1977
     54  CA        14.7990   19.8340    8.0340 C.3    49  MET49       0.1605
     55  C         13.8120   20.9420    8.3610 C.2    49  MET49       0.2287
     56  O         13.1560   21.4860    7.4640 O.2    49  MET49      -0.2864
     57  CB        16.2210   20.2660    8.4290 C.3    49  MET49       0.0413
     58  CG        16.7870   21.4410    7.6130 C.3    49  MET49       0.0598
     59  SD        16.2420   23.1040    8.1560 S.3    49  MET49      -0.1393
     60  CE        15.2050   23.6270    6.7890 C.3    49  MET49       0.0692
     61  N         13.6910   24.5250   10.6340 N.3    51  GLN51      -0.1245
     62  CA        14.5320   25.5050   11.3080 C.3    51  GLN51       0.1566
     63  C         13.7390   26.5670   12.0550 C.2    51  GLN51       0.2260
     64  O         12.7150   27.0360   11.5720 O.2    51  GLN51      -0.2867
     65  CB        15.4390   26.1630   10.2650 C.3    51  GLN51       0.0367
     66  CG        16.4160   27.1930   10.7910 C.3    51  GLN51       0.0905
     67  CD        17.3220   27.7290    9.6890 C.2    51  GLN51       0.2608
     68  OE1       17.6330   27.0240    8.7260 O.2    51  GLN51      -0.2717
     69  NE2       17.7640   28.9600    9.8390 N.am   51  GLN51      -0.0878
     70  N         12.7430   39.3570   12.8410 N.3    61  GLN61      -0.1245
     71  CA        13.9750   38.8110   13.4040 C.3    61  GLN61       0.1566
     72  C         14.3690   39.4140   14.7460 C.2    61  GLN61       0.2260
     73  O         14.5030   40.6300   14.8750 O.2    61  GLN61      -0.2867
     74  CB        15.1270   38.9790   12.4080 C.3    61  GLN61       0.0367
     75  CG        16.2610   37.9900   12.6240 C.3    61  GLN61       0.0905
     76  CD        17.2660   37.9830   11.4860 C.2    61  GLN61       0.2608
     77  OE1       16.8950   37.9740   10.3100 O.2    61  GLN61      -0.2717
     78  NE2       18.5480   37.9720   11.8320 N.am   61  GLN61      -0.0878
     79  N         21.9780   26.3510   12.9530 N.3    86  ALA86      -0.1231
     80  CA        21.8920   26.9820   11.6410 C.3    86  ALA86       0.1694
     81  C         22.8430   28.1630   11.7350 C.2    86  ALA86       0.2592
     82  O         23.2340   28.5650   12.8350 O.2    86  ALA86      -0.2718
     83  CB        20.4790   27.4800   11.3690 C.3    86  ALA86       0.0304
     84  N         23.2140   28.7370   10.6010 N.am   87  ARG87      -0.1966
     85  CA        24.1360   29.8580   10.6530 C.3    87  ARG87       0.1729
     86  C         24.2840   30.5710    9.3310 C.2    87  ARG87       0.2617
     87  O         23.5260   30.3570    8.3900 O.2    87  ARG87      -0.2715
     88  CB        25.5170   29.3740   11.0970 C.3    87  ARG87       0.0348
     89  CG        26.1190   28.3110   10.1770 C.3    87  ARG87       0.0492
     90  CD        27.5030   27.8930   10.6590 C.3    87  ARG87       0.2205
     91  NE        28.0430   26.7320    9.9490 N.pl3  87  ARG87      -0.0865
     92  CZ        28.5380   26.7500    8.7130 C.cat  87  ARG87       0.5346
     93  NH1       28.5730   27.8770    8.0110 N.pl3  87  ARG87       0.1354
     94  NH2       29.0120   25.6300    8.1820 N.pl3  87  ARG87       0.1354
     95  N         25.3050   31.4120    9.3030 N.am   88  THR88      -0.1937
     96  CA        25.6960   32.2190    8.1660 C.3    88  THR88       0.2013
     97  C         26.7550   31.3920    7.4320 C.2    88  THR88       0.2484
     98  O         27.2100   30.3760    7.9540 O.2    88  THR88      -0.2729
     99  CB        26.3010   33.5420    8.7150 C.3    88  THR88       0.1807
    100  OG1       25.2500   34.4940    8.9210 O.3    88  THR88      -0.2208
    101  CG2       27.3570   34.0960    7.8160 C.3    88  THR88       0.0379
    102  N         27.1220   31.7790    6.1960 N.am   89  PRO89      -0.2726
    103  CA        28.1480   31.0060    5.4890 C.3    89  PRO89       0.1402
    104  C         29.4220   30.9480    6.3410 C.2    89  PRO89       0.2269
    105  O         30.2470   30.0470    6.1950 O.2    89  PRO89      -0.2865
    106  CB        28.3430   31.8020    4.2050 C.3    89  PRO89       0.0296
    107  CG        26.9500   32.2720    3.9160 C.3    89  PRO89       0.0237
    108  CD        26.4520   32.7200    5.2780 C.3    89  PRO89       0.0939
    109  N         29.6590   31.5310   12.9720 N.3    93  SER93      -0.1217
    110  CA        28.6370   32.5670   13.1150 C.3    93  SER93       0.1889
    111  C         27.3340   32.1350   13.7800 C.2    93  SER93       0.2288
    112  O         26.4400   32.9560   13.9580 O.2    93  SER93      -0.2866
    113  CB        28.3090   33.1600   11.7450 C.3    93  SER93       0.2089
    114  OG        27.8380   32.1470   10.8780 O.3    93  SER93      -0.2183
    115  N         24.3980   31.5110   16.2170 N.3    95  SER95      -0.1217
    116  CA        23.9770   32.2640   17.3900 C.3    95  SER95       0.1889
    117  C         22.7620   31.6160   18.0420 C.2    95  SER95       0.2288
    118  O         22.9170   30.7620   18.9110 O.2    95  SER95      -0.2866
    119  CB        23.6800   33.7270   17.0250 C.3    95  SER95       0.2089
    120  OG        22.7160   33.8280   15.9880 O.3    95  SER95      -0.2183
    121  N         19.7110   30.4980   16.0280 N.3    97  GLN97      -0.1245
    122  CA        18.9660   29.5860   15.1650 C.3    97  GLN97       0.1566
    123  C         19.4620   28.1450   15.0920 C.2    97  GLN97       0.2260
    124  O         20.6570   27.8740   14.9690 O.2    97  GLN97      -0.2867
    125  CB        18.8600   30.1760   13.7590 C.3    97  GLN97       0.0367
    126  CG        17.9720   31.4190   13.6960 C.3    97  GLN97       0.0905
    127  CD        17.8450   31.9660   12.2890 C.2    97  GLN97       0.2608
    128  OE1       17.5710   31.2220   11.3450 O.2    97  GLN97      -0.2717
    129  NE2       18.0330   33.2740   12.1410 N.am   97  GLN97      -0.0878
    130  N         18.1700   23.8630   13.7900 N.3    99  PHE99      -0.1241
    131  CA        17.3240   23.0850   12.9100 C.3    99  PHE99       0.1605
    132  C         17.3240   21.6360   13.3520 C.2    99  PHE99       0.2264
    133  O         18.2710   21.1570   13.9860 O.2    99  PHE99      -0.2867
    134  CB        17.7740   23.2090   11.4400 C.3    99  PHE99       0.0534
    135  CG        19.1310   22.6050   11.1440 C.ar   99  PHE99      -0.0203
    136  CD1       19.2420   21.2960   10.6780 C.ar   99  PHE99      -0.0042
    137  CD2       20.2890   23.3660   11.2870 C.ar   99  PHE99      -0.0042
    138  CE1       20.4930   20.7500   10.3500 C.ar   99  PHE99      -0.0003
    139  CE2       21.5410   22.8390   10.9670 C.ar   99  PHE99      -0.0003
    140  CZ        21.6450   21.5280   10.4950 C.ar   99  PHE99      -0.0000
    141  N         25.3750   14.9400    4.3800 N.3   107  PHE107     -0.1227
    142  CA        26.0290   16.0200    3.6470 C.3   107  PHE107      0.1736
    143  C         26.2570   17.2820    4.4760 C.2   107  PHE107      0.2595
    144  O         27.0500   18.1480    4.0930 O.2   107  PHE107     -0.2718
    145  CB        25.2460   16.3530    2.3680 C.3   107  PHE107      0.0547
    146  CG        23.8740   16.9110    2.6110 C.ar  107  PHE107     -0.0202
    147  CD1       23.6560   18.2850    2.6040 C.ar  107  PHE107     -0.0042
    148  CD2       22.7910   16.0610    2.8040 C.ar  107  PHE107     -0.0042
    149  CE1       22.3740   18.8080    2.7820 C.ar  107  PHE107     -0.0003
    150  CE2       21.5000   16.5750    2.9840 C.ar  107  PHE107     -0.0003
    151  CZ        21.2970   17.9520    2.9710 C.ar  107  PHE107     -0.0000
    152  N         25.5760   17.3680    5.6170 N.am  108  LEU108     -0.1980
    153  CA        25.7000   18.5110    6.5190 C.3   108  LEU108      0.1596
    154  C         26.8400   18.3230    7.5160 C.2   108  LEU108      0.2287
    155  O         27.1770   19.2410    8.2530 O.2   108  LEU108     -0.2864
    156  CB        24.3950   18.7200    7.3020 C.3   108  LEU108      0.0297
    157  CG        23.1260   19.0580    6.5150 C.3   108  LEU108      0.0022
    158  CD1       21.9520   19.2340    7.4820 C.3   108  LEU108      0.0001
    159  CD2       23.3470   20.3300    5.7160 C.3   108  LEU108      0.0001
    160  N         33.7590   25.8010    3.1670 N.3   116  HIS116     -0.1241
    161  CA        32.7160   24.9270    2.6440 C.3   116  HIS116      0.1621
    162  C         32.5740   23.5620    3.3230 C.2   116  HIS116      0.2264
    163  O         31.5480   22.8980    3.1770 O.2   116  HIS116     -0.2867
    164  CB        32.9350   24.7250    1.1410 C.3   116  HIS116      0.0745
    165  CG        32.9070   25.9980    0.3510 C.ar  116  HIS116      0.0817
    166  ND1       31.7900   26.8030    0.2750 N.ar  116  HIS116     -0.2268
    167  CD2       33.8620   26.6070   -0.3930 C.ar  116  HIS116      0.1154
    168  CE1       32.0580   27.8540   -0.4800 C.ar  116  HIS116      0.1986
    169  NE2       33.3090   27.7590   -0.8980 N.ar  116  HIS116     -0.2212
    170  N         27.7360   21.4020    9.9200 N.3   120  TYR120     -0.1241
    171  CA        26.8310   21.9270   10.9330 C.3   120  TYR120      0.1605
    172  C         26.8560   21.1150   12.2190 C.2   120  TYR120      0.2264
    173  O         26.6880   19.9010   12.2120 O.2   120  TYR120     -0.2867
    174  CB        25.4390   22.0160   10.3160 C.3   120  TYR120      0.0534
    175  CG        25.4850   22.9000    9.0890 C.ar  120  TYR120     -0.0201
    176  CD1       25.2010   24.2650    9.1730 C.ar  120  TYR120     -0.0009
    177  CD2       25.9740   22.4010    7.8790 C.ar  120  TYR120     -0.0009
    178  CE1       25.4190   25.1130    8.0870 C.ar  120  TYR120      0.0417
    179  CE2       26.1970   23.2370    6.7940 C.ar  120  TYR120      0.0417
    180  CZ        25.9250   24.5880    6.9040 C.ar  120  TYR120      0.1957
    181  OH        26.2080   25.4110    5.8410 O.3   120  TYR120     -0.2866
@<TRIPOS>BOND
     1   169   168   ar
     2   169   167   ar
     3   168   166   ar
     4   167   165   ar
     5   166   165   ar
     6   165   164    1
     7   164   161    1
     8    33    32    2
     9    28    26    1
    10   145   146    1
    11   145   142    1
    12   147   146   ar
    13   147   149   ar
    14   146   148   ar
    15   161   160    1
    16   161   162    1
    17   149   151   ar
    18   148   150   ar
    19   151   150   ar
    20    37    35   ar
    21    41    40    2
    22    34    35    1
    23    34    31    1
    24   163   162    2
    25    32    38   am
    26    32    31    1
    27    39    40    1
    28    39    38    1
    29    29    27    1
    30    35    36   ar
    31    40    42   am
    32    21    19    1
    33   142   141    1
    34   142   143    1
    35    27    26    1
    36    26    23    1
    37    30    31    1
    38    30    24   am
    39    46    47    1
    40    46    43    1
    41   107   106    1
    42   107   108    1
    43   144   143    2
    44    49    47   ar
    45    49    51   ar
    46    47    48   ar
    47    23    24    1
    48    23    22    1
    49   106   103    1
    50    24    25    2
    51    51    52   ar
    52    42    43    1
    53    48    50   ar
    54   143   152   am
    55    52    50   ar
    56    43    44    1
    57    19    18    2
    58    19    20    1
    59    18    17    1
    60   108   102    1
    61   103   102    1
    62   103   104    1
    63   152   153    1
    64   159   157    1
    65   181   180    1
    66    16    17    1
    67    16    15    1
    68   105   104    2
    69   102    97   am
    70    44    53   am
    71    44    45    2
    72   157   156    1
    73   157   158    1
    74   153   156    1
    75   153   154    1
    76    53    54    1
    77    60    59    1
    78   179   180   ar
    79   179   177   ar
    80   180   178   ar
    81    15    12    1
    82    97    98    2
    83    97    96    1
    84     4     3    2
    85    12    13    1
    86    12    11    1
    87    56    55    2
    88   154   155    2
    89    13    14    2
    90    58    59    1
    91    58    57    1
    92   101    99    1
    93   177   175   ar
    94    93    92    1
    95    54    55    1
    96    54    57    1
    97   178   176   ar
    98    96    99    1
    99    96    95    1
   100    94    92    1
   101    87    86    2
   102     3    11   am
   103     3     2    1
   104    92    91    2
   105    99   100    1
   106    68    67    2
   107     8    10   ar
   108     8     6   ar
   109   175   176   ar
   110   175   174    1
   111    95    86   am
   112    86    85    1
   113    10     9   ar
   114    67    69   am
   115    67    66    1
   116     2     5    1
   117     2     1    1
   118   170   171    1
   119    91    90    1
   120     5     6    1
   121     6     7   ar
   122    89    90    1
   123    89    88    1
   124    65    66    1
   125    65    62    1
   126    77    76    2
   127   174   171    1
   128   138   140   ar
   129   138   136   ar
   130   140   139   ar
   131    84    85    1
   132    84    81   am
   133    61    62    1
   134    85    88    1
   135   136   135   ar
   136     9     7   ar
   137   114   113    1
   138   171   172    1
   139   139   137   ar
   140   135   137   ar
   141   135   134    1
   142    62    63    1
   143   128   127    2
   144    83    80    1
   145   134   131    1
   146    76    78   am
   147    76    75    1
   148    64    63    2
   149    80    81    1
   150    80    79    1
   151    81    82    2
   152   113   110    1
   153   129   127   am
   154   173   172    2
   155   127   126    1
   156    74    75    1
   157    74    71    1
   158    70    71    1
   159   131   132    1
   160   131   130    1
   161   109   110    1
   162   110   111    1
   163   132   133    2
   164    71    72    1
   165   126   125    1
   166   125   122    1
   167   111   112    2
   168    72    73    2
   169   124   123    2
   170   123   122    1
   171   122   121    1
   172   120   119    1
   173   115   116    1
   174   119   116    1
   175   116   117    1
   176   117   118    2
