@<TRIPOS>MOLECULE
tmp/3t24B02.pdb
 83 80 0 0 0
SMALL
GASTEIGER

@<TRIPOS>ATOM
      1  N         24.9110  -44.7450  -22.9970 N.3    32  PHE32      -0.1241
      2  CA        26.2560  -45.2620  -23.1620 C.3    32  PHE32       0.1605
      3  C         27.1340  -44.1090  -23.5730 C.2    32  PHE32       0.2264
      4  O         26.9240  -43.5270  -24.6370 O.2    32  PHE32      -0.2867
      5  CB        26.2780  -46.3430  -24.2350 C.3    32  PHE32       0.0534
      6  CG        27.6320  -46.9440  -24.4720 C.ar   32  PHE32      -0.0203
      7  CD1       28.0670  -48.0250  -23.7200 C.ar   32  PHE32      -0.0042
      8  CD2       28.4580  -46.4530  -25.4680 C.ar   32  PHE32      -0.0042
      9  CE1       29.3210  -48.6040  -23.9510 C.ar   32  PHE32      -0.0003
     10  CE2       29.7040  -47.0190  -25.7010 C.ar   32  PHE32      -0.0003
     11  CZ        30.1340  -48.0960  -24.9390 C.ar   32  PHE32      -0.0000
     12  N         30.8890  -42.6690  -24.3840 N.3    34  LEU34      -0.1245
     13  CA        32.2600  -42.9120  -24.7870 C.3    34  LEU34       0.1561
     14  C         33.0010  -41.5710  -24.7460 C.2    34  LEU34       0.2260
     15  O         32.6300  -40.6520  -25.4630 O.2    34  LEU34      -0.2867
     16  CB        32.2690  -43.5000  -26.1990 C.3    34  LEU34       0.0270
     17  CG        33.6050  -43.7720  -26.9010 C.3    34  LEU34       0.0019
     18  CD1       34.6760  -44.2620  -25.9360 C.3    34  LEU34       0.0001
     19  CD2       33.4110  -44.7680  -28.0460 C.3    34  LEU34       0.0001
     20  N         31.2210  -39.7960  -27.4950 N.3    53  GLY53      -0.1210
     21  CA        30.2290  -40.6330  -28.1300 C.3    53  GLY53       0.1956
     22  C         29.1270  -40.9430  -27.1470 C.2    53  GLY53       0.2612
     23  O         29.3500  -41.6150  -26.1390 O.2    53  GLY53      -0.2717
     24  N         27.9290  -40.4520  -27.4420 N.am   54  LEU54      -0.1965
     25  CA        26.8050  -40.5990  -26.5320 C.3    54  LEU54       0.1728
     26  C         25.6660  -41.3350  -27.2090 C.2    54  LEU54       0.2616
     27  O         25.1420  -40.8860  -28.2200 O.2    54  LEU54      -0.2715
     28  CB        26.3430  -39.2290  -26.0530 C.3    54  LEU54       0.0311
     29  CG        27.4850  -38.3760  -25.4800 C.3    54  LEU54       0.0022
     30  CD1       27.0700  -36.9190  -25.2840 C.3    54  LEU54       0.0001
     31  CD2       27.9990  -38.9840  -24.1830 C.3    54  LEU54       0.0001
     32  N         25.3070  -42.4860  -26.6540 N.am   55  LEU55      -0.1977
     33  CA        24.1780  -43.2660  -27.1460 C.3    55  LEU55       0.1596
     34  C         23.0920  -43.3390  -26.0830 C.2    55  LEU55       0.2287
     35  O         23.3760  -43.5220  -24.8980 O.2    55  LEU55      -0.2864
     36  CB        24.6290  -44.6800  -27.5100 C.3    55  LEU55       0.0297
     37  CG        24.9610  -44.9930  -28.9720 C.3    55  LEU55       0.0022
     38  CD1       24.9860  -43.7380  -29.7920 C.3    55  LEU55       0.0001
     39  CD2       26.2820  -45.7750  -29.1170 C.3    55  LEU55       0.0001
     40  N         15.3620  -43.2490  -29.9450 N.3    64  ASP64      -0.1225
     41  CA        16.8020  -43.4610  -29.9350 C.3    64  ASP64       0.1805
     42  C         17.5440  -42.2220  -30.3790 C.2    64  ASP64       0.2598
     43  O         17.3430  -41.7240  -31.4830 O.2    64  ASP64      -0.2718
     44  CB        17.1880  -44.6340  -30.8220 C.3    64  ASP64       0.1424
     45  CG        17.2110  -45.9330  -30.0670 C.2    64  ASP64       0.3668
     46  OD1       18.3070  -46.3490  -29.6200 O.co2  64  ASP64      -0.2456
     47  OD2       16.1230  -46.5200  -29.9090 O.co2  64  ASP64      -0.2456
     48  N         18.4130  -41.7240  -29.5160 N.am   65  TYR65      -0.1962
     49  CA        19.1420  -40.5220  -29.8390 C.3    65  TYR65       0.1771
     50  C         20.5940  -40.6220  -29.4050 C.2    65  TYR65       0.2620
     51  O         20.9780  -41.5420  -28.6910 O.2    65  TYR65      -0.2715
     52  CB        18.4670  -39.3200  -29.1890 C.3    65  TYR65       0.0574
     53  CG        18.4380  -39.3800  -27.6820 C.ar   65  TYR65      -0.0198
     54  CD1       19.2310  -38.5280  -26.9240 C.ar   65  TYR65      -0.0009
     55  CD2       17.6270  -40.2890  -27.0140 C.ar   65  TYR65      -0.0009
     56  CE1       19.2120  -38.5710  -25.5410 C.ar   65  TYR65       0.0417
     57  CE2       17.6030  -40.3410  -25.6260 C.ar   65  TYR65       0.0417
     58  CZ        18.3990  -39.4760  -24.8960 C.ar   65  TYR65       0.1957
     59  OH        18.3910  -39.5090  -23.5180 O.3    65  TYR65      -0.2866
     60  N         21.3990  -39.6650  -29.8480 N.am   66  GLY66      -0.1940
     61  CA        22.8120  -39.6500  -29.5200 C.3    66  GLY66       0.2014
     62  C         23.5640  -38.4700  -30.1130 C.2    66  GLY66       0.2639
     63  O         22.9960  -37.3960  -30.3150 O.2    66  GLY66      -0.2714
     64  N         24.8460  -38.6820  -30.3970 N.am   67  GLU67      -0.1963
     65  CA        25.7120  -37.6270  -30.8810 C.3    67  GLU67       0.1733
     66  C         27.1870  -38.0370  -30.7910 C.2    67  GLU67       0.2616
     67  O         27.6100  -38.6710  -29.8230 O.2    67  GLU67      -0.2715
     68  CB        25.4910  -36.3680  -30.0570 C.3    67  GLU67       0.0429
     69  CG        26.4820  -35.2680  -30.3560 C.3    67  GLU67       0.1163
     70  CD        26.5950  -34.2470  -29.2350 C.2    67  GLU67       0.3649
     71  OE1       25.7450  -34.2630  -28.3170 O.co2  67  GLU67      -0.2457
     72  OE2       27.5520  -33.4430  -29.2700 O.co2  67  GLU67      -0.2457
     73  N         27.9640  -37.6750  -31.8080 N.am   68  ALA68      -0.1977
     74  CA        29.4180  -37.7700  -31.7370 C.3    68  ALA68       0.1597
     75  C         29.9860  -36.3740  -31.8270 C.2    68  ALA68       0.2287
     76  O         29.6290  -35.6180  -32.7250 O.2    68  ALA68      -0.2864
     77  CB        29.9630  -38.6230  -32.8580 C.3    68  ALA68       0.0319
     78  N         19.0800  -35.2100  -30.7920 N.3   133  SER133     -0.1217
     79  CA        20.2180  -35.7740  -31.5050 C.3   133  SER133      0.1889
     80  C         20.9490  -34.7170  -32.3390 C.2   133  SER133      0.2288
     81  O         21.9930  -34.9900  -32.9350 O.2   133  SER133     -0.2866
     82  CB        19.7760  -36.9460  -32.3890 C.3   133  SER133      0.2089
     83  OG        20.7630  -37.4890  -33.1130 O.3   133  SER133     -0.2183
@<TRIPOS>BOND
     1    83    82    1
     2    81    80    2
     3    77    74    1
     4    76    75    2
     5    82    79    1
     6    80    79    1
     7    75    74    1
     8    73    74    1
     9    73    66   am
    10    79    78    1
    11    43    42    2
    12    65    66    1
    13    65    64    1
    14    65    68    1
    15    44    45    1
    16    44    41    1
    17    66    67    2
    18    64    62   am
    19    42    41    1
    20    42    48   am
    21    69    68    1
    22    69    70    1
    23    63    62    2
    24    62    61    1
    25    45    47   ar
    26    45    46   ar
    27    40    41    1
    28    60    61    1
    29    60    50   am
    30    49    48    1
    31    49    50    1
    32    49    52    1
    33    38    37    1
    34    50    51    2
    35    72    70   ar
    36    70    71   ar
    37    52    53    1
    38    39    37    1
    39    37    36    1
    40    27    26    2
    41    21    20    1
    42    21    22    1
    43    19    17    1
    44    53    55   ar
    45    53    54   ar
    46    36    33    1
    47    24    22   am
    48    24    25    1
    49    26    32   am
    50    26    25    1
    51    22    23    2
    52    33    32    1
    53    33    34    1
    54    55    57   ar
    55    54    56   ar
    56    17    16    1
    57    17    18    1
    58    25    28    1
    59    16    13    1
    60    34    35    2
    61    28    29    1
    62    10     8   ar
    63    10    11   ar
    64    57    58   ar
    65    56    58   ar
    66    29    30    1
    67    29    31    1
    68     8     6   ar
    69    15    14    2
    70    11     9   ar
    71    58    59    1
    72    13    14    1
    73    13    12    1
    74     4     3    2
    75     6     5    1
    76     6     7   ar
    77     5     2    1
    78     9     7   ar
    79     3     2    1
    80     2     1    1
