@<TRIPOS>MOLECULE
tmp/3t24A01.pdb
 84 83 0 0 0
SMALL
GASTEIGER

@<TRIPOS>ATOM
      1  N        -10.0900   24.7470  -37.3420 N.3   177  TRP177     -0.1227
      2  CA       -10.0730   26.1460  -37.7410 C.3   177  TRP177      0.1737
      3  C        -11.0070   26.3510  -38.9140 C.2   177  TRP177      0.2596
      4  O        -11.7070   27.3560  -39.0000 O.2   177  TRP177     -0.2718
      5  CB        -8.6550   26.5670  -38.1250 C.3   177  TRP177      0.0564
      6  CG        -7.6900   26.4200  -37.0060 C.ar  177  TRP177      0.0003
      7  CD1       -6.9620   25.3110  -36.6930 C.ar  177  TRP177      0.0946
      8  CD2       -7.3560   27.4110  -36.0340 C.ar  177  TRP177      0.0152
      9  NE1       -6.1860   25.5540  -35.5890 N.ar  177  TRP177     -0.2442
     10  CE2       -6.4100   26.8390  -35.1640 C.ar  177  TRP177      0.0810
     11  CE3       -7.7590   28.7320  -35.8180 C.ar  177  TRP177      0.0012
     12  CZ2       -5.8620   27.5350  -34.0960 C.ar  177  TRP177      0.0191
     13  CZ3       -7.2110   29.4260  -34.7620 C.ar  177  TRP177      0.0001
     14  CH2       -6.2720   28.8250  -33.9100 C.ar  177  TRP177      0.0015
     15  N        -10.9880   25.3940  -39.8340 N.am  178  THR178     -0.1953
     16  CA       -11.9310   25.3660  -40.9400 C.3   178  THR178      0.1897
     17  C        -12.2590   23.9050  -41.0960 C.2   178  THR178      0.2313
     18  O        -11.6580   23.0710  -40.4220 O.2   178  THR178     -0.2863
     19  CB       -11.3020   25.8410  -42.2540 C.3   178  THR178      0.1794
     20  OG1      -10.4120   24.8280  -42.7460 O.3   178  THR178     -0.2208
     21  CG2      -10.5420   27.1460  -42.0530 C.3   178  THR178      0.0378
     22  N        -11.2870   22.1510  -43.1670 N.3   180  ASN180     -0.1225
     23  CA       -10.1280   21.5510  -43.8300 C.3   180  ASN180      0.1785
     24  C         -8.8230   21.5860  -43.0300 C.2   180  ASN180      0.2597
     25  O         -7.8610   20.9210  -43.3900 O.2   180  ASN180     -0.2718
     26  CB        -9.9000   22.2030  -45.1920 C.3   180  ASN180      0.1169
     27  CG       -10.7670   21.6020  -46.2710 C.2   180  ASN180      0.2627
     28  OD1      -10.8420   20.3790  -46.4140 O.2   180  ASN180     -0.2716
     29  ND2      -11.4440   22.4580  -47.0290 N.am  180  ASN180     -0.0877
     30  N         -8.7920   22.3680  -41.9570 N.am  181  LEU181     -0.1980
     31  CA        -7.5770   22.5640  -41.1760 C.3   181  LEU181      0.1596
     32  C         -7.7940   22.4210  -39.6770 C.2   181  LEU181      0.2287
     33  O         -8.5060   23.2080  -39.0590 O.2   181  LEU181     -0.2864
     34  CB        -6.9900   23.9510  -41.4420 C.3   181  LEU181      0.0297
     35  CG        -5.8210   24.3310  -40.5290 C.3   181  LEU181      0.0022
     36  CD1       -4.5960   23.5000  -40.8850 C.3   181  LEU181      0.0001
     37  CD2       -5.5170   25.8200  -40.6320 C.3   181  LEU181      0.0001
     38  N         -5.6480   21.7570  -35.8330 N.3   183  THR183     -0.1218
     39  CA        -4.4110   21.5590  -35.1020 C.3   183  THR183      0.1862
     40  C         -4.7430   20.9260  -33.7630 C.2   183  THR183      0.2287
     41  O         -5.8800   21.0190  -33.2780 O.2   183  THR183     -0.2866
     42  CB        -3.6460   22.8750  -34.8890 C.3   183  THR183      0.1770
     43  OG1       -4.3290   23.6960  -33.9270 O.3   183  THR183     -0.2211
     44  CG2       -3.5250   23.6190  -36.1990 C.3   183  THR183      0.0375
     45  N         -0.9500   19.0690  -36.8350 N.3   201  LEU201     -0.1245
     46  CA        -1.5470   19.9770  -37.7980 C.3   201  LEU201      0.1561
     47  C         -1.9730   19.0750  -38.9340 C.2   201  LEU201      0.2260
     48  O         -1.1500   18.3880  -39.5210 O.2   201  LEU201     -0.2867
     49  CB        -0.5060   20.9990  -38.2730 C.3   201  LEU201      0.0270
     50  CG        -0.6720   21.9940  -39.4400 C.3   201  LEU201      0.0019
     51  CD1       -1.3220   21.3710  -40.6940 C.3   201  LEU201      0.0001
     52  CD2       -1.4050   23.2750  -39.0150 C.3   201  LEU201      0.0001
     53  N         -4.0530   19.1060  -42.5850 N.3   203  HIS203     -0.1226
     54  CA        -4.6650   19.9480  -43.6020 C.3   203  HIS203      0.1752
     55  C         -5.0720   19.1100  -44.8060 C.2   203  HIS203      0.2597
     56  O         -4.2500   18.4000  -45.3880 O.2   203  HIS203     -0.2718
     57  CB        -3.6950   21.0540  -44.0220 C.3   203  HIS203      0.0759
     58  CG        -4.2910   22.0660  -44.9520 C.ar  203  HIS203      0.0818
     59  ND1       -5.3220   22.9030  -44.5810 N.ar  203  HIS203     -0.2268
     60  CD2       -3.9970   22.3770  -46.2360 C.ar  203  HIS203      0.1154
     61  CE1       -5.6380   23.6850  -45.5960 C.ar  203  HIS203      0.1986
     62  NE2       -4.8490   23.3860  -46.6140 N.ar  203  HIS203     -0.2212
     63  N         -6.3490   19.1710  -45.1620 N.am  204  THR204     -0.1939
     64  CA        -6.8160   18.5030  -46.3670 C.3   204  THR204      0.2028
     65  C         -7.1380   19.5670  -47.4030 C.2   204  THR204      0.2642
     66  O         -7.8400   20.5320  -47.1140 O.2   204  THR204     -0.2714
     67  CB        -8.0370   17.6070  -46.1080 C.3   204  THR204      0.1808
     68  OG1       -7.6650   16.5230  -45.2440 O.3   204  THR204     -0.2208
     69  CG2       -8.5510   17.0320  -47.4150 C.3   204  THR204      0.0379
     70  N         -6.5930   19.3940  -48.6020 N.am  205  LEU205     -0.1963
     71  CA        -6.6860   20.4010  -49.6440 C.3   205  LEU205      0.1713
     72  C         -7.2740   19.7990  -50.9090 C.2   205  LEU205      0.2458
     73  O         -6.5890   19.0830  -51.6360 O.2   205  LEU205     -0.2730
     74  CB        -5.3010   20.9920  -49.9380 C.3   205  LEU205      0.0310
     75  CG        -5.2320   22.0980  -50.9970 C.3   205  LEU205      0.0022
     76  CD1       -6.3450   23.1110  -50.7900 C.3   205  LEU205      0.0001
     77  CD2       -3.8770   22.7840  -50.9750 C.3   205  LEU205      0.0001
     78  N         -8.5550   20.0920  -51.1780 N.am  206  PRO206     -0.2727
     79  CA        -9.2050   19.5700  -52.3800 C.3   206  PRO206      0.1402
     80  C         -8.7870   20.3810  -53.5920 C.2   206  PRO206      0.2269
     81  O         -9.1120   21.5620  -53.6630 O.2   206  PRO206     -0.2865
     82  CB       -10.6870   19.7890  -52.0880 C.3   206  PRO206      0.0296
     83  CG       -10.7070   21.0080  -51.2270 C.3   206  PRO206      0.0237
     84  CD        -9.4510   20.9630  -50.3950 C.3   206  PRO206      0.0939
@<TRIPOS>BOND
     1    81    80    2
     2    80    79    1
     3    79    82    1
     4    79    78    1
     5    82    83    1
     6    73    72    2
     7    83    84    1
     8    78    72   am
     9    78    84    1
    10    75    77    1
    11    75    76    1
    12    75    74    1
    13    72    71    1
    14    74    71    1
    15    71    70    1
    16    70    65   am
    17    69    67    1
    18    65    66    2
    19    65    64    1
    20    29    27   am
    21    62    60   ar
    22    62    61   ar
    23    28    27    2
    24    64    67    1
    25    64    63    1
    26    27    26    1
    27    60    58   ar
    28    67    68    1
    29    61    59   ar
    30    56    55    2
    31    26    23    1
    32    63    55   am
    33    58    59   ar
    34    58    57    1
    35    55    54    1
    36    57    54    1
    37    23    22    1
    38    23    24    1
    39    54    53    1
    40    25    24    2
    41    24    30   am
    42    20    19    1
    43    19    21    1
    44    19    16    1
    45    30    31    1
    46    34    31    1
    47    34    35    1
    48    31    32    1
    49    17    16    1
    50    17    18    2
    51    16    15    1
    52    36    35    1
    53    51    50    1
    54    37    35    1
    55    15     3   am
    56    32    33    2
    57    48    47    2
    58    50    52    1
    59    50    49    1
    60     4     3    2
    61    47    46    1
    62     3     2    1
    63    49    46    1
    64     5     2    1
    65     5     6    1
    66    46    45    1
    67     2     1    1
    68     6     7   ar
    69     6     8   ar
    70     7     9   ar
    71    44    42    1
    72     8    11   ar
    73     8    10   ar
    74    38    39    1
    75    11    13   ar
    76     9    10   ar
    77    10    12   ar
    78    39    42    1
    79    39    40    1
    80    42    43    1
    81    13    14   ar
    82    12    14   ar
    83    40    41    2
