@<TRIPOS>MOLECULE
tmp/3t24C01.pdb
 106 104 0 0 0
SMALL
GASTEIGER

@<TRIPOS>ATOM
      1  N         22.8560   -3.1600    0.3370 N.3   118  LEU118     -0.1245
      2  CA        24.1420   -3.7110    0.7850 C.3   118  LEU118      0.1561
      3  C         25.2690   -2.6620    0.8160 C.2   118  LEU118      0.2260
      4  O         25.7160   -2.1780   -0.2250 O.2   118  LEU118     -0.2867
      5  CB        24.5670   -4.9090   -0.0680 C.3   118  LEU118      0.0270
      6  CG        25.8170   -5.6350    0.4460 C.3   118  LEU118      0.0019
      7  CD1       25.5570   -6.3340    1.7660 C.3   118  LEU118      0.0001
      8  CD2       26.3470   -6.6300   -0.5550 C.3   118  LEU118      0.0001
      9  N         29.0550   -1.9000    1.6250 N.3   120  LEU120     -0.1231
     10  CA        30.3470   -2.5530    1.7780 C.3   120  LEU120      0.1693
     11  C         31.4570   -1.5290    2.0660 C.2   120  LEU120      0.2592
     12  O         31.4050   -0.3750    1.6120 O.2   120  LEU120     -0.2718
     13  CB        30.6910   -3.3510    0.5180 C.3   120  LEU120      0.0284
     14  CG        29.7710   -4.4900    0.0800 C.3   120  LEU120      0.0019
     15  CD1       30.2150   -5.0170   -1.2910 C.3   120  LEU120      0.0001
     16  CD2       29.7480   -5.6100    1.1040 C.3   120  LEU120      0.0001
     17  N         32.4680   -1.9580    2.8120 N.am  121  ASP121     -0.1974
     18  CA        33.5990   -1.0990    3.1220 C.3   121  ASP121      0.1709
     19  C         34.8570   -1.9460    3.1290 C.2   121  ASP121      0.2293
     20  O         34.7970   -3.1660    3.2920 O.2   121  ASP121     -0.2864
     21  CB        33.4310   -0.4500    4.4900 C.3   121  ASP121      0.1436
     22  CG        33.7700   -1.4010    5.6230 C.2   121  ASP121      0.3671
     23  OD1       34.9740   -1.5360    5.9530 O.co2 121  ASP121     -0.2456
     24  OD2       32.8350   -2.0260    6.1730 O.co2 121  ASP121     -0.2456
     25  N         37.3960   -4.7800    6.3610 N.3   163  ALA163     -0.1231
     26  CA        36.4870   -5.0840    5.2730 C.3   163  ALA163      0.1694
     27  C         35.2470   -5.5470    5.9770 C.2   163  ALA163      0.2593
     28  O         35.3160   -6.3140    6.9420 O.2   163  ALA163     -0.2718
     29  CB        37.0410   -6.1790    4.3660 C.3   163  ALA163      0.0304
     30  N         34.1070   -5.0510    5.5370 N.am  164  GLY164     -0.1942
     31  CA        32.9050   -5.3020    6.2850 C.3   164  GLY164      0.2014
     32  C         31.7360   -5.0250    5.3970 C.2   164  GLY164      0.2639
     33  O         31.9000   -4.6470    4.2350 O.2   164  GLY164     -0.2714
     34  N         30.5480   -5.2110    5.9470 N.am  165  GLY165     -0.1939
     35  CA        29.3510   -4.9170    5.2030 C.3   165  GLY165      0.2014
     36  C         28.1510   -4.9360    6.1050 C.2   165  GLY165      0.2640
     37  O         28.1780   -5.4970    7.1960 O.2   165  GLY165     -0.2714
     38  N         27.0840   -4.3270    5.6260 N.am  166  SER166     -0.1935
     39  CA        25.8480   -4.2590    6.3620 C.3   166  SER166      0.2055
     40  C         24.7430   -4.5180    5.3470 C.2   166  SER166      0.2643
     41  O         24.7630   -3.9570    4.2450 O.2   166  SER166     -0.2714
     42  CB        25.7180   -2.8750    6.9940 C.3   166  SER166      0.2130
     43  OG        24.5370   -2.7660    7.7570 O.3   166  SER166     -0.2179
     44  N         23.8020   -5.3940    5.6980 N.am  167  TYR167     -0.1973
     45  CA        22.6870   -5.7030    4.8030 C.3   167  TYR167      0.1639
     46  C         21.3320   -5.4110    5.4450 C.2   167  TYR167      0.2290
     47  O         21.0210   -5.9030    6.5300 O.2   167  TYR167     -0.2864
     48  CB        22.7410   -7.1560    4.3240 C.3   167  TYR167      0.0560
     49  CG        21.7800   -7.4460    3.1840 C.ar  167  TYR167     -0.0198
     50  CD1       21.8980   -6.7790    1.9670 C.ar  167  TYR167     -0.0009
     51  CD2       20.7580   -8.3800    3.3220 C.ar  167  TYR167     -0.0009
     52  CE1       21.0300   -7.0270    0.9280 C.ar  167  TYR167      0.0417
     53  CE2       19.8850   -8.6410    2.2780 C.ar  167  TYR167      0.0417
     54  CZ        20.0250   -7.9610    1.0840 C.ar  167  TYR167      0.1957
     55  OH        19.1680   -8.2030    0.0440 O.3   167  TYR167     -0.2866
     56  N         17.8460   -6.3420    5.6180 N.3   169  TRP169     -0.1241
     57  CA        16.8740   -7.3770    5.2560 C.3   169  TRP169      0.1605
     58  C         15.4640   -6.7900    5.1300 C.2   169  TRP169      0.2264
     59  O         14.6740   -7.2470    4.3050 O.2   169  TRP169     -0.2867
     60  CB        16.9120   -8.5580    6.2270 C.3   169  TRP169      0.0550
     61  CG        18.2830   -9.1680    6.3990 C.ar  169  TRP169      0.0003
     62  CD1       19.2320   -8.7970    7.3080 C.ar  169  TRP169      0.0946
     63  CD2       18.8480  -10.2600    5.6570 C.ar  169  TRP169      0.0152
     64  NE1       20.3500   -9.5880    7.1800 N.ar  169  TRP169     -0.2442
     65  CE2       20.1440  -10.4880    6.1700 C.ar  169  TRP169      0.0810
     66  CE3       18.3870  -11.0640    4.6090 C.ar  169  TRP169      0.0012
     67  CZ2       20.9840  -11.4840    5.6710 C.ar  169  TRP169      0.0191
     68  CZ3       19.2260  -12.0540    4.1120 C.ar  169  TRP169      0.0001
     69  CH2       20.5090  -12.2560    4.6440 C.ar  169  TRP169      0.0015
     70  N         21.7190   -6.5370    9.3110 N.3   175  THR175     -0.1203
     71  CA        22.8320   -7.2060    9.9630 C.3   175  THR175      0.1994
     72  C         24.1680   -6.8020    9.3250 C.2   175  THR175      0.2619
     73  O         24.2330   -6.3140    8.1860 O.2   175  THR175     -0.2717
     74  CB        22.6950   -8.7210    9.8810 C.3   175  THR175      0.1784
     75  OG1       22.4960   -9.0990    8.5130 O.3   175  THR175     -0.2211
     76  CG2       21.5120   -9.1970   10.7270 C.3   175  THR175      0.0376
     77  N         25.2380   -7.0270   10.0700 N.am  176  SER176     -0.1937
     78  CA        26.5450   -6.5850    9.6490 C.3   176  SER176      0.2055
     79  C         27.5760   -7.6110   10.0420 C.2   176  SER176      0.2643
     80  O         27.4210   -8.3310   11.0290 O.2   176  SER176     -0.2714
     81  CB        26.8960   -5.2460   10.3000 C.3   176  SER176      0.2130
     82  OG        26.9100   -5.3770   11.7180 O.3   176  SER176     -0.2179
     83  N         28.6240   -7.6680    9.2340 N.am  177  TYR177     -0.1973
     84  CA        29.8260   -8.4070    9.5460 C.3   177  TYR177      0.1639
     85  C         31.0320   -7.5400    9.1880 C.2   177  TYR177      0.2290
     86  O         31.1620   -7.0500    8.0630 O.2   177  TYR177     -0.2864
     87  CB        29.8970   -9.7190    8.7670 C.3   177  TYR177      0.0560
     88  CG        31.2570  -10.3360    8.9070 C.ar  177  TYR177     -0.0198
     89  CD1       31.5830  -11.0810   10.0300 C.ar  177  TYR177     -0.0009
     90  CD2       32.2420  -10.1170    7.9530 C.ar  177  TYR177     -0.0009
     91  CE1       32.8440  -11.6280   10.1860 C.ar  177  TYR177      0.0417
     92  CE2       33.5110  -10.6570    8.0990 C.ar  177  TYR177      0.0417
     93  CZ        33.8040  -11.4140    9.2180 C.ar  177  TYR177      0.1957
     94  OH        35.0580  -11.9580    9.3750 O.3   177  TYR177     -0.2866
     95  N         30.1670   -9.0550   14.5660 N.3   191  LEU191     -0.1231
     96  CA        28.8080   -9.2470   14.0760 C.3   191  LEU191      0.1693
     97  C         27.8140   -8.3840   14.8530 C.2   191  LEU191      0.2592
     98  O         27.9250   -8.2120   16.0660 O.2   191  LEU191     -0.2718
     99  CB        28.3910  -10.7200   14.1540 C.3   191  LEU191      0.0284
    100  CG        29.0760  -11.7520   13.2560 C.3   191  LEU191      0.0019
    101  CD1       28.6780  -13.1670   13.6870 C.3   191  LEU191      0.0001
    102  CD2       28.7400  -11.5240   11.7770 C.3   191  LEU191      0.0001
    103  N         26.8340   -7.8530   14.1400 N.am  192  GLY192     -0.1957
    104  CA        25.7660   -7.1160   14.7730 C.3   192  GLY192      0.1869
    105  C         24.4330   -7.3620   14.0910 C.2   192  GLY192      0.2309
    106  O         24.3660   -7.8500   12.9540 O.2   192  GLY192     -0.2863
@<TRIPOS>BOND
     1    15    14    1
     2     8     6    1
     3     4     3    2
     4     5     6    1
     5     5     2    1
     6    55    54    1
     7    14    13    1
     8    14    16    1
     9     1     2    1
    10     6     7    1
    11    13    10    1
    12     2     3    1
    13    52    54   ar
    14    52    50   ar
    15    54    53   ar
    16    12    11    2
    17     9    10    1
    18    10    11    1
    19    50    49   ar
    20    11    17   am
    21    53    51   ar
    22    17    18    1
    23    18    19    1
    24    18    21    1
    25    19    20    2
    26    49    51   ar
    27    49    48    1
    28    68    66   ar
    29    68    69   ar
    30    33    32    2
    31    41    40    2
    32    59    58    2
    33    48    45    1
    34    29    26    1
    35    21    22    1
    36    66    63   ar
    37    69    67   ar
    38    45    46    1
    39    45    44    1
    40    58    57    1
    41    35    34    1
    42    35    36    1
    43    57    56    1
    44    57    60    1
    45    26    27    1
    46    26    25    1
    47    40    44   am
    48    40    39    1
    49    32    34   am
    50    32    31    1
    51    46    47    2
    52    30    27   am
    53    30    31    1
    54    22    23   ar
    55    22    24   ar
    56    38    36   am
    57    38    39    1
    58    63    65   ar
    59    63    61   ar
    60    67    65   ar
    61    27    28    2
    62    36    37    2
    63    65    64   ar
    64    60    61    1
    65    39    42    1
    66    61    62   ar
    67    42    43    1
    68    64    62   ar
    69    90    92   ar
    70    90    88   ar
    71    86    85    2
    72    92    93   ar
    73    73    72    2
    74    75    74    1
    75    87    88    1
    76    87    84    1
    77    88    89   ar
    78    85    84    1
    79    93    94    1
    80    93    91   ar
    81    83    84    1
    82    83    79   am
    83    70    71    1
    84    72    71    1
    85    72    77   am
    86    78    79    1
    87    78    77    1
    88    78    81    1
    89    74    71    1
    90    74    76    1
    91    89    91   ar
    92    79    80    2
    93    81    82    1
    94   102   100    1
    95   106   105    2
    96   100   101    1
    97   100    99    1
    98    96    99    1
    99    96    95    1
   100    96    97    1
   101   105   104    1
   102   103   104    1
   103   103    97   am
   104    97    98    2
