@<TRIPOS>MOLECULE
tmp/3t24B00.pdb
 133 129 0 0 0
SMALL
GASTEIGER

@<TRIPOS>ATOM
      1  N         38.9320  -20.4850  -25.1020 N.3   110  LEU110     -0.1245
      2  CA        40.3140  -20.3220  -24.7130 C.3   110  LEU110      0.1561
      3  C         40.4040  -20.3730  -23.2040 C.2   110  LEU110      0.2260
      4  O         39.6820  -19.6590  -22.5160 O.2   110  LEU110     -0.2867
      5  CB        40.8250  -18.9750  -25.2120 C.3   110  LEU110      0.0270
      6  CG        42.1660  -18.4640  -24.6970 C.3   110  LEU110      0.0019
      7  CD1       43.3120  -19.3950  -25.1230 C.3   110  LEU110      0.0001
      8  CD2       42.3850  -17.0590  -25.2270 C.3   110  LEU110      0.0001
      9  N         43.2950  -19.8920  -20.1070 N.3   112  SER112     -0.1217
     10  CA        44.6160  -19.3280  -19.9210 C.3   112  SER112      0.1889
     11  C         44.9180  -19.2120  -18.4380 C.2   112  SER112      0.2288
     12  O         44.1390  -18.6430  -17.6820 O.2   112  SER112     -0.2866
     13  CB        44.7220  -17.9620  -20.6030 C.3   112  SER112      0.2089
     14  OG        46.0810  -17.5870  -20.8250 O.3   112  SER112     -0.2183
     15  N         45.6440  -16.9180  -11.5380 N.3   118  LEU118     -0.1245
     16  CA        44.6640  -16.2820  -12.4120 C.3   118  LEU118      0.1561
     17  C         44.2790  -17.2250  -13.5480 C.2   118  LEU118      0.2260
     18  O         45.1110  -17.6300  -14.3570 O.2   118  LEU118     -0.2867
     19  CB        45.1730  -14.9410  -12.9740 C.3   118  LEU118      0.0270
     20  CG        44.1470  -14.0960  -13.7610 C.3   118  LEU118      0.0019
     21  CD1       42.9930  -13.6830  -12.8810 C.3   118  LEU118      0.0001
     22  CD2       44.7880  -12.8530  -14.3310 C.3   118  LEU118      0.0001
     23  N         41.8710  -17.4450  -16.7710 N.3   120  LEU120     -0.1231
     24  CA        41.0920  -16.6400  -17.6930 C.3   120  LEU120      0.1693
     25  C         40.4360  -17.5690  -18.7000 C.2   120  LEU120      0.2592
     26  O         40.9830  -18.6050  -19.0420 O.2   120  LEU120     -0.2718
     27  CB        41.9760  -15.6160  -18.3970 C.3   120  LEU120      0.0284
     28  CG        42.6060  -14.5880  -17.4540 C.3   120  LEU120      0.0019
     29  CD1       43.6760  -13.7630  -18.1510 C.3   120  LEU120      0.0001
     30  CD2       41.5160  -13.6890  -16.8730 C.3   120  LEU120      0.0001
     31  N         39.2420  -17.2080  -19.1440 N.am  121  ASP121     -0.1960
     32  CA        38.5640  -17.9590  -20.1870 C.3   121  ASP121      0.1840
     33  C         37.8780  -16.9800  -21.1260 C.2   121  ASP121      0.2621
     34  O         37.5550  -15.8460  -20.7460 O.2   121  ASP121     -0.2715
     35  CB        37.5040  -18.8390  -19.5710 C.3   121  ASP121      0.1450
     36  CG        36.4400  -18.0230  -18.8900 C.2   121  ASP121      0.3671
     37  OD1       35.6340  -17.3890  -19.6060 O.co2 121  ASP121     -0.2456
     38  OD2       36.4310  -17.9860  -17.6410 O.co2 121  ASP121     -0.2456
     39  N         37.6570  -17.4220  -22.3550 N.am  122  ALA122     -0.1977
     40  CA        36.8930  -16.6310  -23.3010 C.3   122  ALA122      0.1597
     41  C         36.4500  -17.5200  -24.4450 C.2   122  ALA122      0.2287
     42  O         37.0890  -18.5260  -24.7460 O.2   122  ALA122     -0.2864
     43  CB        37.7140  -15.4360  -23.8190 C.3   122  ALA122      0.0319
     44  N         33.4890  -14.2790  -21.4420 N.3   162  ALA162     -0.1231
     45  CA        34.8270  -13.9150  -21.0370 C.3   162  ALA162      0.1694
     46  C         34.8240  -13.6350  -19.5500 C.2   162  ALA162      0.2593
     47  O         33.8640  -13.0740  -19.0000 O.2   162  ALA162     -0.2718
     48  CB        35.2890  -12.6920  -21.7960 C.3   162  ALA162      0.0304
     49  N         35.9000  -14.0280  -18.8960 N.am  163  GLY163     -0.1942
     50  CA        36.0560  -13.7310  -17.4960 C.3   163  GLY163      0.2014
     51  C         37.2880  -14.3550  -16.8870 C.2   163  GLY163      0.2639
     52  O         38.1940  -14.8380  -17.5780 O.2   163  GLY163     -0.2714
     53  N         37.3080  -14.3510  -15.5670 N.am  164  GLY164     -0.1939
     54  CA        38.4710  -14.7760  -14.8460 C.3   164  GLY164      0.2014
     55  C         38.1270  -15.0440  -13.4050 C.2   164  GLY164      0.2640
     56  O         37.1690  -14.4980  -12.8620 O.2   164  GLY164     -0.2714
     57  N         38.9250  -15.9030  -12.7970 N.am  165  SER165     -0.1935
     58  CA        38.8220  -16.1930  -11.3880 C.3   165  SER165      0.2055
     59  C         40.2240  -16.0190  -10.7940 C.2   165  SER165      0.2643
     60  O         41.2170  -16.4060  -11.4020 O.2   165  SER165     -0.2714
     61  CB        38.3190  -17.6140  -11.1930 C.3   165  SER165      0.2130
     62  OG        38.2240  -17.9010   -9.8190 O.3   165  SER165     -0.2179
     63  N         40.3040  -15.4000   -9.6230 N.am  166  TYR166     -0.1973
     64  CA        41.5950  -15.1760   -8.9920 C.3   166  TYR166      0.1639
     65  C         41.6610  -15.7340   -7.5670 C.2   166  TYR166      0.2290
     66  O         40.7950  -15.4620   -6.7390 O.2   166  TYR166     -0.2864
     67  CB        41.9520  -13.6900   -9.0140 C.3   166  TYR166      0.0560
     68  CG        43.3540  -13.4440   -8.5460 C.ar  166  TYR166     -0.0198
     69  CD1       44.4340  -13.8610   -9.3060 C.ar  166  TYR166     -0.0009
     70  CD2       43.6040  -12.8200   -7.3300 C.ar  166  TYR166     -0.0009
     71  CE1       45.7320  -13.6590   -8.8790 C.ar  166  TYR166      0.0417
     72  CE2       44.9030  -12.6050   -6.8970 C.ar  166  TYR166      0.0417
     73  CZ        45.9640  -13.0300   -7.6760 C.ar  166  TYR166      0.1957
     74  OH        47.2630  -12.8250   -7.2510 O.3   166  TYR166     -0.2866
     75  N         43.1190  -15.2440   -4.3280 N.3   168  TRP168     -0.1241
     76  CA        43.8400  -14.3050   -3.4740 C.3   168  TRP168      0.1605
     77  C         44.6870  -15.0720   -2.4770 C.2   168  TRP168      0.2264
     78  O         45.8250  -14.7020   -2.1770 O.2   168  TRP168     -0.2867
     79  CB        42.8690  -13.3740   -2.7510 C.3   168  TRP168      0.0550
     80  CG        42.1130  -12.5110   -3.7130 C.ar  168  TRP168      0.0003
     81  CD1       40.8860  -12.7630   -4.2510 C.ar  168  TRP168      0.0946
     82  CD2       42.5560  -11.2740   -4.2830 C.ar  168  TRP168      0.0152
     83  NE1       40.5320  -11.7550   -5.1130 N.ar  168  TRP168     -0.2442
     84  CE2       41.5400  -10.8280   -5.1500 C.ar  168  TRP168      0.0810
     85  CE3       43.7150  -10.5010   -4.1420 C.ar  168  TRP168      0.0012
     86  CZ2       41.6410   -9.6390   -5.8710 C.ar  168  TRP168      0.0191
     87  CZ3       43.8140   -9.3180   -4.8570 C.ar  168  TRP168      0.0001
     88  CH2       42.7820   -8.8990   -5.7100 C.ar  168  TRP168      0.0015
     89  N         37.8780  -14.6850   -5.8900 N.3   174  THR174     -0.1203
     90  CA        36.8240  -13.8430   -6.4340 C.3   174  THR174      0.1994
     91  C         36.7850  -14.0560   -7.9350 C.2   174  THR174      0.2619
     92  O         37.7940  -14.4120   -8.5570 O.2   174  THR174     -0.2717
     93  CB        37.0490  -12.3500   -6.1160 C.3   174  THR174      0.1784
     94  OG1       38.2890  -11.9110   -6.6890 O.3   174  THR174     -0.2211
     95  CG2       37.1000  -12.1250   -4.6090 C.3   174  THR174      0.0376
     96  N         35.6220  -13.8500   -8.5310 N.am  175  SER175     -0.1937
     97  CA        35.5160  -14.0420   -9.9610 C.3   175  SER175      0.2055
     98  C         34.6680  -12.9830  -10.6500 C.2   175  SER175      0.2643
     99  O         33.8170  -12.3260  -10.0460 O.2   175  SER175     -0.2714
    100  CB        35.0050  -15.4480  -10.2940 C.3   175  SER175      0.2130
    101  OG        33.7170  -15.6930   -9.7610 O.3   175  SER175     -0.2179
    102  N         34.9400  -12.8080  -11.9310 N.am  176  TYR176     -0.1973
    103  CA        34.1750  -11.9060  -12.7370 C.3   176  TYR176      0.1639
    104  C         33.9720  -12.5760  -14.0740 C.2   176  TYR176      0.2290
    105  O         34.9250  -13.0290  -14.7140 O.2   176  TYR176     -0.2864
    106  CB        34.8920  -10.5550  -12.9170 C.3   176  TYR176      0.0560
    107  CG        34.1980   -9.7130  -13.9560 C.ar  176  TYR176     -0.0198
    108  CD1       33.1810   -8.8420  -13.6050 C.ar  176  TYR176     -0.0009
    109  CD2       34.5170   -9.8450  -15.3040 C.ar  176  TYR176     -0.0009
    110  CE1       32.5180   -8.0990  -14.5640 C.ar  176  TYR176      0.0417
    111  CE2       33.8650   -9.1110  -16.2690 C.ar  176  TYR176      0.0417
    112  CZ        32.8640   -8.2400  -15.8960 C.ar  176  TYR176      0.1957
    113  OH        32.2190   -7.5110  -16.8640 O.3   176  TYR176     -0.2866
    114  N         29.4410  -11.6270  -10.7090 N.3   190  LEU190     -0.1231
    115  CA        30.5320  -11.4770   -9.7380 C.3   190  LEU190      0.1693
    116  C         30.4500  -12.5720   -8.6800 C.2   190  LEU190      0.2593
    117  O         29.3630  -12.9680   -8.2670 O.2   190  LEU190     -0.2718
    118  CB        30.5120  -10.0930   -9.0720 C.3   190  LEU190      0.0284
    119  CG        31.0810   -8.8950   -9.8370 C.3   190  LEU190      0.0019
    120  CD1       30.6270   -8.8620  -11.2830 C.3   190  LEU190      0.0001
    121  CD2       30.6780   -7.6230   -9.1510 C.3   190  LEU190      0.0001
    122  N         31.6000  -13.0680   -8.2460 N.am  191  GLY191     -0.1942
    123  CA        31.6210  -14.1310   -7.2650 C.3   191  GLY191      0.2014
    124  C         32.7160  -13.9430   -6.2400 C.2   191  GLY191      0.2638
    125  O         33.8080  -13.4810   -6.5620 O.2   191  GLY191     -0.2714
    126  N         32.4180  -14.2810   -4.9940 N.am  192  LEU192     -0.1977
    127  CA        33.4460  -14.3470   -3.9710 C.3   192  LEU192      0.1596
    128  C         33.2360  -15.6070   -3.1530 C.2   192  LEU192      0.2287
    129  O         32.1560  -15.8400   -2.6250 O.2   192  LEU192     -0.2864
    130  CB        33.4430  -13.1040   -3.0820 C.3   192  LEU192      0.0297
    131  CG        34.4470  -13.1380   -1.9360 C.3   192  LEU192      0.0022
    132  CD1       34.7590  -11.7320   -1.4600 C.3   192  LEU192      0.0001
    133  CD2       33.9320  -13.9900   -0.7760 C.3   192  LEU192      0.0001
@<TRIPOS>BOND
     1     8     6    1
     2     5     2    1
     3     5     6    1
     4     7     6    1
     5     1     2    1
     6    42    41    2
     7     2     3    1
     8    41    40    1
     9    43    40    1
    10    40    39    1
    11     3     4    2
    12    39    33   am
    13    48    45    1
    14    44    45    1
    15    33    34    2
    16    33    32    1
    17    45    46    1
    18    14    13    1
    19    13    10    1
    20    32    35    1
    21    32    31    1
    22     9    10    1
    23    10    11    1
    24    37    36   ar
    25    35    36    1
    26    46    47    2
    27    46    49   am
    28    31    25   am
    29    26    25    2
    30    49    50    1
    31    36    38   ar
    32    25    24    1
    33    11    12    2
    34    27    24    1
    35    27    28    1
    36    29    28    1
    37    24    23    1
    38    52    51    2
    39    50    51    1
    40    28    30    1
    41    51    53   am
    42   113   112    1
    43   111   112   ar
    44   111   109   ar
    45   112   110   ar
    46    53    54    1
    47   109   107   ar
    48    54    55    1
    49   105   104    2
    50   110   108   ar
    51    18    17    2
    52    22    20    1
    53   104   103    1
    54   107   108   ar
    55   107   106    1
    56    20    19    1
    57    20    21    1
    58    17    16    1
    59    55    56    2
    60    55    57   am
    61    19    16    1
    62   106   103    1
    63    57    58    1
    64   103   102    1
    65    16    15    1
    66   102    98   am
    67    60    59    2
    68    58    61    1
    69    58    59    1
    70   120   119    1
    71    61    62    1
    72    59    63   am
    73   114   115    1
    74    98    99    2
    75    98    97    1
    76   100    97    1
    77   100   101    1
    78    97    96    1
    79   119   121    1
    80   119   118    1
    81   115   118    1
    82   115   116    1
    83    63    64    1
    84    69    71   ar
    85    69    68   ar
    86    67    64    1
    87    67    68    1
    88    64    65    1
    89    71    73   ar
    90   116   117    2
    91   116   122   am
    92    92    91    2
    93    68    70   ar
    94    96    91   am
    95   122   123    1
    96    91    90    1
    97    73    74    1
    98    73    72   ar
    99    65    66    2
   100    70    72   ar
   101   123   124    1
   102    94    93    1
   103   125   124    2
   104    90    93    1
   105    90    89    1
   106   124   126   am
   107    93    95    1
   108    86    88   ar
   109    86    84   ar
   110    88    87   ar
   111    84    83   ar
   112    84    82   ar
   113    83    81   ar
   114   126   127    1
   115    87    85   ar
   116    75    76    1
   117    82    85   ar
   118    82    80   ar
   119    81    80   ar
   120   127   128    1
   121   127   130    1
   122    80    79    1
   123    76    79    1
   124    76    77    1
   125   128   129    2
   126   130   131    1
   127    77    78    2
   128   131   132    1
   129   131   133    1
