@<TRIPOS>MOLECULE
tmp/3t24B04.pdb
 81 74 0 0 0
SMALL
GASTEIGER

@<TRIPOS>ATOM
      1  N         44.6680  -27.1610  -29.0880 N.3    74  LEU74      -0.1245
      2  CA        45.9570  -26.5500  -29.3560 C.3    74  LEU74       0.1561
      3  C         46.4690  -25.9290  -28.0480 C.2    74  LEU74       0.2260
      4  O         45.7870  -25.1100  -27.4060 O.2    74  LEU74      -0.2867
      5  CB        45.8410  -25.5060  -30.4750 C.3    74  LEU74       0.0270
      6  CG        47.0780  -24.6400  -30.7620 C.3    74  LEU74       0.0019
      7  CD1       48.2080  -25.4990  -31.2020 C.3    74  LEU74       0.0001
      8  CD2       46.8120  -23.5530  -31.8080 C.3    74  LEU74       0.0001
      9  N         49.7290  -24.2220  -25.7170 N.3    76  ALA76      -0.1231
     10  CA        50.9980  -23.4950  -25.6530 C.3    76  ALA76       0.1694
     11  C         51.1870  -22.8860  -24.2690 C.2    76  ALA76       0.2593
     12  O         50.2670  -22.2640  -23.7200 O.2    76  ALA76      -0.2718
     13  CB        51.0490  -22.3970  -26.7320 C.3    76  ALA76       0.0304
     14  N         52.3870  -23.0360  -23.7230 N.am   77  SER77      -0.1938
     15  CA        52.6820  -22.5250  -22.3930 C.3    77  SER77       0.2055
     16  C         51.5550  -23.0170  -21.4600 C.2    77  SER77       0.2643
     17  O         51.3530  -24.2240  -21.3420 O.2    77  SER77      -0.2714
     18  CB        52.8280  -20.9940  -22.4310 C.3    77  SER77       0.2130
     19  OG        53.3400  -20.4670  -21.2240 O.3    77  SER77      -0.2179
     20  N         50.8110  -22.1150  -20.8280 N.am   78  LYS78      -0.1963
     21  CA        49.7400  -22.5230  -19.9130 C.3    78  LYS78       0.1728
     22  C         48.3560  -22.1720  -20.4690 C.2    78  LYS78       0.2616
     23  O         47.4540  -21.7710  -19.7290 O.2    78  LYS78      -0.2715
     24  CB        49.9220  -21.8670  -18.5420 C.3    78  LYS78       0.0311
     25  CG        51.2830  -22.0790  -17.8870 C.3    78  LYS78       0.0038
     26  CD        51.3150  -21.4560  -16.4940 C.3    78  LYS78       0.0206
     27  CE        52.7210  -21.4340  -15.8990 C.3    78  LYS78       0.1093
     28  NZ        53.5330  -20.2680  -16.3760 N.3    78  LYS78      -0.1314
     29  N         48.1990  -22.3140  -21.7800 N.am   79  SER79      -0.1950
     30  CA        47.0120  -21.8390  -22.4670 C.3    79  SER79       0.1924
     31  C         46.5130  -22.8910  -23.4380 C.2    79  SER79       0.2314
     32  O         47.3030  -23.6140  -24.0430 O.2    79  SER79      -0.2863
     33  CB        47.3020  -20.5400  -23.2160 C.3    79  SER79       0.2116
     34  OG        47.5570  -19.4860  -22.3080 O.3    79  SER79      -0.2180
     35  N         43.4210  -23.7620  -26.4950 N.3    81  LEU81      -0.1245
     36  CA        42.3500  -23.3780  -27.3740 C.3    81  LEU81       0.1561
     37  C         41.6760  -24.6750  -27.7630 C.2    81  LEU81       0.2260
     38  O         42.3540  -25.6560  -28.0830 O.2    81  LEU81      -0.2867
     39  CB        42.9110  -22.7000  -28.6080 C.3    81  LEU81       0.0270
     40  CG        41.8820  -22.3870  -29.6830 C.3    81  LEU81       0.0019
     41  CD1       40.8970  -21.2940  -29.1720 C.3    81  LEU81       0.0001
     42  CD2       42.5970  -21.9700  -30.9620 C.3    81  LEU81       0.0001
     43  N         38.9320  -20.4850  -25.1020 N.3   110  LEU110     -0.1245
     44  CA        40.3140  -20.3220  -24.7130 C.3   110  LEU110      0.1561
     45  C         40.4040  -20.3730  -23.2040 C.2   110  LEU110      0.2260
     46  O         39.6820  -19.6590  -22.5160 O.2   110  LEU110     -0.2867
     47  CB        40.8250  -18.9750  -25.2120 C.3   110  LEU110      0.0270
     48  CG        42.1660  -18.4640  -24.6970 C.3   110  LEU110      0.0019
     49  CD1       43.3120  -19.3950  -25.1230 C.3   110  LEU110      0.0001
     50  CD2       42.3850  -17.0590  -25.2270 C.3   110  LEU110      0.0001
     51  N         43.2950  -19.8920  -20.1070 N.3   112  SER112     -0.1217
     52  CA        44.6160  -19.3280  -19.9210 C.3   112  SER112      0.1889
     53  C         44.9180  -19.2120  -18.4380 C.2   112  SER112      0.2288
     54  O         44.1390  -18.6430  -17.6820 O.2   112  SER112     -0.2866
     55  CB        44.7220  -17.9620  -20.6030 C.3   112  SER112      0.2089
     56  OG        46.0810  -17.5870  -20.8250 O.3   112  SER112     -0.2183
     57  N         48.3130  -18.2960  -17.5260 N.3   114  GLU114     -0.1231
     58  CA        49.7110  -17.8460  -17.6040 C.3   114  GLU114      0.1699
     59  C         50.1440  -17.1920  -16.2940 C.2   114  GLU114      0.2592
     60  O         51.2880  -17.3140  -15.8910 O.2   114  GLU114     -0.2718
     61  CB        49.9690  -16.8920  -18.7850 C.3   114  GLU114      0.0402
     62  CG        49.6960  -17.4670  -20.1780 C.3   114  GLU114      0.1161
     63  CD        50.5590  -18.6720  -20.5160 C.2   114  GLU114      0.3649
     64  OE1       50.0650  -19.5740  -21.2360 O.co2 114  GLU114     -0.2457
     65  OE2       51.7300  -18.7180  -20.0740 O.co2 114  GLU114     -0.2457
     66  N         49.2200  -16.5220  -15.6160 N.am  115  ILE115     -0.1980
     67  CA        49.5680  -15.8240  -14.3870 C.3   115  ILE115      0.1595
     68  C         49.1380  -16.6180  -13.1800 C.2   115  ILE115      0.2287
     69  O         47.9750  -16.9900  -13.0590 O.2   115  ILE115     -0.2864
     70  CB        48.9640  -14.4080  -14.3540 C.3   115  ILE115      0.0276
     71  CG1       49.5850  -13.5590  -15.4660 C.3   115  ILE115      0.0022
     72  CG2       49.2220  -13.7540  -13.0050 C.3   115  ILE115      0.0022
     73  CD1       48.6270  -12.5850  -16.1050 C.3   115  ILE115      0.0001
     74  N         41.8710  -17.4450  -16.7710 N.3   120  LEU120     -0.1245
     75  CA        41.0920  -16.6400  -17.6930 C.3   120  LEU120      0.1561
     76  C         40.4360  -17.5690  -18.7000 C.2   120  LEU120      0.2260
     77  O         40.9830  -18.6050  -19.0420 O.2   120  LEU120     -0.2867
     78  CB        41.9760  -15.6160  -18.3970 C.3   120  LEU120      0.0270
     79  CG        42.6060  -14.5880  -17.4540 C.3   120  LEU120      0.0019
     80  CD1       43.6760  -13.7630  -18.1510 C.3   120  LEU120      0.0001
     81  CD2       41.5160  -13.6890  -16.8730 C.3   120  LEU120      0.0001
@<TRIPOS>BOND
     1     8     6    1
     2     7     6    1
     3    42    40    1
     4     6     5    1
     5     5     2    1
     6    40    41    1
     7    40    39    1
     8     2     1    1
     9     2     3    1
    10    39    36    1
    11    38    37    2
    12     3     4    2
    13    37    36    1
    14    36    35    1
    15    13    10    1
    16     9    10    1
    17    10    11    1
    18    50    48    1
    19    47    44    1
    20    47    48    1
    21    49    48    1
    22    43    44    1
    23    44    45    1
    24    11    14   am
    25    11    12    2
    26    32    31    2
    27    14    15    1
    28    31    30    1
    29    33    30    1
    30    33    34    1
    31    45    46    2
    32    30    29    1
    33    18    15    1
    34    18    19    1
    35    15    16    1
    36    29    22   am
    37    16    17    2
    38    16    20   am
    39    64    63   ar
    40    20    21    1
    41    56    55    1
    42    55    52    1
    43    63    62    1
    44    63    65   ar
    45    22    21    1
    46    22    23    2
    47    62    61    1
    48    51    52    1
    49    52    53    1
    50    21    24    1
    51    77    76    2
    52    61    58    1
    53    76    75    1
    54    24    25    1
    55    53    54    2
    56    78    75    1
    57    78    79    1
    58    80    79    1
    59    25    26    1
    60    75    74    1
    61    58    57    1
    62    58    59    1
    63    79    81    1
    64    26    27    1
    65    28    27    1
    66    59    60    2
    67    59    66   am
    68    73    71    1
    69    66    67    1
    70    71    70    1
    71    67    70    1
    72    67    68    1
    73    70    72    1
    74    68    69    2
