@<TRIPOS>MOLECULE
tmp/3t24A02.pdb
 101 99 0 0 0
SMALL
GASTEIGER

@<TRIPOS>ATOM
      1  N        -14.1510   22.4860  -30.9620 N.3   126  LEU126     -0.1245
      2  CA       -13.1450   22.2230  -29.9410 C.3   126  LEU126      0.1561
      3  C        -13.4280   20.9420  -29.1710 C.2   126  LEU126      0.2260
      4  O        -14.4980   20.7690  -28.5740 O.2   126  LEU126     -0.2867
      5  CB       -13.0200   23.3990  -28.9790 C.3   126  LEU126      0.0270
      6  CG       -11.9150   23.3120  -27.9290 C.3   126  LEU126      0.0019
      7  CD1      -10.5250   23.5860  -28.5400 C.3   126  LEU126      0.0001
      8  CD2      -12.1920   24.2860  -26.7950 C.3   126  LEU126      0.0001
      9  N        -11.8820   18.4730  -26.2560 N.3   128  LEU128     -0.1245
     10  CA       -10.9330   18.3670  -25.1680 C.3   128  LEU128      0.1561
     11  C        -11.0030   16.9650  -24.5810 C.2   128  LEU128      0.2260
     12  O        -12.0550   16.3330  -24.5710 O.2   128  LEU128     -0.2867
     13  CB       -11.2490   19.4050  -24.0920 C.3   128  LEU128      0.0270
     14  CG       -11.3570   20.8540  -24.5840 C.3   128  LEU128      0.0019
     15  CD1      -12.1200   21.6950  -23.6020 C.3   128  LEU128      0.0001
     16  CD2       -9.9700   21.4400  -24.8020 C.3   128  LEU128      0.0001
     17  N         -5.4440   17.0770  -23.4420 N.3   172  GLY172     -0.1210
     18  CA        -5.1810   17.6570  -24.7420 C.3   172  GLY172      0.1956
     19  C         -6.4180   18.2010  -25.4030 C.2   172  GLY172      0.2612
     20  O         -7.4930   18.2620  -24.8050 O.2   172  GLY172     -0.2717
     21  N         -6.2720   18.5730  -26.6610 N.am  173  GLY173     -0.1942
     22  CA        -7.3660   19.1810  -27.3800 C.3   173  GLY173      0.2014
     23  C         -7.0370   19.3120  -28.8460 C.2   173  GLY173      0.2640
     24  O         -5.8910   19.1400  -29.2790 O.2   173  GLY173     -0.2714
     25  N         -8.0560   19.6280  -29.6210 N.am  174  SER174     -0.1935
     26  CA        -7.8680   19.8290  -31.0290 C.3   174  SER174      0.2055
     27  C         -8.9490   20.7910  -31.4480 C.2   174  SER174      0.2643
     28  O        -10.0490   20.7780  -30.8880 O.2   174  SER174     -0.2714
     29  CB        -7.9810   18.5120  -31.7840 C.3   174  SER174      0.2130
     30  OG        -9.2830   18.0080  -31.6480 O.3   174  SER174     -0.2179
     31  N         -8.6160   21.6320  -32.4230 N.am  175  TYR175     -0.1973
     32  CA        -9.4930   22.6940  -32.8810 C.3   175  TYR175      0.1639
     33  C         -9.5670   22.7040  -34.3970 C.2   175  TYR175      0.2290
     34  O         -8.5440   22.7690  -35.0750 O.2   175  TYR175     -0.2864
     35  CB        -8.9770   24.0470  -32.3930 C.3   175  TYR175      0.0560
     36  CG        -9.9390   25.1670  -32.6790 C.ar  175  TYR175     -0.0198
     37  CD1      -11.2360   25.1330  -32.1800 C.ar  175  TYR175     -0.0009
     38  CD2       -9.5570   26.2590  -33.4420 C.ar  175  TYR175     -0.0009
     39  CE1      -12.1280   26.1590  -32.4320 C.ar  175  TYR175      0.0417
     40  CE2      -10.4350   27.2900  -33.6970 C.ar  175  TYR175      0.0417
     41  CZ       -11.7240   27.2320  -33.1960 C.ar  175  TYR175      0.1957
     42  OH       -12.6060   28.2540  -33.4510 O.3   175  TYR175     -0.2866
     43  N        -10.0900   24.7470  -37.3420 N.3   177  TRP177     -0.1241
     44  CA       -10.0730   26.1460  -37.7410 C.3   177  TRP177      0.1605
     45  C        -11.0070   26.3510  -38.9140 C.2   177  TRP177      0.2264
     46  O        -11.7070   27.3560  -39.0000 O.2   177  TRP177     -0.2867
     47  CB        -8.6550   26.5670  -38.1250 C.3   177  TRP177      0.0550
     48  CG        -7.6900   26.4200  -37.0060 C.ar  177  TRP177      0.0003
     49  CD1       -6.9620   25.3110  -36.6930 C.ar  177  TRP177      0.0946
     50  CD2       -7.3560   27.4110  -36.0340 C.ar  177  TRP177      0.0152
     51  NE1       -6.1860   25.5540  -35.5890 N.ar  177  TRP177     -0.2442
     52  CE2       -6.4100   26.8390  -35.1640 C.ar  177  TRP177      0.0810
     53  CE3       -7.7590   28.7320  -35.8180 C.ar  177  TRP177      0.0012
     54  CZ2       -5.8620   27.5350  -34.0960 C.ar  177  TRP177      0.0191
     55  CZ3       -7.2110   29.4260  -34.7620 C.ar  177  TRP177      0.0001
     56  CH2       -6.2720   28.8250  -33.9100 C.ar  177  TRP177      0.0015
     57  N         -5.6480   21.7570  -35.8330 N.3   183  THR183     -0.1203
     58  CA        -4.4110   21.5590  -35.1020 C.3   183  THR183      0.1994
     59  C         -4.7430   20.9260  -33.7630 C.2   183  THR183      0.2619
     60  O         -5.8800   21.0190  -33.2780 O.2   183  THR183     -0.2717
     61  CB        -3.6460   22.8750  -34.8890 C.3   183  THR183      0.1784
     62  OG1       -4.3290   23.6960  -33.9270 O.3   183  THR183     -0.2211
     63  CG2       -3.5250   23.6190  -36.1990 C.3   183  THR183      0.0376
     64  N         -3.7460   20.2770  -33.1750 N.am  184  SER184     -0.1937
     65  CA        -3.9220   19.6190  -31.8980 C.3   184  SER184      0.2055
     66  C         -2.7000   19.7790  -31.0060 C.2   184  SER184      0.2643
     67  O         -1.5720   19.8970  -31.4770 O.2   184  SER184     -0.2714
     68  CB        -4.2250   18.1420  -32.1130 C.3   184  SER184      0.2130
     69  OG        -3.1550   17.5110  -32.7870 O.3   184  SER184     -0.2179
     70  N         -2.9460   19.7860  -29.7060 N.am  185  TYR185     -0.1973
     71  CA        -1.8970   19.8030  -28.7040 C.3   185  TYR185      0.1639
     72  C         -2.2470   18.7420  -27.6390 C.2   185  TYR185      0.2290
     73  O         -3.3120   18.7710  -27.0400 O.2   185  TYR185     -0.2864
     74  CB        -1.7620   21.2190  -28.1160 C.3   185  TYR185      0.0560
     75  CG        -0.7590   21.3730  -27.0000 C.ar  185  TYR185     -0.0198
     76  CD1        0.5710   21.6310  -27.2670 C.ar  185  TYR185     -0.0009
     77  CD2       -1.1470   21.2900  -25.6780 C.ar  185  TYR185     -0.0009
     78  CE1        1.4920   21.7860  -26.2490 C.ar  185  TYR185      0.0417
     79  CE2       -0.2360   21.4410  -24.6510 C.ar  185  TYR185      0.0417
     80  CZ         1.0840   21.6900  -24.9440 C.ar  185  TYR185      0.1957
     81  OH         2.0010   21.8450  -23.9310 O.3   185  TYR185     -0.2866
     82  N          2.4340   17.8870  -30.8300 N.3   199  LEU199     -0.1231
     83  CA         1.7230   18.8900  -31.6140 C.3   199  LEU199      0.1693
     84  C          1.3440   18.3190  -32.9650 C.2   199  LEU199      0.2593
     85  O          2.1050   17.5770  -33.5680 O.2   199  LEU199     -0.2718
     86  CB         2.5520   20.1560  -31.7980 C.3   199  LEU199      0.0284
     87  CG         2.6770   21.1470  -30.6390 C.3   199  LEU199      0.0019
     88  CD1        3.4620   20.5370  -29.5020 C.3   199  LEU199      0.0001
     89  CD2        3.3640   22.4180  -31.1180 C.3   199  LEU199      0.0001
     90  N          0.1530   18.6560  -33.4280 N.am  200  GLY200     -0.1942
     91  CA        -0.3140   18.1770  -34.7080 C.3   200  GLY200      0.2014
     92  C         -0.9820   19.2610  -35.5220 C.2   200  GLY200      0.2638
     93  O         -1.5030   20.2460  -34.9810 O.2   200  GLY200     -0.2714
     94  N         -0.9500   19.0690  -36.8350 N.am  201  LEU201     -0.1977
     95  CA        -1.5470   19.9770  -37.7980 C.3   201  LEU201      0.1596
     96  C         -1.9730   19.0750  -38.9340 C.2   201  LEU201      0.2287
     97  O         -1.1500   18.3880  -39.5210 O.2   201  LEU201     -0.2864
     98  CB        -0.5060   20.9990  -38.2730 C.3   201  LEU201      0.0297
     99  CG        -0.6720   21.9940  -39.4400 C.3   201  LEU201      0.0022
    100  CD1       -1.3220   21.3710  -40.6940 C.3   201  LEU201      0.0001
    101  CD2       -1.4050   23.2750  -39.0150 C.3   201  LEU201      0.0001
@<TRIPOS>BOND
     1   100    99    1
     2    97    96    2
     3    99   101    1
     4    99    98    1
     5    46    45    2
     6    96    95    1
     7    45    44    1
     8    98    95    1
     9    47    44    1
    10    47    48    1
    11    95    94    1
    12    44    43    1
    13    48    49   ar
    14    48    50   ar
    15    94    92   am
    16    49    51   ar
    17    63    61    1
    18    50    53   ar
    19    50    52   ar
    20    57    58    1
    21    53    55   ar
    22    51    52   ar
    23    92    93    2
    24    92    91    1
    25    52    54   ar
    26    58    61    1
    27    58    59    1
    28    34    33    2
    29    61    62    1
    30    55    56   ar
    31    91    90    1
    32    33    32    1
    33    54    56   ar
    34    59    60    2
    35    59    64   am
    36    40    38   ar
    37    40    41   ar
    38    85    84    2
    39    42    41    1
    40    38    36   ar
    41    90    84   am
    42    41    39   ar
    43    64    65    1
    44    84    83    1
    45    32    31    1
    46    32    35    1
    47    69    68    1
    48    36    35    1
    49    36    37   ar
    50    39    37   ar
    51    31    27   am
    52    68    65    1
    53    65    66    1
    54    86    83    1
    55    86    87    1
    56    29    30    1
    57    29    26    1
    58    83    82    1
    59    67    66    2
    60    27    26    1
    61    27    28    2
    62    89    87    1
    63    26    25    1
    64    66    70   am
    65     1     2    1
    66    87    88    1
    67     2     3    1
    68     2     5    1
    69    70    71    1
    70    25    23   am
    71    24    23    2
    72     3     4    2
    73     5     6    1
    74    23    22    1
    75    71    74    1
    76    71    72    1
    77     7     6    1
    78    74    75    1
    79     6     8    1
    80    72    73    2
    81    22    21    1
    82    76    75   ar
    83    76    78   ar
    84    75    77   ar
    85    21    19   am
    86     9    10    1
    87    78    80   ar
    88    77    79   ar
    89    19    20    2
    90    19    18    1
    91    10    11    1
    92    10    13    1
    93    80    79   ar
    94    80    81    1
    95    16    14    1
    96    18    17    1
    97    14    13    1
    98    14    15    1
    99    11    12    2
