@<TRIPOS>MOLECULE
tmp/3t24B03.pdb
 79 74 0 0 0
SMALL
GASTEIGER

@<TRIPOS>ATOM
      1  N         43.4210  -23.7620  -26.4950 N.3    81  LEU81      -0.1245
      2  CA        42.3500  -23.3780  -27.3740 C.3    81  LEU81       0.1561
      3  C         41.6760  -24.6750  -27.7630 C.2    81  LEU81       0.2260
      4  O         42.3540  -25.6560  -28.0830 O.2    81  LEU81      -0.2867
      5  CB        42.9110  -22.7000  -28.6080 C.3    81  LEU81       0.0270
      6  CG        41.8820  -22.3870  -29.6830 C.3    81  LEU81       0.0019
      7  CD1       40.8970  -21.2940  -29.1720 C.3    81  LEU81       0.0001
      8  CD2       42.5970  -21.9700  -30.9620 C.3    81  LEU81       0.0001
      9  N         38.3970  -26.0760  -30.2290 N.3    83  ILE83      -0.1231
     10  CA        37.4470  -25.7600  -31.2870 C.3    83  ILE83       0.1692
     11  C         36.6490  -27.0180  -31.6340 C.2    83  ILE83       0.2592
     12  O         37.2230  -28.0570  -31.9840 O.2    83  ILE83      -0.2718
     13  CB        38.1560  -25.3080  -32.5890 C.3    83  ILE83       0.0266
     14  CG1       39.2100  -24.2250  -32.3160 C.3    83  ILE83       0.0019
     15  CG2       37.1300  -24.8970  -33.6470 C.3    83  ILE83       0.0020
     16  CD1       38.6480  -23.0080  -31.7450 C.3    83  ILE83       0.0001
     17  N         35.3290  -26.9160  -31.5460 N.am   84  GLY84      -0.1957
     18  CA        34.4470  -28.0230  -31.8470 C.3    84  GLY84       0.1869
     19  C         33.4300  -28.1630  -30.7330 C.2    84  GLY84       0.2309
     20  O         32.8090  -27.1720  -30.3060 O.2    84  GLY84      -0.2863
     21  N         28.6010  -26.2690  -29.6510 N.3   106  GLN106     -0.1231
     22  CA        29.6060  -26.1570  -30.7060 C.3   106  GLN106      0.1698
     23  C         30.1500  -24.7400  -30.7000 C.2   106  GLN106      0.2593
     24  O         29.3780  -23.7800  -30.6090 O.2   106  GLN106     -0.2718
     25  CB        29.0470  -26.4940  -32.0900 C.3   106  GLN106      0.0381
     26  CG        28.5280  -27.9250  -32.2720 C.3   106  GLN106      0.0905
     27  CD        29.6000  -29.0050  -32.1450 C.2   106  GLN106      0.2608
     28  OE1       29.5330  -29.8580  -31.2570 O.2   106  GLN106     -0.2717
     29  NE2       30.5710  -28.9920  -33.0480 N.am  106  GLN106     -0.0878
     30  N         31.4700  -24.6020  -30.7970 N.am  107  GLY107     -0.1942
     31  CA        32.0950  -23.2830  -30.8150 C.3   107  GLY107      0.2014
     32  C         33.5950  -23.3310  -30.5790 C.2   107  GLY107      0.2639
     33  O         34.2560  -24.2920  -30.9680 O.2   107  GLY107     -0.2714
     34  N         34.1270  -22.3010  -29.9340 N.am  108  GLY108     -0.1939
     35  CA        35.5450  -22.2270  -29.6270 C.3   108  GLY108      0.2014
     36  C         35.7820  -21.5460  -28.2890 C.2   108  GLY108      0.2639
     37  O         35.0680  -20.6200  -27.9200 O.2   108  GLY108     -0.2714
     38  N         36.7780  -22.0090  -27.5460 N.am  109  ALA109     -0.1963
     39  CA        37.0550  -21.4310  -26.2370 C.3   109  ALA109      0.1728
     40  C         38.5300  -21.4560  -25.9100 C.2   109  ALA109      0.2616
     41  O         39.2670  -22.3510  -26.3370 O.2   109  ALA109     -0.2715
     42  CB        36.2910  -22.1460  -25.1620 C.3   109  ALA109      0.0334
     43  N         38.9320  -20.4850  -25.1020 N.am  110  LEU110     -0.1977
     44  CA        40.3140  -20.3220  -24.7130 C.3   110  LEU110      0.1596
     45  C         40.4040  -20.3730  -23.2040 C.2   110  LEU110      0.2287
     46  O         39.6820  -19.6590  -22.5160 O.2   110  LEU110     -0.2864
     47  CB        40.8250  -18.9750  -25.2120 C.3   110  LEU110      0.0297
     48  CG        42.1660  -18.4640  -24.6970 C.3   110  LEU110      0.0022
     49  CD1       43.3120  -19.3950  -25.1230 C.3   110  LEU110      0.0001
     50  CD2       42.3850  -17.0590  -25.2270 C.3   110  LEU110      0.0001
     51  N         37.6570  -17.4220  -22.3550 N.3   122  ALA122     -0.1231
     52  CA        36.8930  -16.6310  -23.3010 C.3   122  ALA122      0.1697
     53  C         36.4500  -17.5200  -24.4450 C.2   122  ALA122      0.2632
     54  O         37.0890  -18.5260  -24.7460 O.2   122  ALA122     -0.2714
     55  CB        37.7140  -15.4360  -23.8190 C.3   122  ALA122      0.0304
     56  N         35.3450  -17.1650  -25.0820 N.am  123  GLY123     -0.1718
     57  CA        34.9090  -17.9630  -26.2020 C.2   123  GLY123      0.1480
     58  C         33.6040  -17.5720  -26.8310 C.2   123  GLY123      0.2820
     59  O         33.0070  -16.5400  -26.4960 O.2   123  GLY123     -0.2669
     60  N         33.1750  -18.4160  -27.7650 N.am  124  ARG124     -0.1943
     61  CA        31.9560  -18.1940  -28.5040 C.3   124  ARG124      0.1600
     62  C         31.2970  -19.5270  -28.7950 C.2   124  ARG124      0.2287
     63  O         31.9070  -20.4000  -29.4020 O.2   124  ARG124     -0.2864
     64  CB        32.2410  -17.4590  -29.8170 C.3   124  ARG124      0.0334
     65  CG        31.0610  -17.5050  -30.8020 C.3   124  ARG124      0.0492
     66  CD        31.2480  -16.5560  -31.9730 C.3   124  ARG124      0.2205
     67  NE        31.4040  -15.1860  -31.5090 N.pl3 124  ARG124     -0.0865
     68  CZ        31.7340  -14.1620  -32.2940 C.cat 124  ARG124      0.5346
     69  NH1       31.9390  -14.3550  -33.5970 N.pl3 124  ARG124      0.1354
     70  NH2       31.8610  -12.9430  -31.7790 N.pl3 124  ARG124      0.1354
     71  N         28.2370  -21.3310  -30.8120 N.3   126  LYS126     -0.1245
     72  CA        27.4060  -21.0840  -31.9880 C.3   126  LYS126      0.1561
     73  C         26.1300  -21.9330  -31.9470 C.2   126  LYS126      0.2260
     74  O         25.1050  -21.5470  -32.4960 O.2   126  LYS126     -0.2867
     75  CB        28.1760  -21.4100  -33.2800 C.3   126  LYS126      0.0271
     76  CG        29.4450  -20.5780  -33.4890 C.3   126  LYS126      0.0035
     77  CD        29.1470  -19.0980  -33.7300 C.3   126  LYS126      0.0206
     78  CE        28.6150  -18.8460  -35.1390 C.3   126  LYS126      0.1093
     79  NZ        29.5820  -19.3190  -36.1750 N.3   126  LYS126     -0.1314
@<TRIPOS>BOND
     1    79    78    1
     2    78    77    1
     3    77    76    1
     4    15    13    1
     5    69    68    1
     6    76    75    1
     7    75    72    1
     8    29    27   am
     9    13    14    1
    10    13    10    1
    11    74    73    2
    12    14    16    1
    13    68    70    1
    14    68    67    2
    15    26    27    1
    16    26    25    1
    17    27    28    2
    18    25    22    1
    19    72    73    1
    20    72    71    1
    21    12    11    2
    22    66    67    1
    23    66    65    1
    24    18    17    1
    25    18    19    1
    26    11    17   am
    27    11    10    1
    28    10     9    1
    29    33    32    2
    30     8     6    1
    31    31    30    1
    32    31    32    1
    33    65    64    1
    34    30    23   am
    35    19    20    2
    36    22    23    1
    37    22    21    1
    38    23    24    2
    39    32    34   am
    40    34    35    1
    41    64    61    1
    42     6     7    1
    43     6     5    1
    44    35    36    1
    45    63    62    2
    46    62    61    1
    47     5     2    1
    48    61    60    1
    49    36    37    2
    50    36    38   am
    51     4     3    2
    52    60    58   am
    53     3     2    1
    54    38    39    1
    55     2     1    1
    56    58    59    2
    57    58    57    1
    58    41    40    2
    59    39    40    1
    60    39    42    1
    61    57    56    2
    62    40    43   am
    63    50    48    1
    64    47    44    1
    65    47    48    1
    66    49    48    1
    67    43    44    1
    68    56    53    1
    69    54    53    2
    70    44    45    1
    71    53    52    1
    72    55    52    1
    73    52    51    1
    74    45    46    2
