@<TRIPOS>MOLECULE
tmp/3t24A00.pdb
 94 92 0 0 0
SMALL
GASTEIGER

@<TRIPOS>ATOM
      1  N        -11.8820   18.4730  -26.2560 N.3   128  LEU128     -0.1245
      2  CA       -10.9330   18.3670  -25.1680 C.3   128  LEU128      0.1561
      3  C        -11.0030   16.9650  -24.5810 C.2   128  LEU128      0.2260
      4  O        -12.0550   16.3330  -24.5710 O.2   128  LEU128     -0.2867
      5  CB       -11.2490   19.4050  -24.0920 C.3   128  LEU128      0.0270
      6  CG       -11.3570   20.8540  -24.5840 C.3   128  LEU128      0.0019
      7  CD1      -12.1200   21.6950  -23.6020 C.3   128  LEU128      0.0001
      8  CD2       -9.9700   21.4400  -24.8020 C.3   128  LEU128      0.0001
      9  N         -9.0530   14.3730  -21.3010 N.3   130  ALA130     -0.1231
     10  CA        -8.1800   14.3390  -20.1380 C.3   130  ALA130      0.1697
     11  C         -8.4860   13.0380  -19.4210 C.2   130  ALA130      0.2632
     12  O         -9.6230   12.5700  -19.4380 O.2   130  ALA130     -0.2714
     13  CB        -8.4410   15.5350  -19.2240 C.3   130  ALA130      0.0304
     14  N         -7.4810   12.4470  -18.7950 N.am  131  GLY131     -0.1718
     15  CA        -7.6960   11.2050  -18.0960 C.2   131  GLY131      0.1480
     16  C         -6.4840   10.6070  -17.4100 C.2   131  GLY131      0.2820
     17  O         -5.3740   11.1500  -17.4440 O.2   131  GLY131     -0.2669
     18  N         -6.7320    9.4670  -16.7750 N.am  132  ARG132     -0.1943
     19  CA        -5.7120    8.7080  -16.1000 C.3   132  ARG132      0.1600
     20  C         -5.9290    7.2160  -16.2880 C.2   132  ARG132      0.2287
     21  O         -6.9650    6.6670  -15.8980 O.2   132  ARG132     -0.2864
     22  CB        -5.6960    9.0290  -14.6060 C.3   132  ARG132      0.0334
     23  CG        -4.8010    8.0630  -13.8370 C.3   132  ARG132      0.0492
     24  CD        -4.5030    8.5400  -12.4490 C.3   132  ARG132      0.2205
     25  NE        -4.0000    9.9080  -12.4580 N.pl3 132  ARG132     -0.0865
     26  CZ        -3.8160   10.6350  -11.3610 C.cat 132  ARG132      0.5346
     27  NH1       -4.0930   10.1130  -10.1750 N.pl3 132  ARG132      0.1354
     28  NH2       -3.3610   11.8800  -11.4450 N.pl3 132  ARG132      0.1354
     29  N         -1.0420    9.8820  -17.1090 N.3   169  ASP169     -0.1225
     30  CA        -1.9680   11.0030  -17.1710 C.3   169  ASP169      0.1805
     31  C         -1.9220   11.6320  -18.5400 C.2   169  ASP169      0.2598
     32  O         -0.8400   11.7660  -19.1380 O.2   169  ASP169     -0.2718
     33  CB        -1.6300   12.0520  -16.1260 C.3   169  ASP169      0.1424
     34  CG        -1.8800   11.5700  -14.7200 C.2   169  ASP169      0.3668
     35  OD1       -2.5690   10.5410  -14.5590 O.co2 169  ASP169     -0.2456
     36  OD2       -1.3970   12.2260  -13.7750 O.co2 169  ASP169     -0.2456
     37  N         -3.0880   12.0380  -19.0370 N.am  170  PHE170     -0.1962
     38  CA        -3.1300   12.7020  -20.3250 C.3   170  PHE170      0.1771
     39  C         -4.1510   13.8210  -20.3490 C.2   170  PHE170      0.2619
     40  O         -5.1090   13.8260  -19.5750 O.2   170  PHE170     -0.2715
     41  CB        -3.3210   11.6980  -21.4760 C.3   170  PHE170      0.0574
     42  CG        -4.6100   10.9310  -21.4130 C.ar  170  PHE170     -0.0200
     43  CD1       -5.7430   11.4160  -22.0410 C.ar  170  PHE170     -0.0042
     44  CD2       -4.6870    9.7240  -20.7220 C.ar  170  PHE170     -0.0042
     45  CE1       -6.9370   10.7130  -22.0000 C.ar  170  PHE170     -0.0003
     46  CE2       -5.8860    9.0010  -20.6680 C.ar  170  PHE170     -0.0003
     47  CZ        -7.0170    9.4990  -21.3140 C.ar  170  PHE170     -0.0000
     48  N         -3.8940   14.8080  -21.2020 N.am  171  ALA171     -0.1963
     49  CA        -4.8080   15.9310  -21.4250 C.3   171  ALA171      0.1728
     50  C         -4.4570   16.5190  -22.7680 C.2   171  ALA171      0.2617
     51  O         -3.3170   16.4230  -23.2190 O.2   171  ALA171     -0.2715
     52  CB        -4.6940   16.9700  -20.3330 C.3   171  ALA171      0.0334
     53  N         -5.4440   17.0770  -23.4420 N.am  172  GLY172     -0.1940
     54  CA        -5.1810   17.6570  -24.7420 C.3   172  GLY172      0.2014
     55  C         -6.4180   18.2010  -25.4030 C.2   172  GLY172      0.2639
     56  O         -7.4930   18.2620  -24.8050 O.2   172  GLY172     -0.2714
     57  N         -6.2720   18.5730  -26.6610 N.am  173  GLY173     -0.1954
     58  CA        -7.3660   19.1810  -27.3800 C.3   173  GLY173      0.1869
     59  C         -7.0370   19.3120  -28.8460 C.2   173  GLY173      0.2309
     60  O         -5.8910   19.1400  -29.2790 O.2   173  GLY173     -0.2863
     61  N         -2.9460   19.7860  -29.7060 N.3   185  TYR185     -0.1241
     62  CA        -1.8970   19.8030  -28.7040 C.3   185  TYR185      0.1605
     63  C         -2.2470   18.7420  -27.6390 C.2   185  TYR185      0.2264
     64  O         -3.3120   18.7710  -27.0400 O.2   185  TYR185     -0.2867
     65  CB        -1.7620   21.2190  -28.1160 C.3   185  TYR185      0.0534
     66  CG        -0.7590   21.3730  -27.0000 C.ar  185  TYR185     -0.0201
     67  CD1        0.5710   21.6310  -27.2670 C.ar  185  TYR185     -0.0009
     68  CD2       -1.1470   21.2900  -25.6780 C.ar  185  TYR185     -0.0009
     69  CE1        1.4920   21.7860  -26.2490 C.ar  185  TYR185      0.0417
     70  CE2       -0.2360   21.4410  -24.6510 C.ar  185  TYR185      0.0417
     71  CZ         1.0840   21.6900  -24.9440 C.ar  185  TYR185      0.1957
     72  OH         2.0010   21.8450  -23.9310 O.3   185  TYR185     -0.2866
     73  N         -0.7520   16.2590  -24.2930 N.3   187  TYR187     -0.1241
     74  CA         0.2020   15.9550  -23.2480 C.3   187  TYR187      0.1605
     75  C         -0.0540   14.5710  -22.6650 C.2   187  TYR187      0.2264
     76  O         -1.1950   14.1940  -22.4010 O.2   187  TYR187     -0.2867
     77  CB         0.0410   16.9740  -22.1360 C.3   187  TYR187      0.0534
     78  CG         0.8530   16.7090  -20.8840 C.ar  187  TYR187     -0.0201
     79  CD1        2.1850   17.1320  -20.7870 C.ar  187  TYR187     -0.0009
     80  CD2        0.2780   16.0800  -19.7800 C.ar  187  TYR187     -0.0009
     81  CE1        2.9300   16.9190  -19.6270 C.ar  187  TYR187      0.0417
     82  CE2        1.0070   15.8580  -18.6210 C.ar  187  TYR187      0.0417
     83  CZ         2.3360   16.2860  -18.5510 C.ar  187  TYR187      0.1957
     84  OH         3.0620   16.0820  -17.4010 O.3   187  TYR187     -0.2866
     85  N          4.9410   16.0700  -25.0810 N.3   197  HIS197     -0.1241
     86  CA         4.0640   17.0630  -25.6900 C.3   197  HIS197      0.1621
     87  C          3.9940   16.7230  -27.1680 C.2   197  HIS197      0.2264
     88  O          5.0300   16.5680  -27.8260 O.2   197  HIS197     -0.2867
     89  CB         4.6200   18.4860  -25.4990 C.3   197  HIS197      0.0745
     90  CG         4.7400   18.8880  -24.0610 C.ar  197  HIS197      0.0817
     91  ND1        3.8930   19.8000  -23.4710 N.ar  197  HIS197     -0.2268
     92  CD2        5.5830   18.4710  -23.0870 C.ar  197  HIS197      0.1154
     93  CE1        4.2160   19.9400  -22.1950 C.ar  197  HIS197      0.1986
     94  NE2        5.2410   19.1480  -21.9410 N.ar  197  HIS197     -0.2212
@<TRIPOS>BOND
     1    61    62    1
     2    60    59    2
     3    59    58    1
     4    62    65    1
     5    62    63    1
     6    65    66    1
     7    88    87    2
     8    63    64    2
     9    58    57    1
    10    67    66   ar
    11    67    69   ar
    12    87    86    1
    13    66    68   ar
    14    57    55   am
    15     1     2    1
    16    69    71   ar
    17    86    89    1
    18    86    85    1
    19    68    70   ar
    20    89    90    1
    21    55    56    2
    22    55    54    1
    23     2     3    1
    24     2     5    1
    25    71    70   ar
    26    71    72    1
    27     8     6    1
    28    54    53    1
    29     6     5    1
    30     6     7    1
    31     3     4    2
    32    73    74    1
    33    90    91   ar
    34    90    92   ar
    35    91    93   ar
    36    53    50   am
    37    74    75    1
    38    74    77    1
    39    51    50    2
    40    92    94   ar
    41    50    49    1
    42    75    76    2
    43    93    94   ar
    44    77    78    1
    45    43    45   ar
    46    43    42   ar
    47    45    47   ar
    48    41    42    1
    49    41    38    1
    50    49    48    1
    51    49    52    1
    52    42    44   ar
    53    47    46   ar
    54     9    10    1
    55    48    39   am
    56    78    79   ar
    57    78    80   ar
    58    79    81   ar
    59    44    46   ar
    60    39    38    1
    61    39    40    2
    62    38    37    1
    63    10    11    1
    64    10    13    1
    65    80    82   ar
    66    81    83   ar
    67    12    11    2
    68    11    14    1
    69    32    31    2
    70    37    31   am
    71    14    15    2
    72    82    83   ar
    73    83    84    1
    74    31    30    1
    75    15    16    1
    76    17    16    2
    77    16    18   am
    78    30    29    1
    79    30    33    1
    80    18    19    1
    81    20    19    1
    82    20    21    2
    83    33    34    1
    84    19    22    1
    85    34    35   ar
    86    34    36   ar
    87    22    23    1
    88    23    24    1
    89    25    24    1
    90    25    26    2
    91    28    26    1
    92    26    27    1
