@<TRIPOS>MOLECULE
tmp/3t27A04.pdb
 80 78 0 0 0
SMALL
GASTEIGER

@<TRIPOS>ATOM
      1  N          6.0850   17.3860   29.9230 N.3    42  TYR42      -0.1227
      2  CA         6.7780   17.6960   31.1690 C.3    42  TYR42       0.1736
      3  C          5.9630   18.7450   31.9700 C.2    42  TYR42       0.2595
      4  O          5.4700   19.7210   31.4080 O.2    42  TYR42      -0.2718
      5  CB         8.2310   18.1630   30.9280 C.3    42  TYR42       0.0548
      6  CG         8.7870   18.8260   32.1670 C.ar   42  TYR42      -0.0200
      7  CD1        8.6690   20.1790   32.3190 C.ar   42  TYR42      -0.0009
      8  CD2        9.3400   18.0800   33.2050 C.ar   42  TYR42      -0.0009
      9  CE1        9.1180   20.8060   33.4770 C.ar   42  TYR42       0.0417
     10  CE2        9.7960   18.7020   34.3630 C.ar   42  TYR42       0.0417
     11  CZ         9.6800   20.0750   34.4640 C.ar   42  TYR42       0.1957
     12  OH        10.0760   20.7820   35.5810 O.3    42  TYR42      -0.2866
     13  N          5.8560   18.5100   33.2700 N.am   43  LYS43      -0.1966
     14  CA         5.0710   19.3330   34.1990 C.3    43  LYS43       0.1728
     15  C          5.7430   19.0440   35.5290 C.2    43  LYS43       0.2617
     16  O          6.2840   17.9570   35.7180 O.2    43  LYS43      -0.2715
     17  CB         3.6210   18.7360   34.2490 C.3    43  LYS43       0.0311
     18  CG         2.4920   19.6410   34.6820 C.3    43  LYS43       0.0038
     19  CD         1.2420   19.3280   33.9170 C.3    43  LYS43       0.0206
     20  CE         0.1500   20.1830   34.3860 C.3    43  LYS43       0.1093
     21  NZ        -0.8450   20.2820   33.3390 N.3    43  LYS43      -0.1314
     22  N          5.6710   19.9640   36.4880 N.am   44  SER44      -0.1936
     23  CA         5.9200   19.5580   37.8720 C.3    44  SER44       0.2055
     24  C          4.5820   19.1350   38.5400 C.2    44  SER44       0.2644
     25  O          3.4810   19.4980   38.0750 O.2    44  SER44      -0.2714
     26  CB         6.7060   20.6550   38.6350 C.3    44  SER44       0.2130
     27  OG         7.0020   20.2200   39.9490 O.3    44  SER44      -0.2179
     28  N          4.6510   18.3180   39.5770 N.am   45  GLY45      -0.1939
     29  CA         3.4450   17.8940   40.2900 C.3    45  GLY45       0.2014
     30  C          2.7390   16.7120   39.6040 C.2    45  GLY45       0.2638
     31  O          1.4970   16.7200   39.4420 O.2    45  GLY45      -0.2714
     32  N          3.5040   15.6980   39.2190 N.am   46  ILE46      -0.1977
     33  CA         2.9590   14.5790   38.4380 C.3    46  ILE46       0.1596
     34  C          2.6390   13.4070   39.3540 C.2    46  ILE46       0.2287
     35  O          3.5320   12.8880   40.0750 O.2    46  ILE46      -0.2864
     36  CB         3.9700   14.1060   37.3510 C.3    46  ILE46       0.0276
     37  CG1        4.1900   15.1920   36.3140 C.3    46  ILE46       0.0022
     38  CG2        3.4720   12.8380   36.6120 C.3    46  ILE46       0.0022
     39  CD1        5.3610   14.9020   35.3540 C.3    46  ILE46       0.0001
     40  N          3.3380    8.8620   43.1860 N.3    66  SER66      -0.1202
     41  CA         3.9800   10.1180   42.7680 C.3    66  SER66       0.2020
     42  C          5.3190    9.9020   42.0270 C.2    66  SER66       0.2619
     43  O          5.9850    8.8990   42.2330 O.2    66  SER66      -0.2717
     44  CB         4.2400   10.9960   44.0070 C.3    66  SER66       0.2103
     45  OG         2.9890   11.3810   44.5640 O.3    66  SER66      -0.2182
     46  N          5.6940   10.8540   41.1750 N.am   67  ALA67      -0.1965
     47  CA         7.0090   10.8650   40.5540 C.3    67  ALA67       0.1728
     48  C          8.0780   11.3490   41.5700 C.2    67  ALA67       0.2617
     49  O          7.8800   12.3450   42.3000 O.2    67  ALA67      -0.2715
     50  CB         6.9970   11.8110   39.3790 C.3    67  ALA67       0.0334
     51  N          9.2220   10.6800   41.5930 N.am   68  SER68      -0.1936
     52  CA        10.3140   11.1720   42.4080 C.3    68  SER68       0.2055
     53  C         11.3370   11.9200   41.5550 C.2    68  SER68       0.2643
     54  O         12.0290   12.7860   42.0570 O.2    68  SER68      -0.2714
     55  CB        10.9870   10.0450   43.1820 C.3    68  SER68       0.2130
     56  OG        11.5910    9.1490   42.3020 O.3    68  SER68      -0.2179
     57  N         11.3680   11.6580   40.2530 N.am   69  LYS69      -0.1963
     58  CA        12.3660   12.3050   39.4190 C.3    69  LYS69       0.1728
     59  C         11.8400   12.3270   37.9940 C.2    69  LYS69       0.2616
     60  O         11.2750   11.3310   37.5330 O.2    69  LYS69      -0.2715
     61  CB        13.6700   11.4660   39.5050 C.3    69  LYS69       0.0311
     62  CG        14.8820   12.0380   38.8290 C.3    69  LYS69       0.0038
     63  CD        16.1170   11.1140   39.1550 C.3    69  LYS69       0.0206
     64  CE        17.4010   11.9270   39.3930 C.3    69  LYS69       0.1093
     65  NZ        18.5940   11.0320   39.7300 N.3    69  LYS69      -0.1314
     66  N         12.0070   13.4430   37.2950 N.am   70  SER70      -0.1950
     67  CA        11.7370   13.4810   35.8400 C.3    70  SER70       0.1924
     68  C         12.9960   13.7800   35.0390 C.2    70  SER70       0.2314
     69  O         13.7870   14.6040   35.4580 O.2    70  SER70      -0.2863
     70  CB        10.7290   14.6020   35.5080 C.3    70  SER70       0.2116
     71  OG         9.4860   14.3400   36.1390 O.3    70  SER70      -0.2180
     72  N          8.1630    7.0700   42.9040 N.3    91  LYS91      -0.1245
     73  CA         8.5650    7.1300   44.3150 C.3    91  LYS91       0.1561
     74  C          8.6400    5.7290   44.9520 C.2    91  LYS91       0.2260
     75  O          9.4860    5.4870   45.7910 O.2    91  LYS91      -0.2867
     76  CB         7.5680    7.9960   45.0730 C.3    91  LYS91       0.0271
     77  CG         8.2230    8.8720   46.1380 C.3    91  LYS91       0.0035
     78  CD         7.3030    9.9850   46.6520 C.3    91  LYS91       0.0206
     79  CE         7.4720   11.2570   45.7860 C.3    91  LYS91       0.1093
     80  NZ         7.4360   12.4840   46.6500 N.3    91  LYS91      -0.1314
@<TRIPOS>BOND
     1     1     2    1
     2     5     2    1
     3     5     6    1
     4     2     3    1
     5     4     3    2
     6     3    13   am
     7     6     7   ar
     8     6     8   ar
     9     7     9   ar
    10     8    10   ar
    11    13    14    1
    12    21    20    1
    13     9    11   ar
    14    19    20    1
    15    19    18    1
    16    14    17    1
    17    14    15    1
    18    17    18    1
    19    10    11   ar
    20    11    12    1
    21    68    69    2
    22    68    67    1
    23    39    37    1
    24    70    67    1
    25    70    71    1
    26    15    16    2
    27    15    22   am
    28    67    66    1
    29    37    36    1
    30    22    23    1
    31    38    36    1
    32    66    59   am
    33    36    33    1
    34    60    59    2
    35    23    24    1
    36    23    26    1
    37    59    58    1
    38    25    24    2
    39    33    32    1
    40    33    34    1
    41    24    28   am
    42    26    27    1
    43    62    63    1
    44    62    61    1
    45    63    64    1
    46    32    30   am
    47    34    35    2
    48    50    47    1
    49    64    65    1
    50    58    61    1
    51    58    57    1
    52    31    30    2
    53    28    29    1
    54    30    29    1
    55    57    53   am
    56    47    46    1
    57    47    48    1
    58    46    42   am
    59    53    54    2
    60    53    52    1
    61    48    51   am
    62    48    49    2
    63    51    52    1
    64    42    43    2
    65    42    41    1
    66    56    55    1
    67    52    55    1
    68    41    40    1
    69    41    44    1
    70    72    73    1
    71    44    45    1
    72    73    74    1
    73    73    76    1
    74    74    75    2
    75    76    77    1
    76    79    80    1
    77    79    78    1
    78    77    78    1
