@<TRIPOS>MOLECULE
tmp/3t2cA00.pdb
 146 139 0 0 0
SMALL
GASTEIGER

@<TRIPOS>ATOM
      1  N        -56.8240   26.9850   25.9750 N.3    11  ASP11      -0.1239
      2  CA       -58.1700   27.6340   26.0750 C.3    11  ASP11       0.1674
      3  C        -58.9840   26.7920   27.0120 C.2    11  ASP11       0.2266
      4  O        -59.1820   25.5840   26.7350 O.2    11  ASP11      -0.2867
      5  CB       -58.7670   27.6900   24.6940 C.3    11  ASP11       0.1410
      6  CG       -60.1450   28.2160   24.5670 C.2    11  ASP11       0.3668
      7  OD1      -60.9050   28.3950   25.5500 O.co2  11  ASP11      -0.2456
      8  OD2      -60.4980   28.4740   23.3720 O.co2  11  ASP11      -0.2456
      9  N        -65.8600   32.5560   21.7720 N.3    18  HIS18      -0.1241
     10  CA       -64.4240   32.3830   21.6320 C.3    18  HIS18       0.1621
     11  C        -63.7110   33.7460   21.5230 C.2    18  HIS18       0.2264
     12  O        -62.5930   33.7840   20.9870 O.2    18  HIS18      -0.2867
     13  CB       -64.1120   31.4750   20.4400 C.3    18  HIS18       0.0745
     14  CG       -64.7340   30.1240   20.5430 C.ar   18  HIS18       0.0817
     15  ND1      -64.2330   29.1170   21.3820 N.ar   18  HIS18      -0.2268
     16  CD2      -65.7940   29.6000   19.9000 C.ar   18  HIS18       0.1154
     17  CE1      -65.0070   28.0480   21.2270 C.ar   18  HIS18       0.1986
     18  NE2      -65.9500   28.2910   20.3290 N.ar   18  HIS18      -0.2212
     19  N        -58.9650   33.9350   23.1470 N.3    52  ASP52      -0.1239
     20  CA       -59.4710   33.0410   24.1750 C.3    52  ASP52       0.1674
     21  C        -58.4240   32.0420   24.6710 C.2    52  ASP52       0.2266
     22  O        -58.8120   31.0850   25.3820 O.2    52  ASP52      -0.2867
     23  CB       -60.7370   32.3280   23.7270 C.3    52  ASP52       0.1410
     24  CG       -60.5440   31.4120   22.5590 C.2    52  ASP52       0.3668
     25  OD1      -59.4180   31.3550   21.9920 O.co2  52  ASP52      -0.2456
     26  OD2      -61.5520   30.7700   22.1310 O.co2  52  ASP52      -0.2456
     27  N        -62.0810   23.8080   27.0890 N.3    95  GLN95      -0.1231
     28  CA       -62.0660   23.4770   25.6370 C.3    95  GLN95       0.1698
     29  C        -60.8890   22.5970   25.2310 C.2    95  GLN95       0.2592
     30  O        -61.0770   21.5690   24.4810 O.2    95  GLN95      -0.2718
     31  CB       -62.0590   24.7480   24.7820 C.3    95  GLN95       0.0381
     32  CG       -62.3380   24.4750   23.2990 C.3    95  GLN95       0.0905
     33  CD       -62.5210   25.7520   22.4240 C.2    95  GLN95       0.2608
     34  OE1      -62.7370   26.8190   22.9350 O.2    95  GLN95      -0.2717
     35  NE2      -62.3500   25.6470   21.1180 N.am   95  GLN95      -0.0878
     36  N        -59.6980   22.9360   25.6620 N.am   96  ASP96      -0.1974
     37  CA       -58.5130   22.2710   25.1520 C.3    96  ASP96       0.1709
     38  C        -58.0110   21.1890   25.9910 C.2    96  ASP96       0.2293
     39  O        -56.9070   20.6130   25.7170 O.2    96  ASP96      -0.2864
     40  CB       -57.4000   23.3010   24.9310 C.3    96  ASP96       0.1436
     41  CG       -57.6110   24.2420   23.7520 C.2    96  ASP96       0.3671
     42  OD1      -58.6040   24.0910   23.0170 O.co2  96  ASP96      -0.2456
     43  OD2      -56.7520   25.1480   23.6250 O.co2  96  ASP96      -0.2456
     44  N        -54.0610   33.6200   18.1080 N.3   132  ASP132     -0.1225
     45  CA       -55.3670   33.0090   18.2200 C.3   132  ASP132      0.1805
     46  C        -56.0050   32.9710   16.8580 C.2   132  ASP132      0.2597
     47  O        -55.7330   33.7850   15.9610 O.2   132  ASP132     -0.2718
     48  CB       -56.2400   33.7850   19.2140 C.3   132  ASP132      0.1424
     49  CG       -57.5300   33.1170   19.5980 C.2   132  ASP132      0.3668
     50  OD1      -57.5730   31.8420   19.5110 O.co2 132  ASP132     -0.2456
     51  OD2      -58.4800   33.7820   19.9970 O.co2 132  ASP132     -0.2456
     52  N        -56.8760   31.9820   16.7330 N.am  133  LYS133     -0.1979
     53  CA       -57.7050   31.7350   15.5650 C.3   133  LYS133      0.1596
     54  C        -56.8580   31.2500   14.4020 C.2   133  LYS133      0.2287
     55  O        -57.1350   31.5230   13.2320 O.2   133  LYS133     -0.2864
     56  CB       -58.6440   32.8760   15.2420 C.3   133  LYS133      0.0298
     57  CG       -59.5130   33.2650   16.4080 C.3   133  LYS133      0.0038
     58  CD       -60.5640   32.2380   16.7590 C.3   133  LYS133      0.0206
     59  CE       -61.4870   32.6240   17.9100 C.3   133  LYS133      0.1093
     60  NZ       -60.8610   32.4600   19.2660 N.3   133  LYS133     -0.1314
     61  N        -55.0940   20.0690   17.2790 N.3   222  LEU222     -0.1245
     62  CA       -56.2390   19.6350   18.0050 C.3   222  LEU222      0.1561
     63  C        -57.1220   18.6520   17.2040 C.2   222  LEU222      0.2260
     64  O        -57.6370   17.6750   17.7700 O.2   222  LEU222     -0.2867
     65  CB       -57.1260   20.7840   18.5210 C.3   222  LEU222      0.0270
     66  CG       -56.5100   21.8850   19.3590 C.3   222  LEU222      0.0019
     67  CD1      -57.4380   22.9870   19.8260 C.3   222  LEU222      0.0001
     68  CD2      -55.7330   21.3620   20.3200 C.3   222  LEU222      0.0001
     69  N        -62.8670   18.5420   14.2970 N.3   229  TYR229     -0.1241
     70  CA       -62.6620   19.9500   14.6510 C.3   229  TYR229      0.1605
     71  C        -63.2570   20.2350   16.0070 C.2   229  TYR229      0.2264
     72  O        -64.4740   20.0750   16.2230 O.2   229  TYR229     -0.2867
     73  CB       -63.3150   20.8530   13.6060 C.3   229  TYR229      0.0534
     74  CG       -63.4340   22.3040   14.0350 C.ar  229  TYR229     -0.0201
     75  CD1      -62.2910   23.1300   14.1330 C.ar  229  TYR229     -0.0009
     76  CD2      -64.6650   22.8490   14.4070 C.ar  229  TYR229     -0.0009
     77  CE1      -62.3900   24.4370   14.5900 C.ar  229  TYR229      0.0417
     78  CE2      -64.7550   24.1960   14.8540 C.ar  229  TYR229      0.0417
     79  CZ       -63.6290   24.9380   14.9580 C.ar  229  TYR229      0.1957
     80  OH       -63.8040   26.2150   15.4180 O.3   229  TYR229     -0.2866
     81  N        -61.6280   23.1930   17.6460 N.3   231  GLY231     -0.1210
     82  CA       -61.0300   24.5540   17.8170 C.3   231  GLY231      0.1956
     83  C        -59.9020   24.8740   16.9540 C.2   231  GLY231      0.2611
     84  O        -59.4640   23.8630   16.2260 O.2   231  GLY231     -0.2717
     85  N        -59.4400   26.1570   16.9530 N.am  232  LYS232     -0.1979
     86  CA       -58.1550   26.3070   16.2190 C.3   232  LYS232      0.1596
     87  C        -57.0310   25.9320   17.2070 C.2   232  LYS232      0.2287
     88  O        -57.1290   26.1080   18.4170 O.2   232  LYS232     -0.2864
     89  CB       -58.0790   27.7870   15.7350 C.3   232  LYS232      0.0298
     90  CG       -58.7090   28.1000   14.3760 C.3   232  LYS232      0.0038
     91  CD       -60.1910   28.0030   14.3070 C.3   232  LYS232      0.0206
     92  CE       -60.9090   28.8380   15.3460 C.3   232  LYS232      0.1093
     93  NZ       -62.4110   28.6690   15.3400 N.3   232  LYS232     -0.1314
     94  N        -53.9700   27.4240   17.8450 N.3   234  ASP234     -0.1239
     95  CA       -53.6630   28.6210   18.5670 C.3   234  ASP234      0.1674
     96  C        -52.2800   28.4740   19.1760 C.2   234  ASP234      0.2266
     97  O        -52.1260   28.2420   20.3570 O.2   234  ASP234     -0.2867
     98  CB       -54.7850   29.0140   19.4790 C.3   234  ASP234      0.1410
     99  CG       -56.1030   29.1310   18.7940 C.2   234  ASP234      0.3668
    100  OD1      -56.1120   29.4420   17.5860 O.co2 234  ASP234     -0.2456
    101  OD2      -57.1550   28.9170   19.4620 O.co2 234  ASP234     -0.2456
    102  N        -59.4390   31.1140   11.6430 N.3   264  TRP264     -0.1227
    103  CA       -60.5380   32.0470   11.6680 C.3   264  TRP264      0.1737
    104  C        -61.8420   31.2920   11.9370 C.2   264  TRP264      0.2595
    105  O        -61.8300   30.3110   12.7090 O.2   264  TRP264     -0.2718
    106  CB       -60.5280   32.9360   10.4000 C.3   264  TRP264      0.0564
    107  CG       -61.1180   34.2900   10.5220 C.ar  264  TRP264      0.0003
    108  CD1      -61.6750   34.8900   11.6250 C.ar  264  TRP264      0.0946
    109  CD2      -61.1490   35.2980    9.4740 C.ar  264  TRP264      0.0152
    110  NE1      -62.0460   36.1760   11.3370 N.ar  264  TRP264     -0.2442
    111  CE2      -61.7320   36.4470   10.0270 C.ar  264  TRP264      0.0810
    112  CE3      -60.7510   35.2970    8.1570 C.ar  264  TRP264      0.0012
    113  CZ2      -61.9190   37.6080    9.2800 C.ar  264  TRP264      0.0191
    114  CZ3      -60.9220   36.4480    7.4030 C.ar  264  TRP264      0.0001
    115  CH2      -61.4900   37.5720    7.9570 C.ar  264  TRP264      0.0015
    116  N        -62.9800   31.7110   11.4230 N.am  265  MET265     -0.1965
    117  CA       -64.2670   31.1450   11.8090 C.3   265  MET265      0.1736
    118  C        -64.2730   29.6360   11.6210 C.2   265  MET265      0.2616
    119  O        -64.0170   29.1480   10.5030 O.2   265  MET265     -0.2715
    120  CB       -65.3660   31.7900   10.9850 C.3   265  MET265      0.0427
    121  CG       -66.7540   31.2630   11.2160 C.3   265  MET265      0.0599
    122  SD       -67.3860   31.3520   12.8780 S.3   265  MET265     -0.1393
    123  CE       -67.3020   33.1310   13.1610 C.3   265  MET265      0.0692
    124  N        -64.6800   28.9440   12.6590 N.am  266  ARG266     -0.1963
    125  CA       -64.9590   27.5300   12.5800 C.3   266  ARG266      0.1729
    126  C        -63.7250   26.7130   12.1330 C.2   266  ARG266      0.2616
    127  O        -63.8840   25.5790   11.6760 O.2   266  ARG266     -0.2715
    128  CB       -66.1810   27.1980   11.7350 C.3   266  ARG266      0.0348
    129  CG       -67.4560   27.7460   12.3650 C.3   266  ARG266      0.0492
    130  CD       -68.6560   27.7300   11.4730 C.3   266  ARG266      0.2205
    131  NE       -69.8240   28.3740   12.0290 N.pl3 266  ARG266     -0.0865
    132  CZ       -70.6450   27.8450   12.9010 C.cat 266  ARG266      0.5346
    133  NH1      -70.4550   26.5900   13.3220 N.pl3 266  ARG266      0.1354
    134  NH2      -71.6480   28.5560   13.3710 N.pl3 266  ARG266      0.1354
    135  N        -62.5050   27.2560   12.3140 N.am  267  GLY267     -0.1955
    136  CA       -61.2980   26.5240   11.8570 C.3   267  GLY267      0.1869
    137  C        -61.2830   26.2310   10.3910 C.2   267  GLY267      0.2309
    138  O        -60.5900   25.2860    9.9840 O.2   267  GLY267     -0.2863
    139  N        -65.1580   35.8980   14.2130 N.3   297  ASP297     -0.1239
    140  CA       -64.2990   35.2640   15.2290 C.3   297  ASP297      0.1674
    141  C        -62.8440   35.5570   14.9430 C.2   297  ASP297      0.2266
    142  O        -61.9660   34.7120   15.1310 O.2   297  ASP297     -0.2867
    143  CB       -64.5410   33.7550   15.4150 C.3   297  ASP297      0.1410
    144  CG       -65.8150   33.4310   16.1610 C.2   297  ASP297      0.3668
    145  OD1      -66.4750   34.2510   16.7650 O.co2 297  ASP297     -0.2456
    146  OD2      -66.1820   32.1970   16.0380 O.co2 297  ASP297     -0.2456
@<TRIPOS>BOND
     1   114   115   ar
     2   114   112   ar
     3   115   113   ar
     4   112   109   ar
     5   113   111   ar
     6   109   111   ar
     7   109   107   ar
     8   138   137    2
     9   111   110   ar
    10   137   136    1
    11   106   107    1
    12   106   103    1
    13   119   118    2
    14   107   108   ar
    15   120   121    1
    16   120   117    1
    17   121   122    1
    18   110   108   ar
    19   116   117    1
    20   116   104   am
    21   130   131    1
    22   130   129    1
    23   118   117    1
    24   118   124   am
    25   102   103    1
    26   103   104    1
    27   127   126    2
    28   128   129    1
    29   128   125    1
    30   136   135    1
    31   104   105    2
    32   131   132    2
    33   126   135   am
    34   126   125    1
    35   125   124    1
    36   122   123    1
    37   132   133    1
    38   132   134    1
    39    55    54    2
    40    73    74    1
    41    73    70    1
    42    74    75   ar
    43    74    76   ar
    44    75    77   ar
    45   139   140    1
    46    69    70    1
    47    91    90    1
    48    91    92    1
    49    90    89    1
    50    54    53    1
    51    76    78   ar
    52    77    79   ar
    53    70    71    1
    54    78    79   ar
    55   141   142    2
    56   141   140    1
    57    79    80    1
    58   140   143    1
    59    56    53    1
    60    56    57    1
    61    93    92    1
    62   143   144    1
    63    53    52    1
    64    89    86    1
    65    47    46    2
    66    71    72    2
    67   146   144   ar
    68   144   145   ar
    69    86    85    1
    70    86    87    1
    71    84    83    2
    72    57    58    1
    73    52    46   am
    74    58    59    1
    75    46    45    1
    76    85    83   am
    77    83    82    1
    78    63    64    2
    79    63    62    1
    80    87    88    2
    81    61    62    1
    82   100    99   ar
    83    81    82    1
    84    94    95    1
    85    59    60    1
    86    62    65    1
    87    44    45    1
    88    45    48    1
    89    65    66    1
    90    95    96    1
    91    95    98    1
    92    99   101   ar
    93    99    98    1
    94    96    97    2
    95    48    49    1
    96    66    67    1
    97    66    68    1
    98    50    49   ar
    99    49    51   ar
   100    16    18   ar
   101    16    14   ar
   102    18    17   ar
   103    13    14    1
   104    13    10    1
   105    14    15   ar
   106    12    11    2
   107    35    33   am
   108    17    15   ar
   109    11    10    1
   110    10     9    1
   111    25    24   ar
   112    26    24   ar
   113    33    34    2
   114    33    32    1
   115    24    23    1
   116    42    41   ar
   117    19    20    1
   118    32    31    1
   119     8     6   ar
   120    43    41   ar
   121    23    20    1
   122    41    40    1
   123    20    21    1
   124    30    29    2
   125     6     5    1
   126     6     7   ar
   127    21    22    2
   128     5     2    1
   129    31    28    1
   130    40    37    1
   131    37    36    1
   132    37    38    1
   133    29    28    1
   134    29    36   am
   135    28    27    1
   136    39    38    2
   137     1     2    1
   138     2     3    1
   139     4     3    2
