@<TRIPOS>MOLECULE
tmp/3t2dA00.pdb
 166 160 0 0 0
SMALL
GASTEIGER

@<TRIPOS>ATOM
      1  N        -56.9000   26.8050   26.1460 N.3    11  ASP11      -0.1239
      2  CA       -58.2160   27.4760   26.2370 C.3    11  ASP11       0.1674
      3  C        -59.0840   26.6540   27.1890 C.2    11  ASP11       0.2266
      4  O        -59.2850   25.4450   26.9390 O.2    11  ASP11      -0.2867
      5  CB       -58.8060   27.5170   24.8630 C.3    11  ASP11       0.1410
      6  CG       -60.2100   28.0400   24.7310 C.2    11  ASP11       0.3668
      7  OD1      -60.9850   28.1870   25.6660 O.co2  11  ASP11      -0.2456
      8  OD2      -60.5580   28.2930   23.5360 O.co2  11  ASP11      -0.2456
      9  N        -65.9260   32.3760   21.8710 N.3    18  HIS18      -0.1241
     10  CA       -64.5180   32.1390   21.7120 C.3    18  HIS18       0.1621
     11  C        -63.7390   33.4780   21.5510 C.2    18  HIS18       0.2264
     12  O        -62.6550   33.4700   20.9550 O.2    18  HIS18      -0.2867
     13  CB       -64.2300   31.1930   20.5590 C.3    18  HIS18       0.0745
     14  CG       -64.8470   29.8300   20.6880 C.ar   18  HIS18       0.0817
     15  ND1      -64.2830   28.8240   21.4480 N.ar   18  HIS18      -0.2268
     16  CD2      -65.9710   29.3200   20.1070 C.ar   18  HIS18       0.1154
     17  CE1      -65.0260   27.7440   21.2680 C.ar   18  HIS18       0.1986
     18  NE2      -66.0690   28.0060   20.4720 N.ar   18  HIS18      -0.2212
     19  N        -59.0840   33.7100   23.1240 N.3    52  ASP52      -0.1239
     20  CA       -59.5490   32.7790   24.1370 C.3    52  ASP52       0.1674
     21  C        -58.4490   31.8470   24.6550 C.2    52  ASP52       0.2266
     22  O        -58.8130   30.8970   25.3650 O.2    52  ASP52      -0.2867
     23  CB       -60.8050   32.0180   23.6830 C.3    52  ASP52       0.1410
     24  CG       -60.5820   31.1700   22.4560 C.2    52  ASP52       0.3668
     25  OD1      -59.4850   31.1340   21.9210 O.co2  52  ASP52      -0.2456
     26  OD2      -61.6340   30.4850   22.0970 O.co2  52  ASP52      -0.2456
     27  N        -67.9510   29.9350   27.8820 N.3    91  TYR91      -0.1241
     28  CA       -68.1960   29.1780   26.6880 C.3    91  TYR91       0.1605
     29  C        -67.0590   28.2360   26.3670 C.2    91  TYR91       0.2264
     30  O        -65.8800   28.6370   26.3350 O.2    91  TYR91      -0.2867
     31  CB       -68.5070   30.0970   25.4660 C.3    91  TYR91       0.0534
     32  CG       -69.1100   29.3080   24.3610 C.ar   91  TYR91      -0.0201
     33  CD1      -70.4110   28.8630   24.4790 C.ar   91  TYR91      -0.0009
     34  CD2      -68.3620   28.8740   23.2810 C.ar   91  TYR91      -0.0009
     35  CE1      -70.9300   27.9990   23.5470 C.ar   91  TYR91       0.0417
     36  CE2      -68.8630   28.0070   22.3480 C.ar   91  TYR91       0.0417
     37  CZ       -70.1730   27.5330   22.4710 C.ar   91  TYR91       0.1957
     38  OH       -70.6590   26.6530   21.5460 O.3    91  TYR91      -0.2866
     39  N        -62.3680   23.7400   27.6340 N.3    95  GLN95      -0.1245
     40  CA       -62.2970   23.3420   26.2020 C.3    95  GLN95       0.1566
     41  C        -61.1750   22.3660   25.8710 C.2    95  GLN95       0.2260
     42  O        -61.4560   21.2960   25.3720 O.2    95  GLN95      -0.2867
     43  CB       -62.1700   24.6180   25.2800 C.3    95  GLN95       0.0367
     44  CG       -62.3590   24.2870   23.8600 C.3    95  GLN95       0.0905
     45  CD       -62.0240   25.4860   22.9990 C.2    95  GLN95       0.2608
     46  OE1      -62.7810   26.5130   22.9360 O.2    95  GLN95      -0.2717
     47  NE2      -60.8040   25.4450   22.4110 N.am   95  GLN95      -0.0878
     48  N        -68.5630   23.5120   20.1900 N.3   104  GLY104     -0.1210
     49  CA       -68.7140   22.6590   19.0200 C.3   104  GLY104      0.1956
     50  C        -67.4520   22.4110   18.2550 C.2   104  GLY104      0.2612
     51  O        -67.4610   21.7190   17.2350 O.2   104  GLY104     -0.2717
     52  N        -66.2990   22.9380   18.7260 N.am  105  ASN105     -0.1960
     53  CA       -65.0070   22.8160   18.0800 C.3   105  ASN105      0.1819
     54  C        -64.2230   21.6700   18.6680 C.2   105  ASN105      0.2621
     55  O        -64.7700   20.8680   19.4620 O.2   105  ASN105     -0.2715
     56  CB       -64.2520   24.1540   18.0990 C.3   105  ASN105      0.1195
     57  CG       -63.9340   24.6840   19.4960 C.2   105  ASN105      0.2630
     58  OD1      -62.8610   25.3850   19.6710 O.2   105  ASN105     -0.2716
     59  ND2      -64.7690   24.4610   20.4430 N.am  105  ASN105     -0.0877
     60  N        -62.9510   21.5210   18.2830 N.am  106  ILE106     -0.1977
     61  CA       -62.1280   20.4210   18.7650 C.3   106  ILE106      0.1596
     62  C        -61.7740   20.6100   20.2360 C.2   106  ILE106      0.2287
     63  O        -61.1890   21.6280   20.6460 O.2   106  ILE106     -0.2864
     64  CB       -60.8050   20.3210   17.9140 C.3   106  ILE106      0.0276
     65  CG1      -61.1240   19.8180   16.4600 C.3   106  ILE106      0.0022
     66  CG2      -59.7630   19.4110   18.5980 C.3   106  ILE106      0.0022
     67  CD1      -59.9760   20.2920   15.4860 C.3   106  ILE106      0.0001
     68  N        -54.1390   33.4340   18.2420 N.3   132  ASP132     -0.1225
     69  CA       -55.4310   32.8010   18.3240 C.3   132  ASP132      0.1805
     70  C        -56.0740   32.7950   16.9650 C.2   132  ASP132      0.2597
     71  O        -55.8040   33.6490   16.0880 O.2   132  ASP132     -0.2718
     72  CB       -56.3410   33.5120   19.3660 C.3   132  ASP132      0.1424
     73  CG       -57.6680   32.8120   19.6310 C.2   132  ASP132      0.3668
     74  OD1      -57.7320   31.5700   19.4730 O.co2 132  ASP132     -0.2456
     75  OD2      -58.6210   33.5290   19.9900 O.co2 132  ASP132     -0.2456
     76  N        -56.9110   31.8080   16.7860 N.am  133  LYS133     -0.1979
     77  CA       -57.6850   31.5570   15.5730 C.3   133  LYS133      0.1596
     78  C        -56.8020   31.2060   14.4370 C.2   133  LYS133      0.2287
     79  O        -57.0230   31.5840   13.2650 O.2   133  LYS133     -0.2864
     80  CB       -58.6510   32.6740   15.3090 C.3   133  LYS133      0.0298
     81  CG       -59.5710   33.0230   16.4800 C.3   133  LYS133      0.0038
     82  CD       -60.6490   31.9790   16.7390 C.3   133  LYS133      0.0206
     83  CE       -61.5470   32.3270   17.9050 C.3   133  LYS133      0.1093
     84  NZ       -60.9280   32.1040   19.2640 N.3   133  LYS133     -0.1314
     85  N        -54.5470   23.6680   17.6880 N.3   233  ASP233     -0.1225
     86  CA       -54.3900   24.9810   17.1060 C.3   233  ASP233      0.1805
     87  C        -54.0210   26.0210   18.1730 C.2   233  ASP233      0.2597
     88  O        -53.8090   25.7560   19.3140 O.2   233  ASP233     -0.2718
     89  CB       -55.6230   25.3300   16.2500 C.3   233  ASP233      0.1424
     90  CG       -56.8980   25.6490   17.0820 C.2   233  ASP233      0.3668
     91  OD1      -56.8670   25.6760   18.3030 O.co2 233  ASP233     -0.2456
     92  OD2      -57.9550   25.9020   16.3900 O.co2 233  ASP233     -0.2456
     93  N        -53.8520   27.2610   17.7100 N.am  234  ASP234     -0.1974
     94  CA       -53.6220   28.4430   18.4930 C.3   234  ASP234      0.1709
     95  C        -52.2230   28.3540   19.0930 C.2   234  ASP234      0.2293
     96  O        -52.0620   28.2360   20.3120 O.2   234  ASP234     -0.2864
     97  CB       -54.7120   28.7710   19.4430 C.3   234  ASP234      0.1436
     98  CG       -56.0810   28.8860   18.8120 C.2   234  ASP234      0.3671
     99  OD1      -56.1710   29.1370   17.5920 O.co2 234  ASP234     -0.2456
    100  OD2      -57.0690   28.6930   19.5270 O.co2 234  ASP234     -0.2456
    101  N        -59.2510   31.2300   11.6230 N.3   264  TRP264     -0.1227
    102  CA       -60.3660   32.1930   11.6830 C.3   264  TRP264      0.1737
    103  C        -61.6490   31.4180   11.9920 C.2   264  TRP264      0.2595
    104  O        -61.6280   30.4560   12.7870 O.2   264  TRP264     -0.2718
    105  CB       -60.4070   33.0220   10.3750 C.3   264  TRP264      0.0564
    106  CG       -61.0330   34.3640   10.5120 C.ar  264  TRP264      0.0003
    107  CD1      -61.6080   34.9540   11.6070 C.ar  264  TRP264      0.0946
    108  CD2      -61.0790   35.3730    9.4650 C.ar  264  TRP264      0.0152
    109  NE1      -62.0070   36.2430   11.3150 N.ar  264  TRP264     -0.2442
    110  CE2      -61.7000   36.5160   10.0040 C.ar  264  TRP264      0.0810
    111  CE3      -60.6890   35.3930    8.1280 C.ar  264  TRP264      0.0012
    112  CZ2      -61.8900   37.6720    9.2410 C.ar  264  TRP264      0.0191
    113  CZ3      -60.8540   36.5500    7.3980 C.ar  264  TRP264      0.0001
    114  CH2      -61.4650   37.6380    7.9260 C.ar  264  TRP264      0.0015
    115  N        -62.8020   31.8430   11.5110 N.am  265  MET265     -0.1965
    116  CA       -64.0900   31.2510   11.8860 C.3   265  MET265      0.1736
    117  C        -64.0810   29.7350   11.7070 C.2   265  MET265      0.2616
    118  O        -63.7890   29.2210   10.6180 O.2   265  MET265     -0.2715
    119  CB       -65.1910   31.8590   11.0480 C.3   265  MET265      0.0427
    120  CG       -66.5740   31.2750   11.2480 C.3   265  MET265      0.0599
    121  SD       -67.2520   31.4170   12.9100 S.3   265  MET265     -0.1393
    122  CE       -67.2340   33.2110   13.1140 C.3   265  MET265      0.0692
    123  N        -64.4490   29.0320   12.7710 N.am  266  ARG266     -0.1960
    124  CA       -64.6970   27.5980   12.6940 C.3   266  ARG266      0.1772
    125  C        -63.4580   26.8100   12.2440 C.2   266  ARG266      0.2620
    126  O        -63.5500   25.6800   11.7670 O.2   266  ARG266     -0.2715
    127  CB       -65.9240   27.2700   11.8800 C.3   266  ARG266      0.0603
    128  CG       -67.1880   27.7680   12.5320 C.2   266  ARG266      0.0163
    129  CD       -68.4120   27.7890   11.6360 C.2   266  ARG266      0.1886
    130  NE       -69.5770   28.4190   12.1950 N.pl3 266  ARG266     -0.0578
    131  CZ       -70.3750   27.8630   13.0900 C.cat 266  ARG266      0.5393
    132  NH1      -70.1480   26.6210   13.4910 N.pl3 266  ARG266      0.1358
    133  NH2      -71.4170   28.5260   13.5380 N.pl3 266  ARG266      0.1358
    134  N        -62.2520   27.3810   12.4250 N.am  267  GLY267     -0.1954
    135  CA       -61.0700   26.6840   12.0140 C.3   267  GLY267      0.1869
    136  C        -61.0530   26.3090   10.5500 C.2   267  GLY267      0.2309
    137  O        -60.4390   25.3090   10.1580 O.2   267  GLY267     -0.2863
    138  N        -65.1190   35.9750   14.2980 N.3   297  ASP297     -0.1239
    139  CA       -64.2570   35.3090   15.2870 C.3   297  ASP297      0.1674
    140  C        -62.7930   35.5860   14.9810 C.2   297  ASP297      0.2266
    141  O        -61.9350   34.7270   15.1910 O.2   297  ASP297     -0.2867
    142  CB       -64.5540   33.8110   15.4770 C.3   297  ASP297      0.1410
    143  CG       -65.8150   33.5030   16.2030 C.2   297  ASP297      0.3668
    144  OD1      -66.4330   34.3280   16.8600 O.co2 297  ASP297     -0.2456
    145  OD2      -66.2150   32.3080   16.0750 O.co2 297  ASP297     -0.2456
    146  N        -62.0670   22.3660    9.9530 N.3   357  GLU357     -0.1231
    147  CA       -62.4220   21.8180   11.2290 C.3   357  GLU357      0.1699
    148  C        -63.8880   21.4760   11.3160 C.2   357  GLU357      0.2592
    149  O        -64.3010   20.5590   12.0800 O.2   357  GLU357     -0.2718
    150  CB       -61.9970   22.8140   12.3310 C.3   357  GLU357      0.0402
    151  CG       -62.3080   22.4230   13.7690 C.3   357  GLU357      0.1161
    152  CD       -61.7810   23.3860   14.7940 C.2   357  GLU357      0.3649
    153  OE1      -61.1160   24.3650   14.4180 O.co2 357  GLU357     -0.2457
    154  OE2      -61.9450   23.1580   16.0110 O.co2 357  GLU357     -0.2457
    155  N        -64.7530   22.2280   10.6390 N.am  358  TYR358     -0.1976
    156  CA       -66.1950   21.9600   10.5840 C.3   358  TYR358      0.1639
    157  C        -66.4930   21.5930    9.1450 C.2   358  TYR358      0.2290
    158  O        -66.0830   22.2940    8.2040 O.2   358  TYR358     -0.2864
    159  CB       -67.0240   23.1930   10.9440 C.3   358  TYR358      0.0560
    160  CG       -67.0820   23.5640   12.4120 C.ar  358  TYR358     -0.0198
    161  CD1      -65.9210   23.9850   13.0800 C.ar  358  TYR358     -0.0009
    162  CD2      -68.2620   23.6710   13.1160 C.ar  358  TYR358     -0.0009
    163  CE1      -65.9240   24.4360   14.4220 C.ar  358  TYR358      0.0417
    164  CE2      -68.2350   24.0400   14.4690 C.ar  358  TYR358      0.0417
    165  CZ       -67.0790   24.4840   15.0820 C.ar  358  TYR358      0.1957
    166  OH       -67.0770   25.0330   16.3500 O.3   358  TYR358     -0.2866
@<TRIPOS>BOND
     1   113   114   ar
     2   113   111   ar
     3   114   112   ar
     4   111   108   ar
     5   158   157    2
     6   157   156    1
     7   112   110   ar
     8   108   110   ar
     9   108   106   ar
    10   146   147    1
    11   110   109   ar
    12   137   136    2
    13   105   106    1
    14   105   102    1
    15   106   107   ar
    16   136   135    1
    17   156   155    1
    18   156   159    1
    19   118   117    2
    20   155   148   am
    21   159   160    1
    22   119   120    1
    23   119   116    1
    24   147   148    1
    25   147   150    1
    26   120   121    1
    27   109   107   ar
    28   148   149    2
    29   115   116    1
    30   115   103   am
    31   101   102    1
    32   129   130    1
    33   129   128    2
    34   102   103    1
    35   117   116    1
    36   117   123   am
    37   126   125    2
    38   127   128    1
    39   127   124    1
    40   103   104    2
    41   135   134    1
    42   130   131    2
    43   125   134   am
    44   125   124    1
    45   150   151    1
    46   160   161   ar
    47   160   162   ar
    48   124   123    1
    49   121   122    1
    50   161   163   ar
    51   131   132    1
    52   131   133    1
    53   162   164   ar
    54    79    78    2
    55   151   152    1
    56   138   139    1
    57   153   152   ar
    58   163   165   ar
    59    78    77    1
    60   164   165   ar
    61   152   154   ar
    62   140   141    2
    63   140   139    1
    64   165   166    1
    65   139   142    1
    66    80    77    1
    67    80    81    1
    68   142   143    1
    69    67    65    1
    70    77    76    1
    71   145   143   ar
    72    71    70    2
    73   143   144   ar
    74    89    90    1
    75    89    86    1
    76    92    90   ar
    77    65    64    1
    78    81    82    1
    79    82    83    1
    80    76    70   am
    81    70    69    1
    82    90    91   ar
    83    86    85    1
    84    86    87    1
    85    51    50    2
    86    99    98   ar
    87    93    87   am
    88    93    94    1
    89    83    84    1
    90    64    66    1
    91    64    61    1
    92    53    56    1
    93    53    54    1
    94    53    52    1
    95    56    57    1
    96    87    88    2
    97    68    69    1
    98    50    52   am
    99    50    49    1
   100    60    54   am
   101    60    61    1
   102    69    72    1
   103    94    95    1
   104    94    97    1
   105    54    55    2
   106    61    62    1
   107    98    97    1
   108    98   100   ar
   109    49    48    1
   110    95    96    2
   111    72    73    1
   112    74    73   ar
   113    57    58    2
   114    57    59   am
   115    73    75   ar
   116    16    18   ar
   117    16    14   ar
   118    62    63    2
   119    18    17   ar
   120    13    14    1
   121    13    10    1
   122    14    15   ar
   123    12    11    2
   124    17    15   ar
   125    38    37    1
   126    11    10    1
   127    10     9    1
   128    25    24   ar
   129    26    24   ar
   130    36    37   ar
   131    36    34   ar
   132    47    45   am
   133    24    23    1
   134    37    35   ar
   135    46    45    2
   136    45    44    1
   137    19    20    1
   138    34    32   ar
   139     8     6   ar
   140    35    33   ar
   141    23    20    1
   142    44    43    1
   143    20    21    1
   144    32    33   ar
   145    32    31    1
   146    21    22    2
   147     6     5    1
   148     6     7   ar
   149     5     2    1
   150    43    40    1
   151    42    41    2
   152    31    28    1
   153    41    40    1
   154     1     2    1
   155    40    39    1
   156     2     3    1
   157    30    29    2
   158    29    28    1
   159    28    27    1
   160     4     3    2
