@<TRIPOS>MOLECULE
tmp/3t2eA00.pdb
 122 118 0 0 0
SMALL
GASTEIGER

@<TRIPOS>ATOM
      1  N        -65.8390   32.5880   21.7380 N.3    18  HIS18      -0.1241
      2  CA       -64.3740   32.4070   21.6720 C.3    18  HIS18       0.1621
      3  C        -63.6540   33.7670   21.5230 C.2    18  HIS18       0.2264
      4  O        -62.5440   33.8430   20.9900 O.2    18  HIS18      -0.2867
      5  CB       -64.0400   31.5370   20.5010 C.3    18  HIS18       0.0745
      6  CG       -64.6240   30.1440   20.6140 C.ar   18  HIS18       0.0817
      7  ND1      -64.0380   29.1710   21.4030 N.ar   18  HIS18      -0.2268
      8  CD2      -65.6690   29.5500   20.0020 C.ar   18  HIS18       0.1154
      9  CE1      -64.7200   28.0490   21.3090 C.ar   18  HIS18       0.1986
     10  NE2      -65.7190   28.2400   20.4630 N.ar   18  HIS18      -0.2212
     11  N        -59.0220   33.9260   23.1370 N.3    52  ASP52      -0.1239
     12  CA       -59.5180   33.0300   24.1960 C.3    52  ASP52       0.1674
     13  C        -58.4360   32.0410   24.6270 C.2    52  ASP52       0.2266
     14  O        -58.7710   31.0360   25.3320 O.2    52  ASP52      -0.2867
     15  CB       -60.7690   32.2090   23.7390 C.3    52  ASP52       0.1410
     16  CG       -60.4810   31.3790   22.4840 C.2    52  ASP52       0.3668
     17  OD1      -59.3520   31.3470   21.8930 O.co2  52  ASP52      -0.2456
     18  OD2      -61.4160   30.6370   21.9830 O.co2  52  ASP52      -0.2456
     19  N        -67.7710   29.8160   27.5850 N.3    91  TYR91      -0.1241
     20  CA       -67.9960   29.0290   26.4280 C.3    91  TYR91       0.1605
     21  C        -66.7760   28.1750   26.0870 C.2    91  TYR91       0.2264
     22  O        -65.6510   28.6440   25.9920 O.2    91  TYR91      -0.2867
     23  CB       -68.3760   29.9880   25.1840 C.3    91  TYR91       0.0534
     24  CG       -68.9920   29.1500   24.1050 C.ar   91  TYR91      -0.0201
     25  CD1      -70.3060   28.7030   24.2050 C.ar   91  TYR91      -0.0009
     26  CD2      -68.2170   28.7190   22.9880 C.ar   91  TYR91      -0.0009
     27  CE1      -70.8660   27.8230   23.2790 C.ar   91  TYR91       0.0417
     28  CE2      -68.7620   27.8130   22.0230 C.ar   91  TYR91       0.0417
     29  CZ       -70.1150   27.3880   22.1980 C.ar   91  TYR91       0.1957
     30  OH       -70.6740   26.5070   21.3230 O.3    91  TYR91      -0.2866
     31  N        -62.4090   23.3400   27.4610 N.3    95  GLN95      -0.1245
     32  CA       -62.2230   22.9780   25.9970 C.3    95  GLN95       0.1566
     33  C        -60.9440   22.0910   25.8020 C.2    95  GLN95       0.2260
     34  O        -61.0110   20.9230   25.3670 O.2    95  GLN95      -0.2867
     35  CB       -62.2240   24.3080   25.1050 C.3    95  GLN95       0.0367
     36  CG       -62.0540   24.2130   23.5570 C.3    95  GLN95       0.0905
     37  CD       -62.6900   25.3690   22.6990 C.2    95  GLN95       0.2608
     38  OE1      -62.7130   26.6060   23.0420 O.2    95  GLN95      -0.2717
     39  NE2      -63.2210   24.9440   21.5360 N.am   95  GLN95      -0.0878
     40  N        -56.8590   31.8590   16.8570 N.3   133  LYS133     -0.1245
     41  CA       -57.6320   31.5740   15.6500 C.3   133  LYS133      0.1561
     42  C        -56.7670   31.1900   14.4770 C.2   133  LYS133      0.2260
     43  O        -57.0030   31.5650   13.3120 O.2   133  LYS133     -0.2867
     44  CB       -58.5570   32.7990   15.2680 C.3   133  LYS133      0.0271
     45  CG       -59.4500   33.2930   16.4670 C.3   133  LYS133      0.0035
     46  CD       -60.5280   32.2210   16.7350 C.3   133  LYS133      0.0206
     47  CE       -61.4650   32.6550   17.8640 C.3   133  LYS133      0.1093
     48  NZ       -60.8620   32.4740   19.2600 N.3   133  LYS133     -0.1314
     49  N        -54.3470   26.5830   18.6460 N.3   230  ASP230     -0.1239
     50  CA       -53.7350   27.9540   18.4320 C.3   230  ASP230      0.1674
     51  C        -52.3320   27.9270   19.0840 C.2   230  ASP230      0.2266
     52  O        -52.1810   27.4270   20.2410 O.2   230  ASP230     -0.2867
     53  CB       -54.5820   28.9930   19.1440 C.3   230  ASP230      0.1410
     54  CG       -56.0380   29.0500   18.6440 C.2   230  ASP230      0.3668
     55  OD1      -56.2030   28.8030   17.4440 O.co2 230  ASP230     -0.2456
     56  OD2      -57.0050   29.2430   19.4050 O.co2 230  ASP230     -0.2456
     57  N        -59.2420   31.2190   11.7550 N.3   260  TRP260     -0.1227
     58  CA       -60.3830   32.1310   11.7370 C.3   260  TRP260      0.1737
     59  C        -61.6660   31.3530   12.0090 C.2   260  TRP260      0.2595
     60  O        -61.6410   30.4130   12.8060 O.2   260  TRP260     -0.2718
     61  CB       -60.4230   32.9630   10.4260 C.3   260  TRP260      0.0564
     62  CG       -61.0420   34.3060   10.5640 C.ar  260  TRP260      0.0003
     63  CD1      -61.6120   34.8800   11.6910 C.ar  260  TRP260      0.0946
     64  CD2      -61.0720   35.2920    9.5250 C.ar  260  TRP260      0.0152
     65  NE1      -61.9940   36.2020   11.3680 N.ar  260  TRP260     -0.2442
     66  CE2      -61.6750   36.4460   10.0510 C.ar  260  TRP260      0.0810
     67  CE3      -60.6830   35.2590    8.1450 C.ar  260  TRP260      0.0012
     68  CZ2      -61.8540   37.6270    9.2920 C.ar  260  TRP260      0.0191
     69  CZ3      -60.8430   36.4400    7.3680 C.ar  260  TRP260      0.0001
     70  CH2      -61.4730   37.6170    7.9520 C.ar  260  TRP260      0.0015
     71  N        -62.8180   31.7990   11.4990 N.am  261  MET261     -0.1965
     72  CA       -64.1100   31.1930   11.9440 C.3   261  MET261      0.1736
     73  C        -64.0990   29.6600   11.7130 C.2   261  MET261      0.2616
     74  O        -63.8220   29.1700   10.6100 O.2   261  MET261     -0.2715
     75  CB       -65.2010   31.8390   11.0800 C.3   261  MET261      0.0427
     76  CG       -66.6360   31.2100   11.2740 C.3   261  MET261      0.0599
     77  SD       -67.2640   31.3300   12.9710 S.3   261  MET261     -0.1393
     78  CE       -67.2150   33.1510   13.2670 C.3   261  MET261      0.0692
     79  N        -64.5020   28.9750   12.7820 N.am  262  ARG262     -0.1963
     80  CA       -64.7280   27.4900   12.7100 C.3   262  ARG262      0.1729
     81  C        -63.4890   26.7490   12.2850 C.2   262  ARG262      0.2616
     82  O        -63.5510   25.5960   11.7990 O.2   262  ARG262     -0.2715
     83  CB       -65.9470   27.1520   11.8190 C.3   262  ARG262      0.0348
     84  CG       -67.2150   27.6710   12.5230 C.3   262  ARG262      0.0492
     85  CD       -68.4150   27.6710   11.5610 C.3   262  ARG262      0.2205
     86  NE       -69.5470   28.3660   12.1350 N.pl3 262  ARG262     -0.0865
     87  CZ       -70.4070   27.8210   13.0240 C.cat 262  ARG262      0.5346
     88  NH1      -70.1910   26.5220   13.4710 N.pl3 262  ARG262      0.1354
     89  NH2      -71.4210   28.5480   13.4780 N.pl3 262  ARG262      0.1354
     90  N        -62.2950   27.3600   12.4430 N.am  263  GLY263     -0.1955
     91  CA       -61.0360   26.6620   12.0540 C.3   263  GLY263      0.1869
     92  C        -61.0410   26.3190   10.5610 C.2   263  GLY263      0.2309
     93  O        -60.3520   25.3910   10.1460 O.2   263  GLY263     -0.2863
     94  N        -65.1200   35.9560   14.2370 N.3   293  ASP293     -0.1239
     95  CA       -64.2640   35.3060   15.2950 C.3   293  ASP293      0.1674
     96  C        -62.7670   35.5890   15.0360 C.2   293  ASP293      0.2266
     97  O        -61.9280   34.7290   15.1880 O.2   293  ASP293     -0.2867
     98  CB       -64.4870   33.7340   15.4330 C.3   293  ASP293      0.1410
     99  CG       -65.7570   33.3990   16.1870 C.2   293  ASP293      0.3668
    100  OD1      -66.4230   34.2550   16.8020 O.co2 293  ASP293     -0.2456
    101  OD2      -66.0520   32.1450   16.1340 O.co2 293  ASP293     -0.2456
    102  N        -61.9270   22.3970    9.8070 N.3   353  GLU353     -0.1231
    103  CA       -62.3120   21.8150   11.0840 C.3   353  GLU353      0.1699
    104  C        -63.7980   21.4320   11.1160 C.2   353  GLU353      0.2592
    105  O        -64.1980   20.4890   11.8690 O.2   353  GLU353     -0.2718
    106  CB       -61.9630   22.7940   12.2050 C.3   353  GLU353      0.0402
    107  CG       -62.4380   22.2730   13.5780 C.3   353  GLU353      0.1161
    108  CD       -62.1970   23.2440   14.7360 C.2   353  GLU353      0.3649
    109  OE1      -61.2790   24.0980   14.6500 O.co2 353  GLU353     -0.2457
    110  OE2      -62.9680   23.1590   15.7360 O.co2 353  GLU353     -0.2457
    111  N        -64.6450   22.1770   10.3600 N.am  354  TYR354     -0.1976
    112  CA       -66.0550   21.9350   10.3290 C.3   354  TYR354      0.1639
    113  C        -66.3510   21.5010    8.9150 C.2   354  TYR354      0.2290
    114  O        -65.9760   22.1960    7.9810 O.2   354  TYR354     -0.2864
    115  CB       -66.8920   23.2810   10.6180 C.3   354  TYR354      0.0560
    116  CG       -67.0680   23.5760   12.1270 C.ar  354  TYR354     -0.0198
    117  CD1      -65.9640   23.7780   12.9910 C.ar  354  TYR354     -0.0009
    118  CD2      -68.3300   23.7300   12.6610 C.ar  354  TYR354     -0.0009
    119  CE1      -66.1700   24.0390   14.3820 C.ar  354  TYR354      0.0417
    120  CE2      -68.5480   23.8850   13.9790 C.ar  354  TYR354      0.0417
    121  CZ       -67.5000   24.0800   14.8410 C.ar  354  TYR354      0.1957
    122  OH       -67.8610   24.2460   16.1050 O.3   354  TYR354     -0.2866
@<TRIPOS>BOND
     1    69    70   ar
     2    69    67   ar
     3    70    68   ar
     4   114   113    2
     5    67    64   ar
     6   113   112    1
     7    68    66   ar
     8    64    66   ar
     9    64    62   ar
    10   102   103    1
    11    66    65   ar
    12    93    92    2
    13   112   111    1
    14   112   115    1
    15   111   104   am
    16    61    62    1
    17    61    58    1
    18    92    91    1
    19    62    63   ar
    20    74    73    2
    21   115   116    1
    22    75    76    1
    23    75    72    1
    24   103   104    1
    25   103   106    1
    26   104   105    2
    27    76    77    1
    28    65    63   ar
    29    71    72    1
    30    71    59   am
    31    85    86    1
    32    85    84    1
    33    73    72    1
    34    73    79   am
    35    58    57    1
    36    58    59    1
    37    82    81    2
    38    83    84    1
    39    83    80    1
    40    59    60    2
    41    91    90    1
    42   116   118   ar
    43   116   117   ar
    44    86    87    2
    45   106   107    1
    46    81    90   am
    47    81    80    1
    48   118   120   ar
    49    80    79    1
    50    77    78    1
    51   117   119   ar
    52    87    88    1
    53    87    89    1
    54    43    42    2
    55   107   108    1
    56   120   121   ar
    57    94    95    1
    58   119   121   ar
    59    42    41    1
    60   109   108   ar
    61   108   110   ar
    62   121   122    1
    63    96    97    2
    64    96    95    1
    65    44    41    1
    66    44    45    1
    67    95    98    1
    68    98    99    1
    69    41    40    1
    70   101    99   ar
    71    99   100   ar
    72    45    46    1
    73    46    47    1
    74    55    54   ar
    75    47    48    1
    76    50    49    1
    77    50    51    1
    78    50    53    1
    79    54    53    1
    80    54    56   ar
    81    51    52    2
    82     8    10   ar
    83     8     6   ar
    84    10     9   ar
    85     5     6    1
    86     5     2    1
    87     6     7   ar
    88     4     3    2
    89     9     7   ar
    90    30    29    1
    91     3     2    1
    92    39    37   am
    93     2     1    1
    94    17    16   ar
    95    18    16   ar
    96    28    29   ar
    97    28    26   ar
    98    29    27   ar
    99    16    15    1
   100    37    38    2
   101    37    36    1
   102    26    24   ar
   103    11    12    1
   104    27    25   ar
   105    36    35    1
   106    15    12    1
   107    24    25   ar
   108    24    23    1
   109    12    13    1
   110    13    14    2
   111    35    32    1
   112    23    20    1
   113    34    33    2
   114    33    32    1
   115    22    21    2
   116    32    31    1
   117    21    20    1
   118    20    19    1
