@<TRIPOS>MOLECULE
tmp/3t2jA02.pdb
 134 128 0 0 0
SMALL
GASTEIGER

@<TRIPOS>ATOM
      1  N         31.5760   55.8270   13.5970 N.3   111  ASN111     -0.1225
      2  CA        30.8070   54.6090   13.2370 C.3   111  ASN111      0.1785
      3  C         29.7220   54.2870   14.2610 C.2   111  ASN111      0.2597
      4  O         29.6750   53.1710   14.8000 O.2   111  ASN111     -0.2718
      5  CB        31.7450   53.3900   13.1260 C.3   111  ASN111      0.1169
      6  CG        32.5660   53.3960   11.8470 C.2   111  ASN111      0.2627
      7  OD1       32.0520   53.6830   10.7670 O.2   111  ASN111     -0.2716
      8  ND2       33.8610   53.0690   11.9680 N.am  111  ASN111     -0.0877
      9  N         28.8460   55.2540   14.5360 N.am  112  ASN112     -0.1960
     10  CA        27.8520   55.0860   15.5940 C.3   112  ASN112      0.1819
     11  C         26.7370   56.1350   15.4760 C.2   112  ASN112      0.2621
     12  O         26.9020   57.1490   14.7960 O.2   112  ASN112     -0.2715
     13  CB        28.5820   55.1900   16.9400 C.3   112  ASN112      0.1195
     14  CG        27.7530   54.7250   18.1140 C.2   112  ASN112      0.2630
     15  OD1       27.0320   53.6980   18.0470 O.2   112  ASN112     -0.2716
     16  ND2       27.8690   55.4750   19.2350 N.am  112  ASN112     -0.0877
     17  N         25.6010   55.8470   16.1050 N.am  113  ALA113     -0.1977
     18  CA        24.4670   56.7570   16.2480 C.3   113  ALA113      0.1597
     19  C         23.9700   56.4970   17.6730 C.2   113  ALA113      0.2287
     20  O         24.1030   55.3720   18.1710 O.2   113  ALA113     -0.2864
     21  CB        23.3790   56.4100   15.2640 C.3   113  ALA113      0.0319
     22  N         30.4270   51.6380    8.0980 N.3   130  PHE130     -0.1241
     23  CA        29.1160   52.2920    7.8960 C.3   130  PHE130      0.1605
     24  C         29.1480   53.4330    6.8730 C.2   130  PHE130      0.2264
     25  O         30.1930   54.0940    6.6950 O.2   130  PHE130     -0.2867
     26  CB        28.6420   52.9250    9.2040 C.3   130  PHE130      0.0534
     27  CG        28.1560   51.9450   10.2360 C.ar  130  PHE130     -0.0203
     28  CD1       26.9120   51.3270   10.1040 C.ar  130  PHE130     -0.0042
     29  CD2       28.9150   51.7020   11.3750 C.ar  130  PHE130     -0.0042
     30  CE1       26.4360   50.4470   11.0770 C.ar  130  PHE130     -0.0003
     31  CE2       28.4650   50.8070   12.3680 C.ar  130  PHE130     -0.0003
     32  CZ        27.2150   50.1880   12.2240 C.ar  130  PHE130     -0.0000
     33  N         24.6710   56.9420    9.4220 N.3   133  LEU133     -0.1245
     34  CA        23.8110   55.9540   10.1350 C.3   133  LEU133      0.1561
     35  C         22.3330   56.3060   10.1280 C.2   133  LEU133      0.2260
     36  O         21.4950   55.4320   10.3060 O.2   133  LEU133     -0.2867
     37  CB        24.3020   55.6960   11.5620 C.3   133  LEU133      0.0270
     38  CG        25.4680   54.7030   11.4860 C.3   133  LEU133      0.0019
     39  CD1       26.8370   55.4250   11.3230 C.3   133  LEU133      0.0001
     40  CD2       25.4480   53.8140   12.6900 C.3   133  LEU133      0.0001
     41  N         17.7870   51.8680   12.5640 N.3   139  VAL139     -0.1245
     42  CA        18.7610   52.4860   13.4820 C.3   139  VAL139      0.1561
     43  C         18.1450   53.7240   14.1430 C.2   139  VAL139      0.2260
     44  O         18.2400   53.8670   15.3470 O.2   139  VAL139     -0.2867
     45  CB        20.0850   52.8620   12.7460 C.3   139  VAL139      0.0252
     46  CG1       21.0130   53.7040   13.6590 C.3   139  VAL139      0.0019
     47  CG2       20.8160   51.5830   12.2820 C.3   139  VAL139      0.0019
     48  N         15.3670   52.3430   16.4330 N.3   142  HIS142     -0.1226
     49  CA        16.0230   51.6050   17.5360 C.3   142  HIS142      0.1752
     50  C         16.5090   52.6310   18.6080 C.2   142  HIS142      0.2595
     51  O         16.2940   52.4630   19.8250 O.2   142  HIS142     -0.2718
     52  CB        17.2020   50.7750   16.9730 C.3   142  HIS142      0.0759
     53  CG        18.0930   50.1920   18.0220 C.ar  142  HIS142      0.0818
     54  ND1       18.1420   48.8310   18.2940 N.ar  142  HIS142     -0.2268
     55  CD2       18.9450   50.7850   18.9010 C.ar  142  HIS142      0.1154
     56  CE1       18.9960   48.6160   19.2910 C.ar  142  HIS142      0.1986
     57  NE2       19.4840   49.7830   19.6830 N.ar  142  HIS142     -0.2212
     58  N         17.2040   53.6810   18.1630 N.am  143  GLU143     -0.1979
     59  CA        17.7880   54.6000   19.1670 C.3   143  GLU143      0.1602
     60  C         16.7190   55.4590   19.8380 C.2   143  GLU143      0.2287
     61  O         16.7760   55.6580   21.0290 O.2   143  GLU143     -0.2864
     62  CB        18.8480   55.5150   18.5580 C.3   143  GLU143      0.0415
     63  CG        19.9970   54.7830   17.8960 C.3   143  GLU143      0.1163
     64  CD        20.8260   53.9320   18.8350 C.2   143  GLU143      0.3649
     65  OE1       20.8450   54.1750   20.0500 O.co2 143  GLU143     -0.2457
     66  OE2       21.5300   53.0520   18.3160 O.co2 143  GLU143     -0.2457
     67  N         15.2390   53.6720   22.6550 N.3   146  HIS146     -0.1241
     68  CA        15.8790   53.8400   23.9650 C.3   146  HIS146      0.1621
     69  C         15.2870   54.9950   24.7820 C.2   146  HIS146      0.2264
     70  O         15.2000   54.8840   25.9910 O.2   146  HIS146     -0.2867
     71  CB        17.4270   54.0220   23.8710 C.3   146  HIS146      0.0745
     72  CG        18.1620   52.7580   23.5150 C.ar  146  HIS146      0.0817
     73  ND1       18.0420   51.5960   24.2470 N.ar  146  HIS146     -0.2268
     74  CD2       19.0110   52.4750   22.4920 C.ar  146  HIS146      0.1154
     75  CE1       18.7930   50.6520   23.7030 C.ar  146  HIS146      0.1986
     76  NE2       19.3970   51.1600   22.6460 N.ar  146  HIS146     -0.2212
     77  N         20.9350   49.2910   31.6750 N.3   157  TYR157     -0.1241
     78  CA        21.7530   48.8730   30.5290 C.3   157  TYR157      0.1605
     79  C         22.9060   47.9080   30.8370 C.2   157  TYR157      0.2264
     80  O         24.0510   48.1290   30.4370 O.2   157  TYR157     -0.2867
     81  CB        22.2860   50.0990   29.8270 C.3   157  TYR157      0.0534
     82  CG        22.4970   49.8480   28.3410 C.ar  157  TYR157     -0.0201
     83  CD1       21.4050   49.4650   27.5010 C.ar  157  TYR157     -0.0009
     84  CD2       23.7910   49.9290   27.7640 C.ar  157  TYR157     -0.0009
     85  CE1       21.6010   49.2210   26.1510 C.ar  157  TYR157      0.0417
     86  CE2       23.9970   49.6850   26.3960 C.ar  157  TYR157      0.0417
     87  CZ        22.8970   49.3680   25.5880 C.ar  157  TYR157      0.1957
     88  OH        23.0730   49.1600   24.2300 O.3   157  TYR157     -0.2866
     89  N         18.0350   46.4020   24.7300 N.3   166  GLU166     -0.1245
     90  CA        18.4800   46.3080   23.3390 C.3   166  GLU166      0.1567
     91  C         17.4490   45.6420   22.4240 C.2   166  GLU166      0.2260
     92  O         17.1160   46.1510   21.3590 O.2   166  GLU166     -0.2867
     93  CB        19.8150   45.5630   23.3140 C.3   166  GLU166      0.0388
     94  CG        20.9720   46.5650   23.4500 C.3   166  GLU166      0.1160
     95  CD        20.9540   47.5550   22.2880 C.2   166  GLU166      0.3649
     96  OE1       20.9150   47.1120   21.1220 O.co2 166  GLU166     -0.2457
     97  OE2       21.0100   48.7520   22.5130 O.co2 166  GLU166     -0.2457
     98  N         19.0420   44.0880   11.4320 N.3   188  ILE188     -0.1245
     99  CA        19.2830   45.3870   12.0120 C.3   188  ILE188      0.1561
    100  C         20.4450   46.0970   11.3110 C.2   188  ILE188      0.2260
    101  O         21.5710   45.6180   11.3090 O.2   188  ILE188     -0.2867
    102  CB        19.5360   45.2470   13.5460 C.3   188  ILE188      0.0252
    103  CG1       18.3300   44.5380   14.2090 C.3   188  ILE188      0.0019
    104  CG2       19.8260   46.6090   14.1730 C.3   188  ILE188      0.0019
    105  CD1       16.9960   45.2930   14.0790 C.3   188  ILE188      0.0001
    106  N         24.1210   44.1050   11.0700 N.3   202  LEU202     -0.1231
    107  CA        24.7130   43.9780   12.4070 C.3   202  LEU202      0.1693
    108  C         24.2310   42.7610   13.1440 C.2   202  LEU202      0.2591
    109  O         24.9860   42.1510   13.9080 O.2   202  LEU202     -0.2718
    110  CB        24.3760   45.2170   13.2730 C.3   202  LEU202      0.0284
    111  CG        24.8660   46.5450   12.7290 C.3   202  LEU202      0.0019
    112  CD1       24.2740   47.7030   13.5420 C.3   202  LEU202      0.0001
    113  CD2       26.4130   46.5760   12.8110 C.3   202  LEU202      0.0001
    114  N         22.9430   42.4440   12.9990 N.am  203  ARG203     -0.1980
    115  CA        22.4070   41.2650   13.6500 C.3   203  ARG203      0.1597
    116  C         21.0750   40.8850   13.0390 C.2   203  ARG203      0.2287
    117  O         20.4330   41.6950   12.3670 O.2   203  ARG203     -0.2864
    118  CB        22.2810   41.4600   15.1700 C.3   203  ARG203      0.0334
    119  CG        21.7480   42.7450   15.5250 C.3   203  ARG203      0.0492
    120  CD        21.9310   43.0910   17.0420 C.3   203  ARG203      0.2205
    121  NE        21.2270   44.3700   17.2670 N.pl3 203  ARG203     -0.0865
    122  CZ        21.8150   45.5780   17.3200 C.cat 203  ARG203      0.5346
    123  NH1       23.1360   45.7220   17.1760 N.pl3 203  ARG203      0.1354
    124  NH2       21.0730   46.6600   17.5370 N.pl3 203  ARG203      0.1354
    125  N         24.2170   43.4420   23.4030 N.3   231  HIS231     -0.1241
    126  CA        23.9770   43.3440   21.9410 C.3   231  HIS231      0.1621
    127  C         24.0530   41.9060   21.4660 C.2   231  HIS231      0.2264
    128  O         23.7910   41.6100   20.2890 O.2   231  HIS231     -0.2867
    129  CB        24.9530   44.2000   21.0980 C.3   231  HIS231      0.0745
    130  CG        24.6980   45.6690   21.1990 C.ar  231  HIS231      0.0817
    131  ND1       25.4360   46.4900   22.0200 N.ar  231  HIS231     -0.2268
    132  CD2       23.7610   46.4580   20.6220 C.ar  231  HIS231      0.1154
    133  CE1       24.9840   47.7290   21.9300 C.ar  231  HIS231      0.1986
    134  NE2       23.9560   47.7340   21.1030 N.ar  231  HIS231     -0.2212
@<TRIPOS>BOND
     1    25    24    2
     2    24    23    1
     3    23    22    1
     4    23    26    1
     5    26    27    1
     6    33    34    1
     7    28    27   ar
     8    28    30   ar
     9    35    34    1
    10    35    36    2
    11    34    37    1
    12    27    29   ar
    13     7     6    2
    14   106   107    1
    15    30    32   ar
    16   101   100    2
    17   100    99    1
    18    39    38    1
    19    29    31   ar
    20    98    99    1
    21    38    37    1
    22    38    40    1
    23     6     8   am
    24     6     5    1
    25    99   102    1
    26    32    31   ar
    27    47    45    1
    28   117   116    2
    29   107   108    1
    30   107   110    1
    31    41    42    1
    32   111   113    1
    33   111   110    1
    34   111   112    1
    35    45    42    1
    36    45    46    1
    37   114   108   am
    38   114   115    1
    39   116   115    1
    40     5     2    1
    41   108   109    2
    42     2     1    1
    43     2     3    1
    44    42    43    1
    45   102   104    1
    46   102   103    1
    47   115   118    1
    48   105   103    1
    49    43    44    2
    50     3     9   am
    51     3     4    2
    52     9    10    1
    53    12    11    2
    54   118   119    1
    55    21    18    1
    56    11    10    1
    57    11    17   am
    58   119   120    1
    59    10    13    1
    60    17    18    1
    61    18    19    1
    62    48    49    1
    63    13    14    1
    64    52    49    1
    65    52    53    1
    66   120   121    1
    67   123   122    1
    68   121   122    2
    69   122   124    1
    70    49    50    1
    71    19    20    2
    72    63    62    1
    73    63    64    1
    74    53    54   ar
    75    53    55   ar
    76    15    14    2
    77    14    16   am
    78    58    50   am
    79    58    59    1
    80    54    56   ar
    81    66    64   ar
    82    62    59    1
    83    50    51    2
    84    64    65   ar
    85    55    57   ar
    86    59    60    1
    87    56    57   ar
    88    60    61    2
    89   128   127    2
    90   132   134   ar
    91   132   130   ar
    92   129   130    1
    93   129   126    1
    94   134   133   ar
    95    96    95   ar
    96   130   131   ar
    97    92    91    2
    98   127   126    1
    99   133   131   ar
   100   126   125    1
   101    95    97   ar
   102    95    94    1
   103    91    90    1
   104    74    76   ar
   105    74    72   ar
   106    76    75   ar
   107    67    68    1
   108    93    90    1
   109    93    94    1
   110    90    89    1
   111    72    71    1
   112    72    73   ar
   113    75    73   ar
   114    71    68    1
   115    68    69    1
   116    88    87    1
   117    69    70    2
   118    87    85   ar
   119    87    86   ar
   120    85    83   ar
   121    86    84   ar
   122    83    82   ar
   123    84    82   ar
   124    82    81    1
   125    81    78    1
   126    80    79    2
   127    78    79    1
   128    78    77    1
