@<TRIPOS>MOLECULE
tmp/3t2tA00.pdb
 110 102 0 0 0
SMALL
GASTEIGER

@<TRIPOS>ATOM
      1  N         23.4490    4.9300    6.3690 N.3    28  SER28      -0.1217
      2  CA        22.3160    4.8590    7.2910 C.3    28  SER28       0.1889
      3  C         21.8530    6.2490    7.6910 C.2    28  SER28       0.2288
      4  O         22.5460    7.2300    7.4820 O.2    28  SER28      -0.2866
      5  CB        22.6960    4.0820    8.5490 C.3    28  SER28       0.2089
      6  OG        23.6510    4.7930    9.2860 O.3    28  SER28      -0.2183
      7  N         19.1640    8.2790   10.8860 N.3    30  VAL30      -0.1245
      8  CA        18.4460    8.1320   12.1390 C.3    30  VAL30       0.1561
      9  C         17.4460    9.2580   12.2870 C.2    30  VAL30       0.2260
     10  O         17.7230   10.4240   11.9590 O.2    30  VAL30      -0.2867
     11  CB        19.3980    8.1890   13.3260 C.3    30  VAL30       0.0252
     12  CG1       18.6130    8.2430   14.6720 C.3    30  VAL30       0.0019
     13  CG2       20.3740    7.0190   13.2760 C.3    30  VAL30       0.0019
     14  N         15.1690   10.3740   15.6350 N.3    32  ASN32      -0.1240
     15  CA        14.8860   10.1120   17.0530 C.3    32  ASN32       0.1653
     16  C         13.7340   10.9880   17.4930 C.2    32  ASN32       0.2266
     17  O         13.7110   12.1810   17.2120 O.2    32  ASN32      -0.2867
     18  CB        16.1370   10.4300   17.9130 C.3    32  ASN32       0.1155
     19  CG        17.2420    9.4010   17.7750 C.2    32  ASN32       0.2627
     20  OD1       16.9980    8.2440   17.4670 O.2    32  ASN32      -0.2716
     21  ND2       18.4960    9.8320   18.0050 N.am   32  ASN32      -0.0877
     22  N         13.6350    5.3830   18.1880 N.3    43  HIS43      -0.1241
     23  CA        14.8810    5.5790   17.5310 C.3    43  HIS43       0.1621
     24  C         14.6990    4.7330   16.2590 C.2    43  HIS43       0.2264
     25  O         14.5310    3.5300   16.3380 O.2    43  HIS43      -0.2867
     26  CB        15.9960    5.0530   18.4110 C.3    43  HIS43       0.0745
     27  CG        17.2870    4.8350   17.7020 C.ar   43  HIS43       0.0817
     28  ND1       18.1810    5.8600   17.4540 N.ar   43  HIS43      -0.2268
     29  CD2       17.8670    3.7060   17.2320 C.ar   43  HIS43       0.1154
     30  CE1       19.2410    5.3730   16.8280 C.ar   43  HIS43       0.1986
     31  NE2       19.0780    4.0670   16.6830 N.ar   43  HIS43      -0.2212
     32  N         16.1080    3.7350   12.6210 N.3    45  ASN45      -0.1240
     33  CA        17.4380    3.6730   12.0080 C.3    45  ASN45       0.1653
     34  C         17.5030    2.7110   10.8140 C.2    45  ASN45       0.2266
     35  O         17.9140    1.5490   10.9560 O.2    45  ASN45      -0.2867
     36  CB        18.4360    3.3160   13.0840 C.3    45  ASN45       0.1155
     37  CG        19.8570    3.1120   12.5750 C.2    45  ASN45       0.2627
     38  OD1       20.5780    2.2800   13.1000 O.2    45  ASN45      -0.2716
     39  ND2       20.2620    3.8720   11.5810 N.am   45  ASN45      -0.0877
     40  N         19.2640    1.0880    7.8810 N.3    47  ARG47      -0.1245
     41  CA        20.6340    0.7890    7.5540 C.3    47  ARG47       0.1563
     42  C         20.7080    0.2600    6.1370 C.2    47  ARG47       0.2260
     43  O         20.1290   -0.7820    5.8290 O.2    47  ARG47      -0.2867
     44  CB        21.2290   -0.2160    8.5550 C.3    47  ARG47       0.0307
     45  CG        21.3170    0.3160    9.9520 C.3    47  ARG47       0.0489
     46  CD        21.8160   -0.7270   10.9310 C.3    47  ARG47       0.2205
     47  NE        21.7530   -0.2090   12.2950 N.pl3  47  ARG47      -0.0865
     48  CZ        22.0630   -0.8910   13.3980 C.cat  47  ARG47       0.5346
     49  NH1       22.4970   -2.1460   13.3350 N.pl3  47  ARG47       0.1354
     50  NH2       21.9360   -0.2990   14.5780 N.pl3  47  ARG47       0.1354
     51  N         27.1520   -1.3500   10.0930 N.3    51  HIS51      -0.1241
     52  CA        27.2390   -2.2070   11.2850 C.3    51  HIS51       0.1621
     53  C         26.8830   -3.6620   10.9970 C.2    51  HIS51       0.2264
     54  O         26.2970   -4.3480   11.8330 O.2    51  HIS51      -0.2867
     55  CB        26.3680   -1.6300   12.4000 C.3    51  HIS51       0.0745
     56  CG        26.5850   -0.1640   12.6140 C.ar   51  HIS51       0.0817
     57  ND1       25.5930    0.7740   12.4320 N.ar   51  HIS51      -0.2268
     58  CD2       27.7010    0.5280   12.9450 C.ar   51  HIS51       0.1154
     59  CE1       26.0810    1.9800   12.6700 C.ar   51  HIS51       0.1986
     60  NE2       27.3600    1.8580   12.9810 N.ar   51  HIS51      -0.2212
     61  N         16.1910   -0.7760   11.8380 N.3    58  VAL58      -0.1245
     62  CA        16.3350   -1.0760   13.2380 C.3    58  VAL58       0.1561
     63  C         15.5450   -0.0090   14.0130 C.2    58  VAL58       0.2260
     64  O         15.6090    1.1760   13.7000 O.2    58  VAL58      -0.2867
     65  CB        17.8100   -1.0650   13.6520 C.3    58  VAL58       0.0252
     66  CG1       17.9530   -1.1490   15.1580 C.3    58  VAL58       0.0019
     67  CG2       18.5900   -2.1780   12.9370 C.3    58  VAL58       0.0019
     68  N         14.3500    1.0590   18.1940 N.3    60  ASN60      -0.1240
     69  CA        14.5190    0.9020   19.6180 C.3    60  ASN60       0.1653
     70  C         13.9150    2.1190   20.3430 C.2    60  ASN60       0.2266
     71  O         13.3940    3.0630   19.7140 O.2    60  ASN60      -0.2867
     72  CB        15.9860    0.7330   19.9470 C.3    60  ASN60       0.1155
     73  CG        16.2390   -0.1290   21.1960 C.2    60  ASN60       0.2627
     74  OD1       15.3520   -0.3800   22.0240 O.2    60  ASN60      -0.2716
     75  ND2       17.4750   -0.5500   21.3420 N.am   60  ASN60      -0.0877
     76  N         19.1640    2.1180   26.4360 N.3    67  TRP67      -0.1241
     77  CA        18.5310    1.4880   25.2880 C.3    67  TRP67       0.1605
     78  C         17.6090    0.3340   25.6910 C.2    67  TRP67       0.2264
     79  O         17.8850   -0.3990   26.6260 O.2    67  TRP67      -0.2867
     80  CB        19.6000    0.9990   24.3270 C.3    67  TRP67       0.0550
     81  CG        20.3440    2.1010   23.6780 C.ar   67  TRP67       0.0003
     82  CD1       21.6420    2.4670   23.9030 C.ar   67  TRP67       0.0946
     83  CD2       19.8290    3.0200   22.6990 C.ar   67  TRP67       0.0152
     84  NE1       21.9720    3.5430   23.1110 N.ar   67  TRP67      -0.2442
     85  CE2       20.8850    3.8930   22.3530 C.ar   67  TRP67       0.0810
     86  CE3       18.5970    3.1590   22.0520 C.ar   67  TRP67       0.0012
     87  CZ2       20.7310    4.9190   21.4120 C.ar   67  TRP67       0.0191
     88  CZ3       18.4480    4.1820   21.1230 C.ar   67  TRP67       0.0001
     89  CH2       19.5110    5.0260   20.7920 C.ar   67  TRP67       0.0015
     90  N         16.0070   -3.8980   21.0550 N.3    70  GLU70      -0.1245
     91  CA        16.0070   -3.5680   19.6640 C.3    70  GLU70       0.1567
     92  C         15.1490   -4.5680   18.8650 C.2    70  GLU70       0.2260
     93  O         15.0420   -5.7570   19.1970 O.2    70  GLU70      -0.2867
     94  CB        17.4480   -3.6090   19.1800 C.3    70  GLU70       0.0388
     95  CG        17.6670   -3.3500   17.7630 C.3    70  GLU70       0.1160
     96  CD        19.1450   -3.3980   17.4150 C.2    70  GLU70       0.3649
     97  OE1       19.5340   -4.1520   16.5030 O.co2  70  GLU70      -0.2457
     98  OE2       19.9080   -2.6650   18.0430 O.co2  70  GLU70      -0.2457
     99  N         19.8850   12.3830   12.0790 N.3   121  ASP121     -0.1225
    100  CA        21.3170   12.2080   11.9920 C.3   121  ASP121      0.1805
    101  C         21.6210   11.2940   10.8070 C.2   121  ASP121      0.2598
    102  O         20.7280   10.6300   10.3060 O.2   121  ASP121     -0.2718
    103  CB        21.8230   11.5960   13.3060 C.3   121  ASP121      0.1424
    104  CG        23.2920   11.8500   13.5350 C.2   121  ASP121      0.3668
    105  OD1       23.8870   12.6940   12.8230 O.co2 121  ASP121     -0.2456
    106  OD2       23.8570   11.2060   14.4360 O.co2 121  ASP121     -0.2456
    107  N         22.8510   11.3280   10.3220 N.am  122  GLY122     -0.1957
    108  CA        23.2800   10.4520    9.2240 C.3   122  GLY122      0.1869
    109  C         22.9590   11.0200    7.8500 C.2   122  GLY122      0.2309
    110  O         22.9080   12.2360    7.6630 O.2   122  GLY122     -0.2863
@<TRIPOS>BOND
     1    43    42    2
     2    42    41    1
     3     1     2    1
     4     2     3    1
     5     2     5    1
     6     4     3    2
     7    41    40    1
     8    41    44    1
     9   110   109    2
    10   109   108    1
    11     5     6    1
    12    44    45    1
    13   108   107    1
    14    45    46    1
    15    51    52    1
    16   102   101    2
    17   107   101   am
    18   101   100    1
    19    34    35    2
    20    34    33    1
    21     7     8    1
    22    46    47    1
    23    53    52    1
    24    53    54    2
    25    52    55    1
    26    39    37   am
    27    61    62    1
    28    10     9    2
    29   100    99    1
    30   100   103    1
    31    33    32    1
    32    33    36    1
    33     8     9    1
    34     8    11    1
    35    47    48    2
    36    55    56    1
    37    57    56   ar
    38    57    59   ar
    39    37    36    1
    40    37    38    2
    41    56    58   ar
    42    59    60   ar
    43   105   104   ar
    44    67    65    1
    45    58    60   ar
    46    62    65    1
    47    62    63    1
    48    13    11    1
    49   103   104    1
    50    11    12    1
    51    49    48    1
    52    48    50    1
    53   104   106   ar
    54    65    66    1
    55    64    63    2
    56    14    15    1
    57    24    25    2
    58    24    23    1
    59    97    96   ar
    60    31    30   ar
    61    31    29   ar
    62    30    28   ar
    63    15    16    1
    64    15    18    1
    65    17    16    2
    66    29    27   ar
    67    96    95    1
    68    96    98   ar
    69    28    27   ar
    70    20    19    2
    71    23    22    1
    72    23    26    1
    73    27    26    1
    74    95    94    1
    75    19    18    1
    76    19    21   am
    77    68    69    1
    78    92    93    2
    79    92    91    1
    80    94    91    1
    81    69    72    1
    82    69    70    1
    83    91    90    1
    84    71    70    2
    85    72    73    1
    86    89    88   ar
    87    89    87   ar
    88    88    86   ar
    89    73    75   am
    90    73    74    2
    91    87    85   ar
    92    86    83   ar
    93    85    83   ar
    94    85    84   ar
    95    83    81   ar
    96    84    82   ar
    97    81    82   ar
    98    81    80    1
    99    80    77    1
   100    77    78    1
   101    77    76    1
   102    78    79    2
