@<TRIPOS>MOLECULE
tmp/3t34B00.pdb
 187 177 0 0 0
SMALL
GASTEIGER

@<TRIPOS>ATOM
      1  N         -3.0570  -19.1300  -17.5900 N.3    42  GLN42      -0.1231
      2  CA        -4.1510  -20.0440  -17.2780 C.3    42  GLN42       0.1698
      3  C         -5.2700  -19.3740  -16.4960 C.2    42  GLN42       0.2592
      4  O         -5.0230  -18.8040  -15.4300 O.2    42  GLN42      -0.2718
      5  CB        -3.6550  -21.2470  -16.4780 C.3    42  GLN42       0.0381
      6  CG        -4.7820  -22.2370  -16.2070 C.3    42  GLN42       0.0905
      7  CD        -4.2870  -23.6050  -15.7690 C.2    42  GLN42       0.2608
      8  OE1       -3.4520  -24.2270  -16.4380 O.2    42  GLN42      -0.2717
      9  NE2       -4.7950  -24.0760  -14.6400 N.am   42  GLN42      -0.0878
     10  N         -6.4860  -19.4320  -17.0240 N.am   43  SER43      -0.1952
     11  CA        -7.6640  -19.0850  -16.2650 C.3    43  SER43       0.1924
     12  C         -7.8200  -17.5920  -16.0590 C.2    43  SER43       0.2314
     13  O         -8.5460  -17.1630  -15.1580 O.2    43  SER43      -0.2863
     14  CB        -7.5960  -19.7360  -14.8900 C.3    43  SER43       0.2116
     15  OG        -8.4030  -20.8900  -14.8300 O.3    43  SER43      -0.2180
     16  N         -9.2100  -16.0130  -18.2300 N.3    45  GLY45      -0.1210
     17  CA       -10.5760  -15.8870  -18.7180 C.3    45  GLY45       0.1956
     18  C        -10.6780  -15.7200  -20.2330 C.2    45  GLY45       0.2612
     19  O        -11.5370  -14.9960  -20.7380 O.2    45  GLY45      -0.2717
     20  N         -9.7860  -16.3920  -20.9540 N.am   46  LYS46      -0.1965
     21  CA        -9.7040  -16.2860  -22.3960 C.3    46  LYS46       0.1728
     22  C        -10.9770  -16.7650  -23.0880 C.2    46  LYS46       0.2617
     23  O        -11.6610  -15.9730  -23.7500 O.2    46  LYS46      -0.2715
     24  CB        -8.4580  -17.0150  -22.8980 C.3    46  LYS46       0.0311
     25  CG        -7.1930  -16.2890  -22.5420 C.3    46  LYS46       0.0038
     26  CD        -5.9850  -16.9920  -23.0730 C.3    46  LYS46       0.0206
     27  CE        -5.9840  -18.4420  -22.6000 C.3    46  LYS46       0.1093
     28  NZ        -5.9440  -18.4200  -21.1350 N.3    46  LYS46      -0.1314
     29  N        -11.3140  -18.0380  -22.9090 N.am   47  SER47      -0.1936
     30  CA       -12.5460  -18.5800  -23.4800 C.3    47  SER47       0.2055
     31  C        -13.7770  -17.6980  -23.2460 C.2    47  SER47       0.2643
     32  O        -14.5540  -17.4740  -24.1670 O.2    47  SER47      -0.2714
     33  CB       -12.8340  -19.9880  -22.9370 C.3    47  SER47       0.2130
     34  OG       -11.8330  -20.9090  -23.3340 O.3    47  SER47      -0.2179
     35  N        -13.9780  -17.2320  -22.0080 N.am   48  SER48      -0.1949
     36  CA       -15.1480  -16.4100  -21.7110 C.3    48  SER48       0.1924
     37  C        -15.1680  -15.1930  -22.6450 C.2    48  SER48       0.2314
     38  O        -16.2060  -14.8700  -23.2400 O.2    48  SER48      -0.2863
     39  CB       -15.1790  -15.9400  -20.2460 C.3    48  SER48       0.2116
     40  OG       -15.3780  -16.9950  -19.3010 O.3    48  SER48      -0.2180
     41  N        -15.6340  -23.5940  -19.9110 N.3    61  ARG61      -0.1231
     42  CA       -14.7720  -22.8320  -19.0280 C.3    61  ARG61       0.1694
     43  C        -14.8500  -23.3380  -17.5880 C.2    61  ARG61       0.2593
     44  O        -15.7310  -24.1300  -17.2510 O.2    61  ARG61      -0.2718
     45  CB       -15.1110  -21.3500  -19.1240 C.3    61  ARG61       0.0321
     46  CG       -16.5860  -21.0950  -19.2170 C.3    61  ARG61       0.0489
     47  CD       -16.9140  -19.8500  -20.0630 C.3    61  ARG61       0.2205
     48  NE       -18.3230  -19.5000  -19.8790 N.pl3  61  ARG61      -0.0865
     49  CZ       -19.3320  -20.2290  -20.3570 C.cat  61  ARG61       0.5346
     50  NH1      -19.0800  -21.3400  -21.0460 N.pl3  61  ARG61       0.1354
     51  NH2      -20.5970  -19.8660  -20.1600 N.pl3  61  ARG61       0.1354
     52  N        -13.9390  -22.8260  -16.7590 N.am   62  GLY62      -0.1942
     53  CA       -13.5080  -23.3640  -15.4600 C.3    62  GLY62       0.2014
     54  C        -12.2110  -22.5760  -15.4200 C.2    62  GLY62       0.2640
     55  O        -11.8170  -22.1850  -16.5000 O.2    62  GLY62      -0.2714
     56  N        -11.4910  -22.3180  -14.3260 N.am   63  SER63      -0.1935
     57  CA       -11.2200  -23.1120  -13.1500 C.3    63  SER63       0.2055
     58  C        -10.5230  -24.4550  -13.4690 C.2    63  SER63       0.2643
     59  O        -11.1700  -25.4470  -13.8160 O.2    63  SER63      -0.2714
     60  CB       -12.3830  -23.1630  -12.1440 C.3    63  SER63       0.2130
     61  OG       -11.9780  -22.5700  -10.8910 O.3    63  SER63      -0.2179
     62  N         -9.1890  -24.4470  -13.3350 N.am   64  GLY64      -0.1954
     63  CA        -8.3300  -25.5670  -13.7040 C.3    64  GLY64       0.1869
     64  C         -8.0680  -25.5120  -15.1920 C.2    64  GLY64       0.2309
     65  O         -8.7230  -24.7270  -15.8450 O.2    64  GLY64      -0.2863
     66  N         -9.0260  -25.9050  -18.4560 N.3    66  VAL66      -0.1231
     67  CA       -10.1970  -26.3350  -19.1920 C.3    66  VAL66       0.1692
     68  C         -9.8330  -26.4170  -20.6880 C.2    66  VAL66       0.2592
     69  O         -9.8220  -27.5080  -21.2690 O.2    66  VAL66      -0.2718
     70  CB       -11.4540  -25.4840  -18.8600 C.3    66  VAL66       0.0266
     71  CG1      -11.7950  -25.5950  -17.3730 C.3    66  VAL66       0.0020
     72  CG2      -11.2460  -24.0270  -19.2370 C.3    66  VAL66       0.0020
     73  N         -9.4770  -25.2950  -21.2990 N.am   67  THR67      -0.1953
     74  CA        -9.0710  -25.3650  -22.6860 C.3    67  THR67       0.1897
     75  C         -7.7040  -26.0140  -22.7390 C.2    67  THR67       0.2313
     76  O         -6.7800  -25.5790  -22.0450 O.2    67  THR67      -0.2863
     77  CB        -9.0520  -23.9750  -23.3960 C.3    67  THR67       0.1794
     78  OG1      -10.3710  -23.4100  -23.3820 O.3    67  THR67      -0.2208
     79  CG2       -8.6010  -24.1370  -24.8230 C.3    67  THR67       0.0378
     80  N         -9.3100  -19.9890  -29.9750 N.3   141  ASP141     -0.1225
     81  CA        -9.2290  -20.1750  -28.5370 C.3   141  ASP141      0.1805
     82  C         -7.9420  -20.9450  -28.2200 C.2   141  ASP141      0.2597
     83  O         -7.5420  -21.8110  -29.0070 O.2   141  ASP141     -0.2718
     84  CB       -10.4530  -20.9340  -28.0350 C.3   141  ASP141      0.1424
     85  CG       -10.6380  -20.7880  -26.5500 C.2   141  ASP141      0.3668
     86  OD1       -9.8470  -20.0170  -25.9730 O.co2 141  ASP141     -0.2456
     87  OD2      -11.5580  -21.4060  -25.9690 O.co2 141  ASP141     -0.2456
     88  N         -7.2770  -20.6200  -27.1040 N.am  142  LEU142     -0.1979
     89  CA        -5.9810  -21.2390  -26.7870 C.3   142  LEU142      0.1596
     90  C         -5.8020  -21.5590  -25.2850 C.2   142  LEU142      0.2287
     91  O         -6.2890  -20.8220  -24.4170 O.2   142  LEU142     -0.2864
     92  CB        -4.8110  -20.3680  -27.2950 C.3   142  LEU142      0.0297
     93  CG        -4.5040  -20.2700  -28.8120 C.3   142  LEU142      0.0022
     94  CD1       -3.3600  -19.2930  -29.0880 C.3   142  LEU142      0.0001
     95  CD2       -4.2120  -21.6310  -29.4670 C.3   142  LEU142      0.0001
     96  N         -4.3840  -21.4820  -21.6720 N.3   144  GLY144     -0.1225
     97  CA        -3.6550  -20.4430  -20.9590 C.3   144  GLY144      0.1811
     98  C         -2.2610  -20.9100  -20.6150 C.2   144  GLY144      0.2280
     99  O         -2.0480  -22.0840  -20.2430 O.2   144  GLY144     -0.2866
    100  N         -9.6060   -8.4940  -17.4460 N.3   210  THR210     -0.1203
    101  CA       -10.7430   -9.2580  -16.9130 C.3   210  THR210      0.1994
    102  C        -10.7850   -9.2520  -15.3710 C.2   210  THR210      0.2617
    103  O         -9.8610   -8.7900  -14.7100 O.2   210  THR210     -0.2717
    104  CB       -10.6710  -10.7290  -17.3610 C.3   210  THR210      0.1784
    105  OG1       -9.4770  -11.3110  -16.8340 O.3   210  THR210     -0.2211
    106  CG2      -10.6230  -10.8730  -18.8990 C.3   210  THR210      0.0376
    107  N        -11.8660   -9.7800  -14.8050 N.am  211  LYS211     -0.1979
    108  CA       -11.9490  -10.0490  -13.3630 C.3   211  LYS211      0.1596
    109  C        -11.9170   -8.7730  -12.5390 C.2   211  LYS211      0.2287
    110  O        -11.4560   -8.7440  -11.3750 O.2   211  LYS211     -0.2864
    111  CB       -10.8170  -10.9900  -12.9470 C.3   211  LYS211      0.0298
    112  CG       -11.1110  -12.4460  -13.2850 C.3   211  LYS211      0.0038
    113  CD        -9.9060  -13.3420  -13.1020 C.3   211  LYS211      0.0206
    114  CE       -10.2690  -14.7660  -13.4790 C.3   211  LYS211      0.1093
    115  NZ        -9.3260  -15.7890  -12.8720 N.3   211  LYS211     -0.1314
    116  N        -14.2090   -7.4210  -11.0960 N.3   213  ASP213     -0.1225
    117  CA       -15.0490   -7.6050   -9.9310 C.3   213  ASP213      0.1805
    118  C        -14.3120   -8.3640   -8.8100 C.2   213  ASP213      0.2597
    119  O        -14.7990   -8.4360   -7.6990 O.2   213  ASP213     -0.2718
    120  CB       -16.3170   -8.3530  -10.3040 C.3   213  ASP213      0.1424
    121  CG       -16.0330   -9.6840  -11.0000 C.2   213  ASP213      0.3668
    122  OD1      -16.5790  -10.7120  -10.5820 O.co2 213  ASP213     -0.2456
    123  OD2      -15.2620   -9.7020  -11.9700 O.co2 213  ASP213     -0.2456
    124  N        -13.1460   -8.9340   -9.0970 N.am  214  LEU214     -0.1979
    125  CA       -12.4150   -9.6660   -8.0700 C.3   214  LEU214      0.1596
    126  C        -11.2950   -8.8380   -7.3810 C.2   214  LEU214      0.2287
    127  O        -10.4830   -9.3640   -6.5900 O.2   214  LEU214     -0.2864
    128  CB       -11.8290  -10.9440   -8.6780 C.3   214  LEU214      0.0297
    129  CG       -12.8180  -12.0030   -9.1880 C.3   214  LEU214      0.0022
    130  CD1      -12.0930  -13.3120   -9.4630 C.3   214  LEU214      0.0001
    131  CD2      -13.9420  -12.2050   -8.1650 C.3   214  LEU214      0.0001
    132  N        -13.5070   -6.0810  -18.7750 N.3   239  VAL239     -0.1231
    133  CA       -14.6990   -6.9290  -18.7980 C.3   239  VAL239      0.1692
    134  C        -14.9820   -7.5920  -17.4560 C.2   239  VAL239      0.2592
    135  O        -14.0870   -7.7570  -16.6310 O.2   239  VAL239     -0.2718
    136  CB       -14.6640   -7.9860  -19.9450 C.3   239  VAL239      0.0266
    137  CG1      -14.4500   -7.3130  -21.2830 C.3   239  VAL239      0.0020
    138  CG2      -13.5860   -9.0450  -19.6910 C.3   239  VAL239      0.0020
    139  N        -16.2380   -7.9470  -17.2290 N.am  240  VAL240     -0.1966
    140  CA       -16.6150   -8.8160  -16.1130 C.3   240  VAL240      0.1727
    141  C        -17.3550  -10.0670  -16.6170 C.2   240  VAL240      0.2616
    142  O        -18.5510  -10.0310  -16.8830 O.2   240  VAL240     -0.2715
    143  CB       -17.5580   -8.0880  -15.1550 C.3   240  VAL240      0.0290
    144  CG1      -18.1000   -9.0650  -14.1210 C.3   240  VAL240      0.0023
    145  CG2      -16.8440   -6.9300  -14.5040 C.3   240  VAL240      0.0023
    146  N        -16.6420  -11.1720  -16.7580 N.am  241  ASN241     -0.1958
    147  CA       -17.2560  -12.4100  -17.2000 C.3   241  ASN241      0.1819
    148  C        -17.9760  -13.1110  -16.0730 C.2   241  ASN241      0.2621
    149  O        -17.9680  -12.6380  -14.9170 O.2   241  ASN241     -0.2715
    150  CB       -16.2010  -13.3370  -17.7520 C.3   241  ASN241      0.1195
    151  CG       -15.5240  -12.7620  -18.9890 C.2   241  ASN241      0.2630
    152  OD1      -16.1980  -12.2160  -19.8690 O.2   241  ASN241     -0.2716
    153  ND2      -14.1890  -12.8730  -19.0600 N.am  241  ASN241     -0.0877
    154  N        -18.5950  -14.2460  -16.3930 N.am  242  ARG242     -0.1963
    155  CA       -19.2650  -15.0350  -15.3700 C.3   242  ARG242      0.1729
    156  C        -18.2400  -15.6680  -14.4320 C.2   242  ARG242      0.2617
    157  O        -17.1860  -16.1290  -14.8730 O.2   242  ARG242     -0.2715
    158  CB       -20.1700  -16.1030  -16.0000 C.3   242  ARG242      0.0348
    159  CG       -21.5170  -15.5320  -16.4330 C.3   242  ARG242      0.0492
    160  CD       -22.2100  -16.3800  -17.4650 C.3   242  ARG242      0.2205
    161  NE       -21.5420  -16.2920  -18.7500 N.pl3 242  ARG242     -0.0865
    162  CZ       -21.9690  -16.8970  -19.8600 C.cat 242  ARG242      0.5346
    163  NH1      -23.0630  -17.6610  -19.8380 N.pl3 242  ARG242      0.1354
    164  NH2      -21.2940  -16.7500  -20.9910 N.pl3 242  ARG242      0.1354
    165  N        -18.5680  -15.6610  -13.1410 N.am  243  SER243     -0.1936
    166  CA       -17.7800  -16.3070  -12.1050 C.3   243  SER243      0.2055
    167  C        -18.0130  -17.8210  -12.1590 C.2   243  SER243      0.2642
    168  O        -18.9250  -18.2850  -12.8320 O.2   243  SER243     -0.2714
    169  CB       -18.2170  -15.7820  -10.7440 C.3   243  SER243      0.2130
    170  OG       -19.4760  -16.3310  -10.3940 O.3   243  SER243     -0.2179
    171  N        -17.1950  -18.5770  -11.4460 N.am  244  GLN244     -0.1976
    172  CA       -17.3230  -20.0200  -11.4110 C.3   244  GLN244      0.1601
    173  C        -18.6410  -20.5170  -10.7980 C.2   244  GLN244      0.2287
    174  O        -19.0810  -21.6220  -11.0960 O.2   244  GLN244     -0.2864
    175  CB       -16.1380  -20.6350  -10.6730 C.3   244  GLN244      0.0394
    176  CG       -16.1250  -22.1560  -10.6930 C.3   244  GLN244      0.0908
    177  CD       -16.0900  -22.7250  -12.1060 C.2   244  GLN244      0.2608
    178  OE1      -15.3230  -22.2590  -12.9560 O.2   244  GLN244     -0.2717
    179  NE2      -16.9340  -23.7360  -12.3710 N.am  244  GLN244     -0.0878
    180  N        -21.2650  -20.0920  -13.7410 N.3   247  ILE247     -0.1245
    181  CA       -21.0490  -21.3290  -14.4780 C.3   247  ILE247      0.1561
    182  C        -21.7860  -22.5160  -13.8160 C.2   247  ILE247      0.2260
    183  O        -22.6410  -23.1560  -14.4500 O.2   247  ILE247     -0.2867
    184  CB       -19.5300  -21.6240  -14.6670 C.3   247  ILE247      0.0252
    185  CG1      -18.8760  -20.5530  -15.5430 C.3   247  ILE247      0.0019
    186  CG2      -19.2830  -22.9670  -15.2950 C.3   247  ILE247      0.0019
    187  CD1      -17.4140  -20.8280  -15.8580 C.3   247  ILE247      0.0001
@<TRIPOS>BOND
     1    80    81    1
     2    95    93    1
     3    94    93    1
     4    83    82    2
     5    93    92    1
     6    81    82    1
     7    81    84    1
     8    82    88   am
     9    84    85    1
    10    92    89    1
    11    88    89    1
    12    89    90    1
    13    85    86   ar
    14    85    87   ar
    15    90    91    2
    16    79    77    1
    17    32    31    2
    18    23    22    2
    19    30    31    1
    20    30    33    1
    21    30    29    1
    22    77    78    1
    23    77    74    1
    24    34    33    1
    25    31    35   am
    26    38    37    2
    27    22    29   am
    28    22    21    1
    29    26    27    1
    30    26    25    1
    31    24    25    1
    32    24    21    1
    33    75    74    1
    34    75    76    2
    35    74    73    1
    36    37    36    1
    37    27    28    1
    38    21    20    1
    39    35    36    1
    40    36    39    1
    41    96    97    1
    42    73    68   am
    43   137   136    1
    44    69    68    2
    45    50    49    1
    46   164   162    1
    47    97    98    1
    48    20    18   am
    49    19    18    2
    50    68    67    1
    51    98    99    2
    52    49    51    1
    53    49    48    2
    54    39    40    1
    55    18    17    1
    56    47    48    1
    57    47    46    1
    58   136   138    1
    59   136   133    1
    60    41    42    1
    61   152   151    2
    62   162   163    1
    63   162   161    2
    64    72    70    1
    65    46    45    1
    66    67    70    1
    67    67    66    1
    68    45    42    1
    69   153   151   am
    70    42    43    1
    71   151   150    1
    72   106   104    1
    73    70    71    1
    74   133   132    1
    75   133   134    1
    76   161   160    1
    77    17    16    1
    78   150   147    1
    79     1     2    1
    80    43    44    2
    81    43    52   am
    82   160   159    1
    83   134   139   am
    84   134   135    2
    85   100   101    1
    86   104   101    1
    87   104   105    1
    88     2     3    1
    89     2     5    1
    90   139   140    1
    91   147   146    1
    92   147   148    1
    93    10     3   am
    94    10    11    1
    95   101   102    1
    96   142   141    2
    97    52    53    1
    98   146   141   am
    99   141   140    1
   100    55    54    2
   101     3     4    2
   102     5     6    1
   103     8     7    2
   104   159   158    1
   105   154   148   am
   106   154   155    1
   107    11    12    1
   108    11    14    1
   109     6     7    1
   110   140   143    1
   111   148   149    2
   112    12    13    2
   113   158   155    1
   114   187   185    1
   115    65    64    2
   116     7     9   am
   117   185   184    1
   118    53    54    1
   119    54    56   am
   120   102   107   am
   121   102   103    2
   122   155   156    1
   123   186   184    1
   124    64    63    1
   125   143   145    1
   126   143   144    1
   127    14    15    1
   128   157   156    2
   129   107   108    1
   130   184   181    1
   131   181   182    1
   132   181   180    1
   133   183   182    2
   134   156   165   am
   135    56    57    1
   136    59    58    2
   137    63    62    1
   138   114   113    1
   139   114   115    1
   140    58    62   am
   141    58    57    1
   142   108   111    1
   143   108   109    1
   144   112   113    1
   145   112   111    1
   146    57    60    1
   147   165   166    1
   148   178   177    2
   149   168   167    2
   150   109   110    2
   151   179   177   am
   152   167   166    1
   153   167   171   am
   154    60    61    1
   155   177   176    1
   156   166   169    1
   157   123   121   ar
   158   171   172    1
   159   172   173    1
   160   172   175    1
   161   174   173    2
   162   116   117    1
   163   121   122   ar
   164   121   120    1
   165   169   170    1
   166   176   175    1
   167   120   117    1
   168   117   118    1
   169   130   129    1
   170   129   128    1
   171   129   131    1
   172   124   118   am
   173   124   125    1
   174   118   119    2
   175   128   125    1
   176   125   126    1
   177   126   127    2
