@<TRIPOS>MOLECULE
tmp/3t3cB00.pdb
 110 103 0 0 0
SMALL
GASTEIGER

@<TRIPOS>ATOM
      1  N         -8.4800    8.8040  -21.7700 N.3     8  ARG8       -0.1245
      2  CA        -7.4120    8.0770  -21.0510 C.3     8  ARG8        0.1563
      3  C         -7.0370    8.8160  -19.7730 C.2     8  ARG8        0.2260
      4  O         -6.8300   10.0350  -19.8070 O.2     8  ARG8       -0.2867
      5  CB        -6.1830    7.9290  -21.9530 C.3     8  ARG8        0.0307
      6  CG        -6.4230    7.1090  -23.1830 C.3     8  ARG8        0.0489
      7  CD        -5.1900    7.0230  -24.0560 C.3     8  ARG8        0.2205
      8  NE        -5.3560    5.9700  -25.0460 N.pl3   8  ARG8       -0.0865
      9  CZ        -4.6430    5.8530  -26.1640 C.cat   8  ARG8        0.5346
     10  NH1       -3.7060    6.7420  -26.4650 N.pl3   8  ARG8        0.1354
     11  NH2       -4.8760    4.8420  -26.9890 N.pl3   8  ARG8        0.1354
     12  N         -0.1670    6.9790  -17.5010 N.3    23  LEU23      -0.1245
     13  CA        -1.5260    6.4700  -17.4900 C.3    23  LEU23       0.1561
     14  C         -1.7920    5.8060  -16.1440 C.2    23  LEU23       0.2260
     15  O         -1.0320    4.9200  -15.7130 O.2    23  LEU23      -0.2867
     16  CB        -1.6610    5.4380  -18.6040 C.3    23  LEU23       0.0270
     17  CG        -2.9850    4.9640  -19.1700 C.3    23  LEU23       0.0019
     18  CD1       -3.7440    6.1230  -19.7820 C.3    23  LEU23       0.0001
     19  CD2       -2.6350    3.9480  -20.2630 C.3    23  LEU23       0.0001
     20  N         -3.3020    3.1480  -14.4400 N.3    25  ASP25      -0.1239
     21  CA        -3.6800    1.9150  -15.1100 C.3    25  ASP25       0.1674
     22  C         -3.9660    0.7690  -14.1390 C.2    25  ASP25       0.2266
     23  O         -3.0360    0.1340  -13.6290 O.2    25  ASP25      -0.2867
     24  CB        -2.5640    1.5310  -16.0940 C.3    25  ASP25       0.1410
     25  CG        -2.9550    0.3910  -16.9890 C.2    25  ASP25       0.3668
     26  OD1       -4.0590   -0.1800  -16.7850 O.co2  25  ASP25      -0.2456
     27  OD2       -2.1740    0.0780  -17.9160 O.co2  25  ASP25      -0.2456
     28  N         -5.1150   -2.0540  -14.8300 N.3    27  GLY27      -0.1210
     29  CA        -4.7510   -3.3260  -15.4350 C.3    27  GLY27       0.1956
     30  C         -3.2690   -3.6460  -15.3020 C.2    27  GLY27       0.2612
     31  O         -2.8400   -4.7590  -15.6010 O.2    27  GLY27      -0.2717
     32  N         -2.4800   -2.6790  -14.8490 N.am   28  ALA28      -0.1965
     33  CA        -1.0310   -2.8750  -14.6900 C.3    28  ALA28       0.1728
     34  C         -0.7240   -3.1940  -13.2380 C.2    28  ALA28       0.2616
     35  O         -1.0760   -2.4210  -12.3420 O.2    28  ALA28      -0.2715
     36  CB        -0.2530   -1.6310  -15.1740 C.3    28  ALA28       0.0334
     37  N         -0.1160   -4.3500  -12.9960 N.am   29  ASP29      -0.1957
     38  CA         0.2530   -4.7500  -11.6410 C.3    29  ASP29       0.1840
     39  C          1.2980   -3.7830  -11.0880 C.2    29  ASP29       0.2622
     40  O          1.2730   -3.4210   -9.9100 O.2    29  ASP29      -0.2715
     41  CB         0.8210   -6.1710  -11.6060 C.3    29  ASP29       0.1450
     42  CG        -0.2100   -7.2530  -11.9400 C.2    29  ASP29       0.3671
     43  OD1       -1.4270   -7.0800  -11.7030 O.co2  29  ASP29      -0.2456
     44  OD2        0.2200   -8.3150  -12.4330 O.co2  29  ASP29      -0.2456
     45  N          2.2240   -3.3830  -11.9610 N.am   30  ASP30      -0.1971
     46  CA         3.3560   -2.5510  -11.5930 C.3    30  ASP30       0.1709
     47  C          3.5550   -1.3970  -12.5570 C.2    30  ASP30       0.2293
     48  O          3.1900   -1.4730  -13.7290 O.2    30  ASP30      -0.2864
     49  CB         4.6190   -3.4080  -11.5270 C.3    30  ASP30       0.1436
     50  CG         4.5220   -4.4810  -10.4610 C.2    30  ASP30       0.3671
     51  OD1        4.4780   -4.1310   -9.2650 O.co2  30  ASP30      -0.2456
     52  OD2        4.4790   -5.6690  -10.8200 O.co2  30  ASP30      -0.2456
     53  N          5.3770    0.9400  -15.0150 N.3    32  VAL32      -0.1245
     54  CA         6.3590    0.7830  -16.1050 C.3    32  VAL32       0.1561
     55  C          6.5080    2.1010  -16.8890 C.2    32  VAL32       0.2260
     56  O          5.5130    2.6870  -17.3340 O.2    32  VAL32      -0.2867
     57  CB         6.0000   -0.3900  -17.0900 C.3    32  VAL32       0.0252
     58  CG1        7.1840   -0.6920  -18.0480 C.3    32  VAL32       0.0019
     59  CG2        5.6190   -1.6650  -16.3300 C.3    32  VAL32       0.0019
     60  N          7.7550   -8.2580  -18.1950 N.3    47  ILE47      -0.1231
     61  CA         6.3000   -8.1040  -18.0700 C.3    47  ILE47       0.1692
     62  C          5.5990   -8.6550  -19.3030 C.2    47  ILE47       0.2592
     63  O          6.2070   -8.7540  -20.3670 O.2    47  ILE47      -0.2718
     64  CB         5.8800   -6.6420  -17.7960 C.3    47  ILE47       0.0266
     65  CG1        6.4480   -5.6960  -18.8650 C.3    47  ILE47       0.0019
     66  CG2        6.3310   -6.2420  -16.3870 C.3    47  ILE47       0.0020
     67  CD1        5.9230   -4.2810  -18.7720 C.3    47  ILE47       0.0001
     68  N          4.3340   -9.0330  -19.1510 N.am   48  ALA48      -0.1966
     69  CA         3.5910   -9.6710  -20.2290 C.3    48  ALA48       0.1728
     70  C          2.3210   -8.9090  -20.5110 C.2    48  ALA48       0.2617
     71  O          1.6230   -8.5170  -19.5910 O.2    48  ALA48      -0.2715
     72  CB         3.2450  -11.1130  -19.8600 C.3    48  ALA48       0.0334
     73  N          2.0070   -8.7210  -21.7890 N.am   49  GLY49      -0.1940
     74  CA         0.7800   -8.0300  -22.1640 C.3    49  GLY49       0.2014
     75  C          0.1930   -8.5580  -23.4550 C.2    49  GLY49       0.2638
     76  O          0.5440   -9.6480  -23.9280 O.2    49  GLY49      -0.2714
     77  N         -0.7240   -7.7810  -24.0300 N.am   50  ILE50      -0.1977
     78  CA        -1.2740   -8.1230  -25.3370 C.3    50  ILE50       0.1596
     79  C         -0.1420   -7.9770  -26.3710 C.2    50  ILE50       0.2287
     80  O          0.5390   -6.9540  -26.4200 O.2    50  ILE50      -0.2864
     81  CB        -2.5130   -7.2450  -25.6760 C.3    50  ILE50       0.0276
     82  CG1       -3.6850   -7.6100  -24.7450 C.3    50  ILE50       0.0022
     83  CG2       -2.9140   -7.4030  -27.1460 C.3    50  ILE50       0.0022
     84  CD1       -4.8270   -6.6040  -24.7170 C.3    50  ILE50       0.0001
     85  N          8.3010    0.1410  -23.2290 N.3    80  THR80      -0.1204
     86  CA         6.8580    0.0700  -23.2790 C.3    80  THR80       0.1979
     87  C          6.2940    1.2230  -24.1110 C.2    80  THR80       0.2460
     88  O          6.7440    2.3630  -23.9550 O.2    80  THR80      -0.2732
     89  CB         6.2480    0.1270  -21.8770 C.3    80  THR80       0.1783
     90  OG1        4.8190    0.1660  -21.9900 O.3    80  THR80      -0.2211
     91  CG2        6.7240    1.3600  -21.1110 C.3    80  THR80       0.0376
     92  N          5.2860    0.9370  -24.9710 N.am   81  PRO81      -0.2717
     93  CA         4.5940    1.9940  -25.7190 C.3    81  PRO81       0.1535
     94  C          3.7240    2.9220  -24.8580 C.2    81  PRO81       0.2598
     95  O          3.2960    3.9830  -25.3300 O.2    81  PRO81      -0.2715
     96  CB         3.7170    1.2110  -26.7110 C.3    81  PRO81       0.0310
     97  CG         3.5190   -0.0820  -26.1010 C.3    81  PRO81       0.0237
     98  CD         4.7430   -0.3970  -25.3020 C.3    81  PRO81       0.0939
     99  N          3.4740    2.5350  -23.6120 N.am   82  ALA82      -0.1978
    100  CA         2.7280    3.3850  -22.6870 C.3    82  ALA82       0.1597
    101  C          3.3770    3.4590  -21.3040 C.2    82  ALA82       0.2287
    102  O          3.7340    2.4480  -20.7060 O.2    82  ALA82      -0.2864
    103  CB         1.2910    2.9080  -22.5670 C.3    82  ALA82       0.0319
    104  N          2.8490    3.7650  -17.6210 N.3    84  VAL84      -0.1245
    105  CA         1.7610    3.4490  -16.6970 C.3    84  VAL84       0.1561
    106  C          2.2140    3.5010  -15.2330 C.2    84  VAL84       0.2260
    107  O          3.2930    3.0140  -14.8820 O.2    84  VAL84      -0.2867
    108  CB         1.0730    2.0810  -17.0150 C.3    84  VAL84       0.0252
    109  CG1        0.5450    2.0630  -18.4360 C.3    84  VAL84       0.0019
    110  CG2        2.0220    0.8990  -16.7840 C.3    84  VAL84       0.0019
@<TRIPOS>BOND
     1    83    81    1
     2    11     9    1
     3    96    97    1
     4    96    93    1
     5    10     9    1
     6    80    79    2
     7    79    78    1
     8     9     8    2
     9    97    98    1
    10    93    92    1
    11    93    94    1
    12    81    78    1
    13    81    82    1
    14    78    77    1
    15    95    94    2
    16    98    92    1
    17     8     7    1
    18    92    87   am
    19    94    99   am
    20    82    84    1
    21    87    88    2
    22    87    86    1
    23     7     6    1
    24    77    75   am
    25    76    75    2
    26    99   100    1
    27    75    74    1
    28    86    85    1
    29    86    89    1
    30     6     5    1
    31   100   103    1
    32   100   101    1
    33    74    73    1
    34    90    89    1
    35     5     2    1
    36    89    91    1
    37    73    70   am
    38     1     2    1
    39   101   102    2
    40     2     3    1
    41    70    69    1
    42    70    71    2
    43    63    62    2
    44    19    17    1
    45    69    72    1
    46    69    68    1
    47     4     3    2
    48    18    17    1
    49    62    68   am
    50    62    61    1
    51    17    16    1
    52    65    67    1
    53    65    64    1
    54    16    13    1
    55   109   108    1
    56    60    61    1
    57    61    64    1
    58    58    57    1
    59    27    25   ar
    60    64    66    1
    61   104   105    1
    62    12    13    1
    63    13    14    1
    64    56    55    2
    65    57    59    1
    66    57    54    1
    67   108   110    1
    68   108   105    1
    69    25    26   ar
    70    25    24    1
    71    55    54    1
    72   105   106    1
    73    14    15    2
    74    54    53    1
    75    24    21    1
    76    31    30    2
    77    29    30    1
    78    29    28    1
    79    30    32   am
    80   106   107    2
    81    36    33    1
    82    21    20    1
    83    21    22    1
    84    32    33    1
    85    33    34    1
    86    22    23    2
    87    48    47    2
    88    34    37   am
    89    34    35    2
    90    37    38    1
    91    47    46    1
    92    44    42   ar
    93    45    46    1
    94    45    39   am
    95    42    43   ar
    96    42    41    1
    97    38    41    1
    98    38    39    1
    99    46    49    1
   100    49    50    1
   101    39    40    2
   102    52    50   ar
   103    50    51   ar
