@<TRIPOS>MOLECULE
tmp/3t3eA00.pdb
 160 151 0 0 0
SMALL
GASTEIGER

@<TRIPOS>ATOM
      1  N         32.8810   20.1260   39.2330 N.3    77  GLU77      -0.1245
      2  CA        31.5880   20.6530   38.8330 C.3    77  GLU77       0.1567
      3  C         30.6140   19.5250   38.5820 C.2    77  GLU77       0.2260
      4  O         30.9640   18.5870   37.8620 O.2    77  GLU77      -0.2867
      5  CB        31.7330   21.5670   37.5990 C.3    77  GLU77       0.0388
      6  CG        32.4430   22.8760   37.8300 C.3    77  GLU77       0.1160
      7  CD        32.3720   23.7430   36.6090 C.2    77  GLU77       0.3649
      8  OE1       33.2690   24.5540   36.4590 O.co2  77  GLU77      -0.2457
      9  OE2       31.4480   23.6190   35.7650 O.co2  77  GLU77      -0.2457
     10  N         29.0080   23.7750   30.1290 N.3   124  GLY124     -0.1210
     11  CA        29.0810   22.4750   29.4550 C.3   124  GLY124      0.1956
     12  C         29.8360   21.3950   30.2170 C.2   124  GLY124      0.2611
     13  O         29.4110   20.2450   30.3230 O.2   124  GLY124     -0.2717
     14  N         30.9450   21.7570   30.8050 N.am  125  LEU125     -0.1979
     15  CA        31.7930   20.7350   31.5250 C.3   125  LEU125      0.1596
     16  C         31.1240   20.2020   32.8070 C.2   125  LEU125      0.2287
     17  O         31.3020   19.0390   33.1760 O.2   125  LEU125     -0.2864
     18  CB        33.1980   21.3310   31.8150 C.3   125  LEU125      0.0297
     19  CG        34.2030   20.6450   32.7620 C.3   125  LEU125      0.0022
     20  CD1       35.6530   21.0120   32.4570 C.3   125  LEU125      0.0001
     21  CD2       33.8780   21.1410   34.1400 C.3   125  LEU125      0.0001
     22  N         28.1450   17.9760   31.6830 N.3   128  LEU128     -0.1245
     23  CA        28.5870   16.7070   31.1010 C.3   128  LEU128      0.1561
     24  C         28.7240   15.6930   32.2220 C.2   128  LEU128      0.2260
     25  O         28.3920   14.5320   32.0850 O.2   128  LEU128     -0.2867
     26  CB        29.9190   16.8500   30.3860 C.3   128  LEU128      0.0270
     27  CG        30.2450   15.5840   29.5510 C.3   128  LEU128      0.0019
     28  CD1       29.5550   15.5570   28.1770 C.3   128  LEU128      0.0001
     29  CD2       31.8020   15.3200   29.3570 C.3   128  LEU128      0.0001
     30  N         34.2340   31.2590   36.6460 N.3   265  ASN265     -0.1225
     31  CA        34.9540   31.4730   35.3950 C.3   265  ASN265      0.1785
     32  C         34.9480   30.2110   34.5880 C.2   265  ASN265      0.2597
     33  O         35.4470   29.1810   35.0420 O.2   265  ASN265     -0.2718
     34  CB        36.4020   32.0260   35.5520 C.3   265  ASN265      0.1169
     35  CG        37.1550   31.4700   36.7550 C.2   265  ASN265      0.2627
     36  OD1       37.0970   32.0950   37.7980 O.2   265  ASN265     -0.2716
     37  ND2       37.8940   30.3210   36.6260 N.am  265  ASN265     -0.0877
     38  N         34.3670   30.2880   33.3980 N.am  266  ASP266     -0.1960
     39  CA        34.2770   29.1720   32.5130 C.3   266  ASP266      0.1840
     40  C         35.2470   29.3600   31.3560 C.2   266  ASP266      0.2622
     41  O         35.2960   30.4230   30.7660 O.2   266  ASP266     -0.2715
     42  CB        32.8360   29.1140   31.9540 C.3   266  ASP266      0.1450
     43  CG        32.3860   27.6770   31.6050 C.2   266  ASP266      0.3671
     44  OD1       32.7450   26.6410   32.2970 O.co2 266  ASP266     -0.2456
     45  OD2       31.6620   27.5970   30.5930 O.co2 266  ASP266     -0.2456
     46  N         35.9990   28.3200   30.9790 N.am  267  ASN267     -0.1972
     47  CA        36.9570   28.4760   29.8690 C.3   267  ASN267      0.1688
     48  C         37.9360   29.6350   30.0920 C.2   267  ASN267      0.2292
     49  O         38.2690   30.3180   29.1570 O.2   267  ASN267     -0.2864
     50  CB        36.2340   28.7170   28.5240 C.3   267  ASN267      0.1181
     51  CG        35.7520   27.4450   27.8780 C.2   267  ASN267      0.2629
     52  OD1       36.5510   26.6400   27.3860 O.2   267  ASN267     -0.2716
     53  ND2       34.4180   27.2320   27.9010 N.am  267  ASN267     -0.0877
     54  N         38.7300   17.3060   33.1320 N.3   313  ASP313     -0.1239
     55  CA        39.7410   18.3570   32.8890 C.3   313  ASP313      0.1674
     56  C         40.8980   18.2180   33.8870 C.2   313  ASP313      0.2266
     57  O         40.9970   17.1900   34.5490 O.2   313  ASP313     -0.2867
     58  CB        39.1470   19.8060   32.8030 C.3   313  ASP313      0.1410
     59  CG        39.8970   20.6690   31.7910 C.2   313  ASP313      0.3668
     60  OD1       39.7590   20.5970   30.5220 O.co2 313  ASP313     -0.2456
     61  OD2       40.7470   21.3600   32.2500 O.co2 313  ASP313     -0.2456
     62  N         41.2990   19.8800   36.5070 N.3   315  HIS315     -0.1241
     63  CA        40.9500   20.3950   37.8310 C.3   315  HIS315      0.1621
     64  C         41.3460   19.5010   38.9950 C.2   315  HIS315      0.2264
     65  O         41.7690   20.0210   40.0160 O.2   315  HIS315     -0.2867
     66  CB        39.4710   20.8210   37.9560 C.3   315  HIS315      0.0745
     67  CG        39.0450   21.7600   36.8800 C.ar  315  HIS315      0.0817
     68  ND1       37.7450   21.8370   36.4350 N.ar  315  HIS315     -0.2268
     69  CD2       39.7590   22.6430   36.1220 C.ar  315  HIS315      0.1154
     70  CE1       37.6660   22.7570   35.4830 C.ar  315  HIS315      0.1986
     71  NE2       38.8720   23.2540   35.2680 N.ar  315  HIS315     -0.2212
     72  N         39.0690   19.4150   27.6100 N.3   351  HIS351     -0.1226
     73  CA        37.8490   20.0630   27.1750 C.3   351  HIS351      0.1752
     74  C         38.0750   21.3610   26.4170 C.2   351  HIS351      0.2596
     75  O         37.1440   22.0890   26.2010 O.2   351  HIS351     -0.2718
     76  CB        36.9980   20.3620   28.3930 C.3   351  HIS351      0.0759
     77  CG        36.5270   19.1550   29.1210 C.ar  351  HIS351      0.0818
     78  ND1       35.3320   18.5420   28.8330 N.ar  351  HIS351     -0.2268
     79  CD2       37.0920   18.4280   30.1190 C.ar  351  HIS351      0.1154
     80  CE1       35.1530   17.4990   29.6360 C.ar  351  HIS351      0.1986
     81  NE2       36.2070   17.4100   30.4340 N.ar  351  HIS351     -0.2212
     82  N         39.3200   21.6750   26.0580 N.am  352  THR352     -0.1953
     83  CA        39.6450   22.9800   25.4680 C.3   352  THR352      0.1897
     84  C         41.0470   23.0770   24.9080 C.2   352  THR352      0.2313
     85  O         41.9520   22.3650   25.3320 O.2   352  THR352     -0.2863
     86  CB        39.4750   24.1780   26.4320 C.3   352  THR352      0.1794
     87  OG1       39.4010   25.3740   25.6700 O.3   352  THR352     -0.2208
     88  CG2       40.6620   24.3640   27.3240 C.3   352  THR352      0.0378
     89  N         42.4960   29.1130   28.9790 N.3   357  ALA357     -0.1245
     90  CA        41.7110   28.1700   29.8150 C.3   357  ALA357      0.1562
     91  C         42.5840   27.1040   30.5240 C.2   357  ALA357      0.2260
     92  O         42.1560   26.5120   31.5000 O.2   357  ALA357     -0.2867
     93  CB        40.6300   27.4930   28.9960 C.3   357  ALA357      0.0290
     94  N         36.9020   15.5290   23.1680 N.3   429  VAL429     -0.1245
     95  CA        35.4800   15.3560   23.5030 C.3   429  VAL429      0.1561
     96  C         34.5760   15.4010   22.2320 C.2   429  VAL429      0.2260
     97  O         33.3410   15.3950   22.2910 O.2   429  VAL429     -0.2867
     98  CB        35.0470   16.3250   24.6730 C.3   429  VAL429      0.0252
     99  CG1       35.6390   15.8760   26.0150 C.3   429  VAL429      0.0019
    100  CG2       35.3390   17.7630   24.3950 C.3   429  VAL429      0.0019
    101  N         31.2730   13.6020   23.0580 N.3   458  ASN458     -0.1240
    102  CA        30.3000   13.9070   24.1010 C.3   458  ASN458      0.1653
    103  C         28.8860   13.4100   23.7340 C.2   458  ASN458      0.2266
    104  O         28.6030   13.1300   22.5570 O.2   458  ASN458     -0.2867
    105  CB        30.3380   15.4230   24.3370 C.3   458  ASN458      0.1155
    106  CG        31.5170   15.8360   25.2190 C.2   458  ASN458      0.2627
    107  OD1       31.8180   17.0360   25.3840 O.2   458  ASN458     -0.2716
    108  ND2       32.1210   14.8500   25.8880 N.am  458  ASN458     -0.0877
    109  N         34.7700   33.5890   21.9740 N.3   547  TYR547     -0.1227
    110  CA        34.8570   32.4890   21.0120 C.3   547  TYR547      0.1736
    111  C         33.4730   31.9500   20.5690 C.2   547  TYR547      0.2595
    112  O         33.3840   31.4060   19.4960 O.2   547  TYR547     -0.2718
    113  CB        35.7800   31.3170   21.5030 C.3   547  TYR547      0.0548
    114  CG        35.1420   30.2160   22.3560 C.ar  547  TYR547     -0.0200
    115  CD1       34.4820   29.1850   21.7620 C.ar  547  TYR547     -0.0009
    116  CD2       35.3000   30.1780   23.7750 C.ar  547  TYR547     -0.0009
    117  CE1       33.9310   28.1640   22.5210 C.ar  547  TYR547      0.0417
    118  CE2       34.7280   29.1930   24.5460 C.ar  547  TYR547      0.0417
    119  CZ        34.0260   28.1790   23.9080 C.ar  547  TYR547      0.1957
    120  OH        33.4530   27.1290   24.6180 O.3   547  TYR547     -0.2866
    121  N         32.4370   32.1050   21.3860 N.am  548  LYS548     -0.1980
    122  CA        31.0960   31.5740   21.0710 C.3   548  LYS548      0.1596
    123  C         30.3610   32.5050   20.1170 C.2   548  LYS548      0.2287
    124  O         29.3620   32.1170   19.4650 O.2   548  LYS548     -0.2864
    125  CB        30.3020   31.3300   22.3630 C.3   548  LYS548      0.0298
    126  CG        30.8220   30.1660   23.2070 C.3   548  LYS548      0.0038
    127  CD        30.2240   30.0910   24.6690 C.3   548  LYS548      0.0206
    128  CE        30.7180   28.8530   25.5160 C.3   548  LYS548      0.1093
    129  NZ        30.1450   27.5670   24.8310 N.3   548  LYS548     -0.1314
    130  N         35.4130   25.4670   19.8650 N.3   646  GLU646     -0.1231
    131  CA        34.4230   24.8620   20.7440 C.3   646  GLU646      0.1699
    132  C         34.7450   23.3740   20.8050 C.2   646  GLU646      0.2592
    133  O         34.5620   22.7190   19.8360 O.2   646  GLU646     -0.2718
    134  CB        33.0120   25.0230   20.1430 C.3   646  GLU646      0.0402
    135  CG        31.8430   24.5180   21.0930 C.3   646  GLU646      0.1161
    136  CD        31.7240   25.3230   22.4480 C.2   646  GLU646      0.3649
    137  OE1       32.4310   24.9870   23.4540 O.co2 646  GLU646     -0.2457
    138  OE2       30.8950   26.2630   22.5250 O.co2 646  GLU646     -0.2457
    139  N         35.2490   22.8390   21.9110 N.am  647  ALA647     -0.1966
    140  CA        35.8400   21.4890   21.8250 C.3   647  ALA647      0.1728
    141  C         34.7990   20.4310   21.3270 C.2   647  ALA647      0.2617
    142  O         35.1200   19.5630   20.5080 O.2   647  ALA647     -0.2715
    143  CB        36.4830   21.0660   23.1600 C.3   647  ALA647      0.0334
    144  N         33.5800   20.5220   21.8640 N.am  648  SER648     -0.1936
    145  CA        32.5210   19.6560   21.4530 C.3   648  SER648      0.2055
    146  C         31.2520   20.4380   21.2920 C.2   648  SER648      0.2644
    147  O         30.6640   20.4680   20.1630 O.2   648  SER648     -0.2714
    148  CB        32.2370   18.5740   22.4620 C.3   648  SER648      0.2130
    149  OG        31.0590   17.9050   21.9670 O.3   648  SER648     -0.2179
    150  N         30.8350   21.0610   22.4220 N.am  649  GLY649     -0.1939
    151  CA        29.5160   21.6320   22.5480 C.3   649  GLY649      0.2014
    152  C         28.5850   20.4710   22.9560 C.2   649  GLY649      0.2639
    153  O         28.8320   19.3130   22.5820 O.2   649  GLY649     -0.2714
    154  N         27.5180   20.7760   23.7090 N.am  650  THR650     -0.1950
    155  CA        26.4670   19.7580   24.0730 C.3   650  THR650      0.1897
    156  C         25.0880   20.3620   24.0290 C.2   650  THR650      0.2313
    157  O         24.1100   19.6520   23.7630 O.2   650  THR650     -0.2863
    158  CB        26.6690   19.1360   25.4400 C.3   650  THR650      0.1794
    159  OG1       26.8440   20.1740   26.3740 O.3   650  THR650     -0.2208
    160  CG2       27.9020   18.2700   25.4640 C.3   650  THR650      0.0378
@<TRIPOS>BOND
     1   124   123    2
     2   112   111    2
     3   133   132    2
     4   130   131    1
     5   123   122    1
     6   134   131    1
     7   134   135    1
     8   147   146    2
     9   142   141    2
    10   111   110    1
    11   111   121   am
    12   131   132    1
    13   132   139   am
    14   110   113    1
    15   110   109    1
    16   122   121    1
    17   122   125    1
    18   135   136    1
    19   146   145    1
    20   146   150   am
    21   141   140    1
    22   141   144   am
    23   145   144    1
    24   145   148    1
    25   113   114    1
    26   115   114   ar
    27   115   117   ar
    28   140   139    1
    29   140   143    1
    30   149   148    1
    31    96    97    2
    32    96    95    1
    33   114   116   ar
    34   125   126    1
    35   150   151    1
    36   136   138   ar
    37   136   137   ar
    38   117   119   ar
    39   151   152    1
    40   104   103    2
    41   153   152    2
    42   152   154   am
    43   101   102    1
    44    94    95    1
    45   126   127    1
    46    95    98    1
    47   154   155    1
    48   103   102    1
    49   157   156    2
    50   116   118   ar
    51   119   118   ar
    52   119   120    1
    53   156   155    1
    54   155   158    1
    55   102   105    1
    56   105   106    1
    57   100    98    1
    58   127   128    1
    59    98    99    1
    60   129   128    1
    61    84    85    2
    62    84    83    1
    63   106   107    2
    64   106   108   am
    65   158   160    1
    66   158   159    1
    67    83    82    1
    68    83    86    1
    69    87    86    1
    70    82    74   am
    71    75    74    2
    72    74    73    1
    73    86    88    1
    74    73    72    1
    75    73    76    1
    76    52    51    2
    77    51    53   am
    78    51    50    1
    79    28    27    1
    80    76    77    1
    81    50    47    1
    82    78    77   ar
    83    78    80   ar
    84    89    90    1
    85    93    90    1
    86    77    79   ar
    87    49    48    2
    88    29    27    1
    89    11    10    1
    90    11    12    1
    91    27    26    1
    92    80    81   ar
    93    90    91    1
    94    47    48    1
    95    47    46    1
    96    79    81   ar
    97    12    13    2
    98    12    14   am
    99    26    23    1
   100    60    59   ar
   101    91    92    2
   102    45    43   ar
   103    41    40    2
   104    14    15    1
   105    46    40   am
   106    23    22    1
   107    23    24    1
   108    40    39    1
   109    15    18    1
   110    15    16    1
   111    43    42    1
   112    43    44   ar
   113    59    61   ar
   114    59    58    1
   115    18    19    1
   116    42    39    1
   117    25    24    2
   118    20    19    1
   119    39    38    1
   120    19    21    1
   121    58    55    1
   122    16    17    2
   123    55    54    1
   124    55    56    1
   125    38    32   am
   126    56    57    2
   127    32    33    2
   128    32    31    1
   129    71    70   ar
   130    71    69   ar
   131    31    34    1
   132    31    30    1
   133    70    68   ar
   134    34    35    1
   135     9     7   ar
   136    69    67   ar
   137    68    67   ar
   138     8     7   ar
   139    62    63    1
   140     7     6    1
   141    37    35   am
   142    35    36    2
   143    67    66    1
   144     5     6    1
   145     5     2    1
   146    63    66    1
   147    63    64    1
   148     4     3    2
   149     3     2    1
   150     2     1    1
   151    64    65    2
