@<TRIPOS>MOLECULE
tmp/3t3fA00.pdb
 187 180 0 0 0
SMALL
GASTEIGER

@<TRIPOS>ATOM
      1  N         24.3940  -30.7040  -11.1740 N.3   281  ARG281     -0.1245
      2  CA        25.1510  -29.5040  -11.5270 C.3   281  ARG281      0.1563
      3  C         26.6350  -29.8240  -11.7030 C.2   281  ARG281      0.2260
      4  O         27.1420  -30.7890  -11.1190 O.2   281  ARG281     -0.2867
      5  CB        25.0280  -28.4420  -10.4250 C.3   281  ARG281      0.0307
      6  CG        23.7640  -27.5950  -10.4840 C.3   281  ARG281      0.0489
      7  CD        23.8740  -26.4510   -9.4600 C.3   281  ARG281      0.2205
      8  NE        22.8520  -25.4320   -9.6300 N.pl3 281  ARG281     -0.0865
      9  CZ        22.8250  -24.3050   -8.9260 C.cat 281  ARG281      0.5346
     10  NH1       23.7760  -24.0780   -8.0150 N.pl3 281  ARG281      0.1354
     11  NH2       21.8680  -23.4100   -9.1350 N.pl3 281  ARG281      0.1354
     12  N         22.0480  -15.8500  -20.0260 N.3   318  ASP318     -0.1225
     13  CA        21.5190  -16.2720  -18.7260 C.3   318  ASP318      0.1805
     14  C         20.0550  -16.6700  -18.8790 C.2   318  ASP318      0.2598
     15  O         19.2420  -15.8720  -19.3440 O.2   318  ASP318     -0.2718
     16  CB        21.6300  -15.1060  -17.7220 C.3   318  ASP318      0.1424
     17  CG        21.5450  -15.5500  -16.2580 C.2   318  ASP318      0.3668
     18  OD1       22.4310  -15.1580  -15.4720 O.co2 318  ASP318     -0.2456
     19  OD2       20.6050  -16.2720  -15.8600 O.co2 318  ASP318     -0.2456
     20  N         19.7130  -17.8980  -18.4980 N.am  319  TYR319     -0.1962
     21  CA        18.3140  -18.3100  -18.4790 C.3   319  TYR319      0.1771
     22  C         17.5810  -17.4650  -17.4370 C.2   319  TYR319      0.2620
     23  O         18.0700  -17.2940  -16.3250 O.2   319  TYR319     -0.2715
     24  CB        18.1610  -19.7890  -18.1060 C.3   319  TYR319      0.0574
     25  CG        18.4330  -20.7770  -19.2290 C.ar  319  TYR319     -0.0198
     26  CD1       17.5020  -20.9810  -20.2380 C.ar  319  TYR319     -0.0009
     27  CD2       19.6060  -21.5260  -19.2600 C.ar  319  TYR319     -0.0009
     28  CE1       17.7390  -21.8980  -21.2610 C.ar  319  TYR319      0.0417
     29  CE2       19.8510  -22.4460  -20.2730 C.ar  319  TYR319      0.0417
     30  CZ        18.9040  -22.6220  -21.2730 C.ar  319  TYR319      0.1957
     31  OH        19.1160  -23.5260  -22.2890 O.3   319  TYR319     -0.2866
     32  N         16.4160  -16.9450  -17.7940 N.am  320  SER320     -0.1936
     33  CA        15.6000  -16.1840  -16.8600 C.3   320  SER320      0.2055
     34  C         14.7850  -17.1110  -15.9830 C.2   320  SER320      0.2643
     35  O         14.0430  -17.9600  -16.4910 O.2   320  SER320     -0.2714
     36  CB        14.6530  -15.2370  -17.6010 C.3   320  SER320      0.2130
     37  OG        15.3850  -14.4120  -18.4860 O.3   320  SER320     -0.2179
     38  N         14.9440  -16.9450  -14.6680 N.am  321  GLN321     -0.1963
     39  CA        14.1470  -17.6560  -13.6660 C.3   321  GLN321      0.1733
     40  C         14.0320  -19.1230  -13.9960 C.2   321  GLN321      0.2616
     41  O         12.9400  -19.6810  -13.9500 O.2   321  GLN321     -0.2715
     42  CB        12.7370  -17.0650  -13.5950 C.3   321  GLN321      0.0408
     43  CG        12.7010  -15.5410  -13.6270 C.3   321  GLN321      0.0908
     44  CD        11.3430  -14.9900  -13.9850 C.2   321  GLN321      0.2608
     45  OE1       10.4760  -14.8120  -13.1220 O.2   321  GLN321     -0.2717
     46  NE2       11.1410  -14.7160  -15.2700 N.am  321  GLN321     -0.0878
     47  N         15.1410  -19.7640  -14.3470 N.am  322  ILE322     -0.1963
     48  CA        15.0090  -21.1010  -14.9060 C.3   322  ILE322      0.1727
     49  C         14.3870  -22.1000  -13.9420 C.2   322  ILE322      0.2616
     50  O         13.6290  -22.9750  -14.3610 O.2   322  ILE322     -0.2715
     51  CB        16.3070  -21.6680  -15.4910 C.3   322  ILE322      0.0290
     52  CG1       15.9820  -22.9410  -16.2850 C.3   322  ILE322      0.0022
     53  CG2       17.3380  -21.9300  -14.3830 C.3   322  ILE322      0.0023
     54  CD1       17.1560  -23.5230  -17.0690 C.3   322  ILE322      0.0001
     55  N         14.6890  -21.9800  -12.6510 N.am  323  GLU323     -0.1977
     56  CA        14.1360  -22.9480  -11.7110 C.3   323  GLU323      0.1602
     57  C         12.6330  -22.8210  -11.5270 C.2   323  GLU323      0.2287
     58  O         11.9510  -23.8250  -11.3410 O.2   323  GLU323     -0.2864
     59  CB        14.9050  -22.9530  -10.3850 C.3   323  GLU323      0.0415
     60  CG        16.2730  -23.6250  -10.5540 C.3   323  GLU323      0.1163
     61  CD        17.0320  -23.8420   -9.2450 C.2   323  GLU323      0.3649
     62  OE1       16.4670  -23.5890   -8.1580 O.co2 323  GLU323     -0.2457
     63  OE2       18.2050  -24.2690   -9.3230 O.co2 323  GLU323     -0.2457
     64  N         10.4260  -12.4090  -10.0310 N.3   347  HIS347     -0.1241
     65  CA        11.5140  -11.7450   -9.3110 C.3   347  HIS347      0.1621
     66  C         11.3000  -10.2390   -9.1180 C.2   347  HIS347      0.2264
     67  O         11.4370   -9.7270   -8.0050 O.2   347  HIS347     -0.2867
     68  CB        12.8490  -11.9860  -10.0220 C.3   347  HIS347      0.0745
     69  CG        13.3780  -13.3760   -9.8610 C.ar  347  HIS347      0.0817
     70  ND1       12.8590  -14.2680   -8.9460 N.ar  347  HIS347     -0.2268
     71  CD2       14.3810  -14.0280  -10.4960 C.ar  347  HIS347      0.1154
     72  CE1       13.5210  -15.4090   -9.0240 C.ar  347  HIS347      0.1986
     73  NE2       14.4500  -15.2890   -9.9570 N.ar  347  HIS347     -0.2212
     74  N         16.4520   -6.2970   -7.1540 N.3   360  ARG360     -0.1231
     75  CA        15.8290   -7.4640   -7.7650 C.3   360  ARG360      0.1694
     76  C         16.5360   -8.7500   -7.3370 C.2   360  ARG360      0.2591
     77  O         15.9050   -9.8000   -7.2020 O.2   360  ARG360     -0.2718
     78  CB        15.8260   -7.3450   -9.2890 C.3   360  ARG360      0.0321
     79  CG        15.2120   -8.5450   -9.9800 C.3   360  ARG360      0.0489
     80  CD        15.2860   -8.4200  -11.4870 C.3   360  ARG360      0.2205
     81  NE        14.6670   -9.5620  -12.1470 N.pl3 360  ARG360     -0.0865
     82  CZ        15.3200  -10.6600  -12.5090 C.cat 360  ARG360      0.5346
     83  NH1       16.6220  -10.7700  -12.2800 N.pl3 360  ARG360      0.1354
     84  NH2       14.6700  -11.6500  -13.1030 N.pl3 360  ARG360      0.1354
     85  N         17.8480   -8.6600   -7.1290 N.am  361  ARG361     -0.1980
     86  CA        18.6440   -9.7940   -6.6610 C.3   361  ARG361      0.1597
     87  C         18.1910  -10.2600   -5.2770 C.2   361  ARG361      0.2287
     88  O         18.0930  -11.4610   -5.0140 O.2   361  ARG361     -0.2864
     89  CB        20.1340   -9.4290   -6.6290 C.3   361  ARG361      0.0334
     90  CG        21.0380  -10.5220   -6.0660 C.3   361  ARG361      0.0492
     91  CD        22.4740  -10.0330   -5.8920 C.3   361  ARG361      0.2205
     92  NE        23.3470  -11.0790   -5.3620 N.pl3 361  ARG361     -0.0865
     93  CZ        23.9150  -12.0200   -6.1090 C.cat 361  ARG361      0.5346
     94  NH1       23.6970  -12.0470   -7.4170 N.pl3 361  ARG361      0.1354
     95  NH2       24.6930  -12.9370   -5.5490 N.pl3 361  ARG361      0.1354
     96  N         15.4950  -12.6580   -5.1520 N.3   364  LYS364     -0.1231
     97  CA        15.8590  -14.0350   -5.4830 C.3   364  LYS364      0.1693
     98  C         15.9690  -14.9130   -4.2370 C.2   364  LYS364      0.2592
     99  O         15.5080  -16.0570   -4.2330 O.2   364  LYS364     -0.2718
    100  CB        17.1620  -14.0790   -6.2840 C.3   364  LYS364      0.0285
    101  CG        17.0570  -13.4520   -7.6610 C.3   364  LYS364      0.0035
    102  CD        18.3030  -13.7300   -8.4870 C.3   364  LYS364      0.0206
    103  CE        18.1660  -13.1560   -9.8850 C.3   364  LYS364      0.1093
    104  NZ        19.3820  -13.4240  -10.6910 N.3   364  LYS364     -0.1314
    105  N         16.5830  -14.3800   -3.1850 N.am  365  THR365     -0.1953
    106  CA        16.6580  -15.1060   -1.9230 C.3   365  THR365      0.1897
    107  C         15.2510  -15.3490   -1.3730 C.2   365  THR365      0.2313
    108  O         14.9660  -16.4200   -0.8360 O.2   365  THR365     -0.2863
    109  CB        17.5180  -14.3680   -0.8630 C.3   365  THR365      0.1794
    110  OG1       18.8820  -14.3020   -1.3000 O.3   365  THR365     -0.2208
    111  CG2       17.4650  -15.1020    0.4640 C.3   365  THR365      0.0378
    112  N         12.7730  -17.7130   -4.0820 N.3   368  PHE368     -0.1227
    113  CA        13.4490  -19.0060   -4.0420 C.3   368  PHE368      0.1736
    114  C         13.5190  -19.5780   -2.6240 C.2   368  PHE368      0.2596
    115  O         13.1010  -20.7100   -2.3830 O.2   368  PHE368     -0.2718
    116  CB        14.8620  -18.9010   -4.6260 C.3   368  PHE368      0.0547
    117  CG        14.8920  -18.7620   -6.1210 C.ar  368  PHE368     -0.0202
    118  CD1       13.7960  -19.1330   -6.8890 C.ar  368  PHE368     -0.0042
    119  CD2       16.0160  -18.2660   -6.7630 C.ar  368  PHE368     -0.0042
    120  CE1       13.8200  -19.0090   -8.2710 C.ar  368  PHE368     -0.0003
    121  CE2       16.0430  -18.1390   -8.1450 C.ar  368  PHE368     -0.0003
    122  CZ        14.9430  -18.5090   -8.8960 C.ar  368  PHE368     -0.0000
    123  N         14.0570  -18.7930   -1.6940 N.am  369  GLY369     -0.1957
    124  CA        14.2540  -19.2380   -0.3230 C.3   369  GLY369      0.1869
    125  C         13.0010  -19.7800    0.3410 C.2   369  GLY369      0.2309
    126  O         13.0420  -20.8040    1.0260 O.2   369  GLY369     -0.2863
    127  N         11.8800  -23.2880   -1.0900 N.3   372  TYR372     -0.1241
    128  CA        12.6380  -24.4960   -0.7320 C.3   372  TYR372      0.1605
    129  C         12.6360  -24.8540    0.7450 C.2   372  TYR372      0.2264
    130  O         13.5350  -25.5460    1.2220 O.2   372  TYR372     -0.2867
    131  CB        14.0690  -24.4160   -1.2560 C.3   372  TYR372      0.0534
    132  CG        14.0930  -24.4810   -2.7520 C.ar  372  TYR372     -0.0201
    133  CD1       13.6200  -25.6020   -3.4120 C.ar  372  TYR372     -0.0009
    134  CD2       14.5620  -23.4170   -3.5090 C.ar  372  TYR372     -0.0009
    135  CE1       13.6230  -25.6720   -4.7850 C.ar  372  TYR372      0.0417
    136  CE2       14.5730  -23.4750   -4.8880 C.ar  372  TYR372      0.0417
    137  CZ        14.0990  -24.6070   -5.5220 C.ar  372  TYR372      0.1957
    138  OH        14.0990  -24.6850   -6.9000 O.3   372  TYR372     -0.2866
    139  N         14.0180  -30.4280   -3.7170 N.3   451  ASN451     -0.1240
    140  CA        14.8170  -29.4610   -4.4730 C.3   451  ASN451      0.1653
    141  C         15.4620  -30.1040   -5.6930 C.2   451  ASN451      0.2266
    142  O         15.5820  -29.4870   -6.7540 O.2   451  ASN451     -0.2867
    143  CB        15.9040  -28.8240   -3.6050 C.3   451  ASN451      0.1155
    144  CG        16.9100  -28.0290   -4.4330 C.2   451  ASN451      0.2627
    145  OD1       17.9410  -28.5550   -4.8560 O.2   451  ASN451     -0.2716
    146  ND2       16.5920  -26.7740   -4.6960 N.am  451  ASN451     -0.0877
    147  N         16.4230  -28.2120   -9.3640 N.3   455  GLN455     -0.1245
    148  CA        17.7980  -27.8060   -9.6260 C.3   455  GLN455      0.1566
    149  C         18.4580  -28.7130  -10.6680 C.2   455  GLN455      0.2260
    150  O         19.1980  -28.2450  -11.5570 O.2   455  GLN455     -0.2867
    151  CB        18.6370  -27.8460   -8.3290 C.3   455  GLN455      0.0367
    152  CG        20.0720  -27.3650   -8.5620 C.3   455  GLN455      0.0905
    153  CD        20.9440  -27.4030   -7.3070 C.2   455  GLN455      0.2608
    154  OE1       22.0090  -28.0140   -7.3130 O.2   455  GLN455     -0.2717
    155  NE2       20.5020  -26.7410   -6.2370 N.am  455  GLN455     -0.0878
    156  N         17.0710  -28.1780  -14.2710 N.3   458  ALA458     -0.1245
    157  CA        17.7460  -26.9890  -14.7900 C.3   458  ALA458      0.1562
    158  C         19.1850  -27.3090  -15.2180 C.2   458  ALA458      0.2260
    159  O         19.6630  -26.8250  -16.2490 O.2   458  ALA458     -0.2867
    160  CB        17.7340  -25.8560  -13.7560 C.3   458  ALA458      0.0290
    161  N         26.1620  -22.3410  -13.9420 N.3   485  HIS485     -0.1226
    162  CA        24.8910  -22.9630  -13.5840 C.3   485  HIS485      0.1752
    163  C         23.7380  -22.6820  -14.5370 C.2   485  HIS485      0.2596
    164  O         23.2340  -23.6100  -15.1660 O.2   485  HIS485     -0.2718
    165  CB        24.5280  -22.6490  -12.1240 C.3   485  HIS485      0.0759
    166  CG        25.6580  -22.9290  -11.1880 C.ar  485  HIS485      0.0818
    167  ND1       26.2660  -24.1560  -11.1300 N.ar  485  HIS485     -0.2268
    168  CD2       26.3320  -22.1190  -10.3300 C.ar  485  HIS485      0.1154
    169  CE1       27.2510  -24.1130  -10.2420 C.ar  485  HIS485      0.1986
    170  NE2       27.3090  -22.8930   -9.7450 N.ar  485  HIS485     -0.2212
    171  N         23.3220  -21.4250  -14.6510 N.am  486  ASP486     -0.1974
    172  CA        22.2510  -21.1010  -15.5870 C.3   486  ASP486      0.1709
    173  C         22.7190  -20.0460  -16.5870 C.2   486  ASP486      0.2293
    174  O         21.9230  -19.4590  -17.3050 O.2   486  ASP486     -0.2864
    175  CB        20.9960  -20.6180  -14.8570 C.3   486  ASP486      0.1436
    176  CG        21.1070  -19.1760  -14.4010 C.2   486  ASP486      0.3671
    177  OD1       22.2060  -18.7540  -13.9730 O.co2 486  ASP486     -0.2456
    178  OD2       20.0940  -18.4480  -14.4890 O.co2 486  ASP486     -0.2456
    179  N         18.3490  -14.1230  -21.4810 N.3   521  GLU521     -0.1245
    180  CA        18.8320  -12.7440  -21.5930 C.3   521  GLU521      0.1567
    181  C         20.2870  -12.7710  -22.0330 C.2   521  GLU521      0.2260
    182  O         21.0820  -13.5660  -21.5310 O.2   521  GLU521     -0.2867
    183  CB        18.7210  -11.9930  -20.2610 C.3   521  GLU521      0.0388
    184  CG        17.2970  -11.6640  -19.8160 C.3   521  GLU521      0.1160
    185  CD        16.5750  -10.6790  -20.7440 C.2   521  GLU521      0.3649
    186  OE1       17.0540  -10.4270  -21.8750 O.co2 521  GLU521     -0.2457
    187  OE2       15.5110  -10.1580  -20.3370 O.co2 521  GLU521     -0.2457
@<TRIPOS>BOND
     1    31    30    1
     2   181   180    1
     3   181   182    2
     4   186   185   ar
     5   180   179    1
     6   180   183    1
     7    30    28   ar
     8    30    29   ar
     9    28    26   ar
    10   185   187   ar
    11   185   184    1
    12    29    27   ar
    13   183   184    1
    14    26    25   ar
    15    12    13    1
    16    15    14    2
    17    27    25   ar
    18    25    24    1
    19    14    13    1
    20    14    20   am
    21    13    16    1
    22    20    21    1
    23    37    36    1
    24    21    24    1
    25    21    22    1
    26    32    22   am
    27    32    33    1
    28    16    17    1
    29    36    33    1
    30    22    23    2
    31   174   173    2
    32    54    52    1
    33    33    34    1
    34   173   172    1
    35    35    34    2
    36    52    51    1
    37    17    19   ar
    38    17    18   ar
    39   159   158    2
    40    34    38   am
    41   172   175    1
    42   172   171    1
    43    51    48    1
    44    51    53    1
    45    46    44   am
    46   158   157    1
    47   164   163    2
    48    48    47    1
    49    48    49    1
    50   175   176    1
    51   157   156    1
    52   157   160    1
    53    38    39    1
    54   171   163   am
    55   163   162    1
    56   178   176   ar
    57   176   177   ar
    58    50    49    2
    59    47    40   am
    60    40    41    2
    61    40    39    1
    62    44    43    1
    63    44    45    2
    64   161   162    1
    65    49    55   am
    66    39    42    1
    67    43    42    1
    68   162   165    1
    69    84    82    1
    70    55    56    1
    71    82    83    1
    72    82    81    2
    73    81    80    1
    74   165   166    1
    75    56    57    1
    76    56    59    1
    77     3     2    1
    78     3     4    2
    79   150   149    2
    80    57    58    2
    81     2     1    1
    82     2     5    1
    83    80    79    1
    84   166   167   ar
    85   166   168   ar
    86   167   169   ar
    87   104   103    1
    88   149   148    1
    89    60    59    1
    90    60    61    1
    91    71    73   ar
    92    71    69   ar
    93     6     5    1
    94     6     7    1
    95   168   170   ar
    96   169   170   ar
    97    64    65    1
    98    68    69    1
    99    68    65    1
   100    79    78    1
   101    73    72   ar
   102   103   102    1
   103    69    70   ar
   104     8     7    1
   105     8     9    2
   106   148   147    1
   107   148   151    1
   108    63    61   ar
   109    65    66    1
   110    78    75    1
   111    61    62   ar
   112    11     9    1
   113    66    67    2
   114    72    70   ar
   115     9    10    1
   116   122   120   ar
   117   122   121   ar
   118   152   151    1
   119   152   153    1
   120   102   101    1
   121   120   118   ar
   122   121   119   ar
   123    75    76    1
   124    75    74    1
   125   101   100    1
   126    94    93    1
   127    76    77    2
   128    76    85   am
   129   154   153    2
   130   153   155   am
   131    85    86    1
   132   138   137    1
   133   118   117   ar
   134   119   117   ar
   135   142   141    2
   136    86    89    1
   137    86    87    1
   138    89    90    1
   139   100    97    1
   140   117   116    1
   141    93    95    1
   142    93    92    2
   143    90    91    1
   144    91    92    1
   145   141   140    1
   146   137   136   ar
   147   137   135   ar
   148    97    96    1
   149    97    98    1
   150    87    88    2
   151   136   134   ar
   152   145   144    2
   153   135   133   ar
   154   146   144   am
   155   116   113    1
   156   140   139    1
   157   140   143    1
   158   144   143    1
   159    98    99    2
   160    98   105   am
   161   112   113    1
   162   113   114    1
   163   134   132   ar
   164   133   132   ar
   165   105   106    1
   166   132   131    1
   167   114   115    2
   168   114   123   am
   169   106   107    1
   170   106   109    1
   171   123   124    1
   172   107   108    2
   173   110   109    1
   174   131   128    1
   175   127   128    1
   176   109   111    1
   177   128   129    1
   178   124   125    1
   179   125   126    2
   180   129   130    2
