@<TRIPOS>MOLECULE
tmp/3t3iA00.pdb
 171 163 0 0 0
SMALL
GASTEIGER

@<TRIPOS>ATOM
      1  N         33.0900   20.1990   39.3490 N.3    77  GLU77      -0.1245
      2  CA        31.7830   20.6840   38.8990 C.3    77  GLU77       0.1567
      3  C         30.7820   19.5360   38.6250 C.2    77  GLU77       0.2260
      4  O         31.1110   18.5630   37.9400 O.2    77  GLU77      -0.2867
      5  CB        31.9520   21.5840   37.6580 C.3    77  GLU77       0.0388
      6  CG        32.4260   22.9610   37.9760 C.3    77  GLU77       0.1160
      7  CD        32.5250   23.8500   36.7700 C.2    77  GLU77       0.3649
      8  OE1       33.5910   24.5040   36.6580 O.co2  77  GLU77      -0.2457
      9  OE2       31.5660   23.9000   35.9420 O.co2  77  GLU77      -0.2457
     10  N         28.9920   23.6970   30.3330 N.3   124  GLY124     -0.1210
     11  CA        29.1200   22.4230   29.6440 C.3   124  GLY124      0.1956
     12  C         29.8910   21.3750   30.4100 C.2   124  GLY124      0.2611
     13  O         29.5010   20.2070   30.4520 O.2   124  GLY124     -0.2717
     14  N         30.9980   21.7880   31.0130 N.am  125  LEU125     -0.1979
     15  CA        31.8800   20.8430   31.6940 C.3   125  LEU125      0.1596
     16  C         31.2040   20.2820   32.9790 C.2   125  LEU125      0.2287
     17  O         31.3170   19.1100   33.2720 O.2   125  LEU125     -0.2864
     18  CB        33.3090   21.4570   31.9110 C.3   125  LEU125      0.0297
     19  CG        34.2970   20.7920   32.8930 C.3   125  LEU125      0.0022
     20  CD1       35.7680   20.9260   32.5820 C.3   125  LEU125      0.0001
     21  CD2       34.0200   21.3060   34.2750 C.3   125  LEU125      0.0001
     22  N         28.2180   17.9770   31.5690 N.3   128  LEU128     -0.1245
     23  CA        28.7800   16.6930   31.1300 C.3   128  LEU128      0.1561
     24  C         28.8640   15.7400   32.3240 C.2   128  LEU128      0.2260
     25  O         28.3610   14.6300   32.2810 O.2   128  LEU128     -0.2867
     26  CB        30.1540   16.8590   30.5110 C.3   128  LEU128      0.0270
     27  CG        30.5710   15.6430   29.6640 C.3   128  LEU128      0.0019
     28  CD1       29.9560   15.7850   28.3150 C.3   128  LEU128      0.0001
     29  CD2       32.0890   15.4170   29.5000 C.3   128  LEU128      0.0001
     30  N         34.3400   31.3070   36.6500 N.3   265  ASN265     -0.1225
     31  CA        34.8710   31.4120   35.2760 C.3   265  ASN265      0.1785
     32  C         34.6680   30.1690   34.4270 C.2   265  ASN265      0.2597
     33  O         35.0570   29.0940   34.8370 O.2   265  ASN265     -0.2718
     34  CB        36.3730   31.5410   35.2790 C.3   265  ASN265      0.1169
     35  CG        36.8790   32.3180   36.4220 C.2   265  ASN265      0.2627
     36  OD1       36.8690   33.5570   36.3740 O.2   265  ASN265     -0.2716
     37  ND2       37.3570   31.6170   37.4700 N.am  265  ASN265     -0.0877
     38  N         34.1440   30.3240   33.2230 N.am  266  ASP266     -0.1960
     39  CA        34.1200   29.2550   32.2900 C.3   266  ASP266      0.1840
     40  C         35.2570   29.5260   31.3160 C.2   266  ASP266      0.2622
     41  O         35.4190   30.6670   30.8350 O.2   266  ASP266     -0.2715
     42  CB        32.7800   29.2590   31.5690 C.3   266  ASP266      0.1450
     43  CG        32.1920   27.8350   31.3820 C.2   266  ASP266      0.3671
     44  OD1       32.4810   26.9310   32.2420 O.co2 266  ASP266     -0.2456
     45  OD2       31.4370   27.6240   30.3690 O.co2 266  ASP266     -0.2456
     46  N         36.0580   28.5020   31.0140 N.am  267  ASN267     -0.1958
     47  CA        37.1280   28.6300   30.0060 C.3   267  ASN267      0.1819
     48  C         38.0280   29.8090   30.2700 C.2   267  ASN267      0.2621
     49  O         38.2600   30.6250   29.3790 O.2   267  ASN267     -0.2715
     50  CB        36.5530   28.8060   28.6110 C.3   267  ASN267      0.1195
     51  CG        36.0340   27.5320   28.0370 C.2   267  ASN267      0.2630
     52  OD1       36.7800   26.7690   27.4260 O.2   267  ASN267     -0.2716
     53  ND2       34.7420   27.2880   28.2260 N.am  267  ASN267     -0.0877
     54  N         38.4830   29.9210   31.5130 N.am  268  PHE268     -0.1974
     55  CA        39.4390   30.9380   31.8930 C.3   268  PHE268      0.1639
     56  C         40.1160   30.4760   33.1630 C.2   268  PHE268      0.2290
     57  O         39.4540   30.0560   34.1180 O.2   268  PHE268     -0.2864
     58  CB        38.7750   32.2990   32.1010 C.3   268  PHE268      0.0560
     59  CG        39.7520   33.4320   32.1870 C.ar  268  PHE268     -0.0200
     60  CD1       40.4280   33.8820   31.0450 C.ar  268  PHE268     -0.0042
     61  CD2       40.0090   34.0560   33.4080 C.ar  268  PHE268     -0.0042
     62  CE1       41.3540   34.9330   31.1170 C.ar  268  PHE268     -0.0003
     63  CE2       40.9540   35.1180   33.5090 C.ar  268  PHE268     -0.0003
     64  CZ        41.6260   35.5530   32.3590 C.ar  268  PHE268     -0.0000
     65  N         39.0160   17.2940   33.1510 N.3   313  ASP313     -0.1239
     66  CA        40.0250   18.3410   32.9040 C.3   313  ASP313      0.1674
     67  C         41.1510   18.2990   33.9290 C.2   313  ASP313      0.2266
     68  O         41.3460   17.2970   34.5910 O.2   313  ASP313     -0.2867
     69  CB        39.4360   19.7490   32.7520 C.3   313  ASP313      0.1410
     70  CG        40.1060   20.5290   31.6370 C.2   313  ASP313      0.3668
     71  OD1       39.8730   20.2530   30.4190 O.co2 313  ASP313     -0.2456
     72  OD2       40.8860   21.4030   31.9740 O.co2 313  ASP313     -0.2456
     73  N         41.4510   20.0280   36.6270 N.3   315  HIS315     -0.1241
     74  CA        41.0800   20.5200   37.9490 C.3   315  HIS315      0.1621
     75  C         41.4700   19.5480   39.0740 C.2   315  HIS315      0.2264
     76  O         41.9900   19.9880   40.1170 O.2   315  HIS315     -0.2867
     77  CB        39.6190   21.0010   37.9770 C.3   315  HIS315      0.0745
     78  CG        39.2820   21.9370   36.8450 C.ar  315  HIS315      0.0817
     79  ND1       37.9970   22.1210   36.3760 N.ar  315  HIS315     -0.2268
     80  CD2       40.0770   22.7180   36.0610 C.ar  315  HIS315      0.1154
     81  CE1       38.0090   23.0060   35.3880 C.ar  315  HIS315      0.1986
     82  NE2       39.2580   23.3800   35.1750 N.ar  315  HIS315     -0.2212
     83  N         39.2440   19.3430   27.8140 N.3   351  HIS351     -0.1226
     84  CA        38.0040   20.0020   27.3440 C.3   351  HIS351      0.1752
     85  C         38.2030   21.3390   26.6220 C.2   351  HIS351      0.2596
     86  O         37.2300   22.0220   26.3030 O.2   351  HIS351     -0.2718
     87  CB        37.0510   20.2500   28.5060 C.3   351  HIS351      0.0759
     88  CG        36.6050   19.0190   29.2090 C.ar  351  HIS351      0.0818
     89  ND1       35.4180   18.3870   28.9180 N.ar  351  HIS351     -0.2268
     90  CD2       37.1810   18.3060   30.2070 C.ar  351  HIS351      0.1154
     91  CE1       35.2770   17.3380   29.7080 C.ar  351  HIS351      0.1986
     92  NE2       36.3390   17.2600   30.4930 N.ar  351  HIS351     -0.2212
     93  N         39.4450   21.7240   26.3840 N.am  352  THR352     -0.1953
     94  CA        39.7010   22.9600   25.6640 C.3   352  THR352      0.1897
     95  C         41.0720   22.9900   25.0200 C.2   352  THR352      0.2313
     96  O         41.9760   22.2120   25.3920 O.2   352  THR352     -0.2863
     97  CB        39.6500   24.1590   26.5950 C.3   352  THR352      0.1794
     98  OG1       39.4920   25.3490   25.8140 O.3   352  THR352     -0.2208
     99  CG2       40.9470   24.2450   27.4370 C.3   352  THR352      0.0378
    100  N         42.7150   29.2420   29.0530 N.3   357  ALA357     -0.1245
    101  CA        41.8870   28.3220   29.8810 C.3   357  ALA357      0.1562
    102  C         42.6880   27.2000   30.5750 C.2   357  ALA357      0.2260
    103  O         42.1910   26.5560   31.5110 O.2   357  ALA357     -0.2867
    104  CB        40.7830   27.7270   29.0710 C.3   357  ALA357      0.0290
    105  N         37.1130   15.5290   23.2560 N.3   429  VAL429     -0.1245
    106  CA        35.6710   15.4260   23.5300 C.3   429  VAL429      0.1561
    107  C         34.7650   15.4970   22.2860 C.2   429  VAL429      0.2260
    108  O         33.5270   15.4210   22.3530 O.2   429  VAL429     -0.2867
    109  CB        35.2270   16.4130   24.6790 C.3   429  VAL429      0.0252
    110  CG1       35.8810   16.0620   26.0350 C.3   429  VAL429      0.0019
    111  CG2       35.5050   17.8460   24.2970 C.3   429  VAL429      0.0019
    112  N         31.3940   13.6640   23.0760 N.3   458  ASN458     -0.1240
    113  CA        30.4240   13.9000   24.1170 C.3   458  ASN458      0.1653
    114  C         29.0310   13.4170   23.7660 C.2   458  ASN458      0.2266
    115  O         28.7510   13.0580   22.6160 O.2   458  ASN458     -0.2867
    116  CB        30.3970   15.3830   24.4530 C.3   458  ASN458      0.1155
    117  CG        31.5940   15.8260   25.3430 C.2   458  ASN458      0.2627
    118  OD1       31.8490   17.0290   25.4640 O.2   458  ASN458     -0.2716
    119  ND2       32.3110   14.8680   25.9650 N.am  458  ASN458     -0.0877
    120  N         34.6960   33.6590   22.1560 N.3   547  TYR547     -0.1227
    121  CA        34.8580   32.6040   21.1600 C.3   547  TYR547      0.1736
    122  C         33.4800   32.0610   20.7130 C.2   547  TYR547      0.2595
    123  O         33.3320   31.6030   19.5870 O.2   547  TYR547     -0.2718
    124  CB        35.8360   31.5080   21.6390 C.3   547  TYR547      0.0548
    125  CG        35.2330   30.4060   22.4920 C.ar  547  TYR547     -0.0200
    126  CD1       34.6760   29.2870   21.9010 C.ar  547  TYR547     -0.0009
    127  CD2       35.2730   30.4590   23.8860 C.ar  547  TYR547     -0.0009
    128  CE1       34.1460   28.2690   22.6540 C.ar  547  TYR547      0.0417
    129  CE2       34.7220   29.4320   24.6650 C.ar  547  TYR547      0.0417
    130  CZ        34.1530   28.3490   24.0310 C.ar  547  TYR547      0.1957
    131  OH        33.5900   27.3170   24.7380 O.3   547  TYR547     -0.2866
    132  N         32.4710   32.1580   21.5770 N.am  548  LYS548     -0.1980
    133  CA        31.1210   31.6940   21.2260 C.3   548  LYS548      0.1596
    134  C         30.4090   32.6130   20.2150 C.2   548  LYS548      0.2287
    135  O         29.3710   32.2410   19.6670 O.2   548  LYS548     -0.2864
    136  CB        30.2880   31.4890   22.4950 C.3   548  LYS548      0.0298
    137  CG        30.7870   30.3170   23.3280 C.3   548  LYS548      0.0038
    138  CD        30.3830   30.3760   24.8040 C.3   548  LYS548      0.0206
    139  CE        30.9040   29.1270   25.5740 C.3   548  LYS548      0.1093
    140  NZ        30.3410   27.8290   25.0500 N.3   548  LYS548     -0.1314
    141  N         35.5580   25.6780   19.9370 N.3   646  GLU646     -0.1231
    142  CA        34.5790   25.0310   20.8360 C.3   646  GLU646      0.1699
    143  C         34.9200   23.5510   20.8680 C.2   646  GLU646      0.2592
    144  O         34.6590   22.8530   19.9070 O.2   646  GLU646     -0.2718
    145  CB        33.1330   25.2380   20.3610 C.3   646  GLU646      0.0402
    146  CG        32.0240   24.6660   21.2900 C.3   646  GLU646      0.1161
    147  CD        31.9190   25.4060   22.6430 C.2   646  GLU646      0.3649
    148  OE1       32.6750   25.0620   23.5680 O.co2 646  GLU646     -0.2457
    149  OE2       31.1070   26.3560   22.7920 O.co2 646  GLU646     -0.2457
    150  N         35.5110   23.0740   21.9650 N.am  647  ALA647     -0.1966
    151  CA        36.0140   21.6870   21.9930 C.3   647  ALA647      0.1728
    152  C         34.9870   20.6550   21.4610 C.2   647  ALA647      0.2617
    153  O         35.3270   19.7910   20.6390 O.2   647  ALA647     -0.2715
    154  CB        36.5450   21.2930   23.3800 C.3   647  ALA647      0.0334
    155  N         33.7470   20.7550   21.9310 N.am  648  SER648     -0.1936
    156  CA        32.7010   19.8700   21.4700 C.3   648  SER648      0.2055
    157  C         31.3260   20.5550   21.3940 C.2   648  SER648      0.2644
    158  O         30.6780   20.5390   20.3180 O.2   648  SER648     -0.2714
    159  CB        32.6070   18.6170   22.3520 C.3   648  SER648      0.2130
    160  OG        31.3640   17.9570   22.1240 O.3   648  SER648     -0.2179
    161  N         30.8840   21.1350   22.5150 N.am  649  GLY649     -0.1939
    162  CA        29.5300   21.6170   22.6500 C.3   649  GLY649      0.2014
    163  C         28.6020   20.4770   23.0420 C.2   649  GLY649      0.2639
    164  O         28.7990   19.2980   22.6380 O.2   649  GLY649     -0.2714
    165  N         27.5950   20.8190   23.8520 N.am  650  THR650     -0.1950
    166  CA        26.5400   19.8710   24.2060 C.3   650  THR650      0.1897
    167  C         25.1230   20.4590   24.0350 C.2   650  THR650      0.2313
    168  O         24.1780   19.7410   23.6850 O.2   650  THR650     -0.2863
    169  CB        26.8050   19.2240   25.5630 C.3   650  THR650      0.1794
    170  OG1       26.9410   20.2280   26.5590 O.3   650  THR650     -0.2208
    171  CG2       28.1200   18.4410   25.5200 C.3   650  THR650      0.0378
@<TRIPOS>BOND
     1   123   122    2
     2   135   134    2
     3   144   143    2
     4   141   142    1
     5   134   133    1
     6   158   157    2
     7   145   142    1
     8   145   146    1
     9   153   152    2
    10   122   121    1
    11   122   132   am
    12   142   143    1
    13   143   150   am
    14   121   124    1
    15   121   120    1
    16   133   132    1
    17   133   136    1
    18   146   147    1
    19   157   156    1
    20   157   161   am
    21   152   155   am
    22   152   151    1
    23   156   155    1
    24   156   159    1
    25   124   125    1
    26   126   125   ar
    27   126   128   ar
    28   150   151    1
    29   151   154    1
    30   160   159    1
    31   107   108    2
    32   107   106    1
    33   125   127   ar
    34   136   137    1
    35   161   162    1
    36   115   114    2
    37   164   163    2
    38   147   149   ar
    39   147   148   ar
    40   162   163    1
    41   128   130   ar
    42   163   165   am
    43   112   113    1
    44   105   106    1
    45   137   138    1
    46   106   109    1
    47   168   167    2
    48   114   113    1
    49   165   166    1
    50   127   129   ar
    51   130   129   ar
    52   130   131    1
    53   167   166    1
    54   113   116    1
    55   166   169    1
    56   111   109    1
    57   116   117    1
    58   109   110    1
    59   138   139    1
    60    95    96    2
    61    95    94    1
    62   140   139    1
    63   117   118    2
    64   117   119   am
    65   171   169    1
    66   169   170    1
    67    94    93    1
    68    94    97    1
    69    98    97    1
    70    86    85    2
    71    93    85   am
    72    97    99    1
    73    85    84    1
    74    84    83    1
    75    84    87    1
    76    52    51    2
    77    51    53   am
    78    51    50    1
    79    28    27    1
    80    87    88    1
    81    50    47    1
    82    89    88   ar
    83    89    91   ar
    84   100   101    1
    85   104   101    1
    86    88    90   ar
    87    49    48    2
    88    29    27    1
    89    11    10    1
    90    11    12    1
    91    27    26    1
    92    91    92   ar
    93   101   102    1
    94    47    48    1
    95    47    46    1
    96    90    92   ar
    97    48    54   am
    98    45    43   ar
    99    12    13    2
   100    12    14   am
   101    71    70   ar
   102    26    23    1
   103   102   103    2
   104    41    40    2
   105    14    15    1
   106    46    40   am
   107    60    62   ar
   108    60    59   ar
   109    62    64   ar
   110    23    22    1
   111    23    24    1
   112    40    39    1
   113    43    42    1
   114    43    44   ar
   115    54    55    1
   116    42    39    1
   117    70    72   ar
   118    70    69    1
   119    15    18    1
   120    15    16    1
   121    55    58    1
   122    55    56    1
   123    18    19    1
   124    58    59    1
   125    59    61   ar
   126    25    24    2
   127    39    38    1
   128    64    63   ar
   129    20    19    1
   130    69    66    1
   131    19    21    1
   132    66    65    1
   133    66    67    1
   134    16    17    2
   135    56    57    2
   136    38    32   am
   137    61    63   ar
   138    67    68    2
   139    32    33    2
   140    32    31    1
   141    82    81   ar
   142    82    80   ar
   143    31    34    1
   144    31    30    1
   145    34    35    1
   146    81    79   ar
   147     9     7   ar
   148    80    78   ar
   149    36    35    2
   150    79    78   ar
   151    35    37   am
   152    73    74    1
   153     8     7   ar
   154     7     6    1
   155    78    77    1
   156     5     6    1
   157     5     2    1
   158     4     3    2
   159    74    77    1
   160    74    75    1
   161     3     2    1
   162     2     1    1
   163    75    76    2
