@<TRIPOS>MOLECULE
tmp/3t3mC00.pdb
 96 95 0 0 0
SMALL
GASTEIGER

@<TRIPOS>ATOM
      1  N         86.9850   92.4630   87.4900 N.3   159  ASP159     -0.1225
      2  CA        85.6840   92.1530   88.0670 C.3   159  ASP159      0.1805
      3  C         85.7810   92.0390   89.5790 C.2   159  ASP159      0.2598
      4  O         85.1920   91.1480   90.1870 O.2   159  ASP159     -0.2718
      5  CB        85.1380   90.8570   87.4720 C.3   159  ASP159      0.1424
      6  CG        84.9070   90.9620   85.9800 C.2   159  ASP159      0.3668
      7  OD1       85.8640   90.7240   85.2120 O.co2 159  ASP159     -0.2456
      8  OD2       83.7710   91.2960   85.5770 O.co2 159  ASP159     -0.2456
      9  N         86.5420   92.9490   90.1740 N.am  160  PHE160     -0.1962
     10  CA        86.6480   93.0400   91.6230 C.3   160  PHE160      0.1771
     11  C         86.9980   91.6960   92.2540 C.2   160  PHE160      0.2620
     12  O         86.4700   91.3370   93.3080 O.2   160  PHE160     -0.2715
     13  CB        85.3420   93.5860   92.2050 C.3   160  PHE160      0.0574
     14  CG        85.0110   94.9770   91.7380 C.ar  160  PHE160     -0.0200
     15  CD1       84.2850   95.1790   90.5770 C.ar  160  PHE160     -0.0042
     16  CD2       85.4350   96.0820   92.4570 C.ar  160  PHE160     -0.0042
     17  CE1       83.9820   96.4540   90.1470 C.ar  160  PHE160     -0.0003
     18  CE2       85.1370   97.3600   92.0310 C.ar  160  PHE160     -0.0003
     19  CZ        84.4090   97.5470   90.8750 C.ar  160  PHE160     -0.0000
     20  N         87.8960   90.9590   91.6080 N.am  161  SER161     -0.1950
     21  CA        88.3990   89.7130   92.1680 C.3   161  SER161      0.1924
     22  C         89.5100   89.9930   93.1680 C.2   161  SER161      0.2314
     23  O         90.2630   90.9540   93.0210 O.2   161  SER161     -0.2863
     24  CB        88.9090   88.7920   91.0620 C.3   161  SER161      0.2116
     25  OG        87.8240   88.2620   90.3200 O.3   161  SER161     -0.2180
     26  N         86.9680   90.0150  100.2330 N.3   189  TYR189     -0.1227
     27  CA        86.5650   89.6500   98.8790 C.3   189  TYR189      0.1736
     28  C         85.1910   90.2120   98.5450 C.2   189  TYR189      0.2595
     29  O         84.2690   89.4690   98.2090 O.2   189  TYR189     -0.2718
     30  CB        86.5660   88.1290   98.7130 C.3   189  TYR189      0.0548
     31  CG        87.9180   87.4980   98.9330 C.ar  189  TYR189     -0.0200
     32  CD1       89.0880   88.1750   98.6040 C.ar  189  TYR189     -0.0009
     33  CD2       88.0280   86.2290   99.4830 C.ar  189  TYR189     -0.0009
     34  CE1       90.3300   87.6010   98.8120 C.ar  189  TYR189      0.0417
     35  CE2       89.2620   85.6460   99.6970 C.ar  189  TYR189      0.0417
     36  CZ        90.4100   86.3330   99.3600 C.ar  189  TYR189      0.1957
     37  OH        91.6360   85.7420   99.5780 O.3   189  TYR189     -0.2866
     38  N         85.0720   91.5320   98.6300 N.am  190  TYR190     -0.1976
     39  CA        83.8110   92.2230   98.3790 C.3   190  TYR190      0.1639
     40  C         82.6570   91.5950   99.1570 C.2   190  TYR190      0.2290
     41  O         81.6170   91.2540   98.5910 O.2   190  TYR190     -0.2864
     42  CB        83.4900   92.2640   96.8810 C.3   190  TYR190      0.0560
     43  CG        82.9480   93.6050   96.4200 C.ar  190  TYR190     -0.0198
     44  CD1       81.6030   93.9270   96.5650 C.ar  190  TYR190     -0.0009
     45  CD2       83.7870   94.5540   95.8450 C.ar  190  TYR190     -0.0009
     46  CE1       81.1090   95.1550   96.1490 C.ar  190  TYR190      0.0417
     47  CE2       83.3030   95.7800   95.4250 C.ar  190  TYR190      0.0417
     48  CZ        81.9640   96.0770   95.5790 C.ar  190  TYR190      0.1957
     49  OH        81.4880   97.3010   95.1600 O.3   190  TYR190     -0.2866
     50  N         82.2220   88.7980  100.8530 N.3   192  LEU192     -0.1245
     51  CA        82.0310   87.3680  101.0150 C.3   192  LEU192      0.1561
     52  C         82.5190   86.9810  102.3960 C.2   192  LEU192      0.2260
     53  O         81.8960   86.1770  103.0890 O.2   192  LEU192     -0.2867
     54  CB        82.8120   86.5840   99.9610 C.3   192  LEU192      0.0270
     55  CG        82.0240   86.2000   98.7100 C.3   192  LEU192      0.0019
     56  CD1       81.4850   87.4440   98.0180 C.3   192  LEU192      0.0001
     57  CD2       82.8900   85.3770   97.7660 C.3   192  LEU192      0.0001
     58  N         88.6180   83.5090   97.3380 N.3   224  ASP224     -0.1225
     59  CA        87.4700   84.1870   96.7520 C.3   224  ASP224      0.1805
     60  C         86.5450   83.1380   96.1420 C.2   224  ASP224      0.2598
     61  O         86.8510   81.9470   96.1710 O.2   224  ASP224     -0.2718
     62  CB        87.9290   85.1790   95.6780 C.3   224  ASP224      0.1424
     63  CG        86.9310   86.3040   95.4530 C.2   224  ASP224      0.3668
     64  OD1       85.7260   86.0960   95.7040 O.co2 224  ASP224     -0.2456
     65  OD2       87.3530   87.3990   95.0240 O.co2 224  ASP224     -0.2456
     66  N         85.4170   83.5770   95.5930 N.am  225  SER225     -0.1938
     67  CA        84.4390   82.6530   95.0280 C.3   225  SER225      0.2055
     68  C         83.4560   83.3790   94.1190 C.2   225  SER225      0.2643
     69  O         83.1030   84.5350   94.3620 O.2   225  SER225     -0.2714
     70  CB        83.6750   81.9380   96.1490 C.3   225  SER225      0.2130
     71  OG        82.6430   81.1150   95.6280 O.3   225  SER225     -0.2179
     72  N         83.0130   82.6930   93.0720 N.am  226  SER226     -0.1949
     73  CA        82.0430   83.2610   92.1460 C.3   226  SER226      0.1924
     74  C         80.6520   82.6830   92.3950 C.2   226  SER226      0.2314
     75  O         79.7010   83.0150   91.6900 O.2   226  SER226     -0.2863
     76  CB        82.4670   82.9950   90.7040 C.3   226  SER226      0.2116
     77  OG        82.4180   81.6100   90.4140 O.3   226  SER226     -0.2180
     78  N         77.8110   85.2950   98.3300 N.3   231  PHE231     -0.1227
     79  CA        77.8210   86.7520   98.2770 C.3   231  PHE231      0.1736
     80  C         77.1560   87.3860   99.5030 C.2   231  PHE231      0.2595
     81  O         76.0590   86.9970   99.8970 O.2   231  PHE231     -0.2718
     82  CB        77.1470   87.2370   96.9930 C.3   231  PHE231      0.0547
     83  CG        77.8560   86.8050   95.7350 C.ar  231  PHE231     -0.0202
     84  CD1       77.3560   87.1570   94.4880 C.ar  231  PHE231     -0.0042
     85  CD2       79.0190   86.0470   95.7960 C.ar  231  PHE231     -0.0042
     86  CE1       78.0040   86.7630   93.3250 C.ar  231  PHE231     -0.0003
     87  CE2       79.6720   85.6500   94.6370 C.ar  231  PHE231     -0.0003
     88  CZ        79.1630   86.0080   93.3990 C.ar  231  PHE231     -0.0000
     89  N         77.8430   88.3580  100.0990 N.am  232  ASP232     -0.1974
     90  CA        77.3460   89.0760  101.2740 C.3   232  ASP232      0.1709
     91  C         77.0260   88.1290  102.4300 C.2   232  ASP232      0.2293
     92  O         76.0810   88.3520  103.1850 O.2   232  ASP232     -0.2864
     93  CB        76.1070   89.9040  100.9170 C.3   232  ASP232      0.1436
     94  CG        76.3350   90.8150   99.7170 C.2   232  ASP232      0.3671
     95  OD1       77.0490   91.8320   99.8640 O.co2 232  ASP232     -0.2456
     96  OD2       75.7920   90.5160   98.6280 O.co2 232  ASP232     -0.2456
@<TRIPOS>BOND
     1     7     6   ar
     2     8     6   ar
     3     6     5    1
     4     5     2    1
     5     1     2    1
     6     2     3    1
     7     3     9   am
     8     3     4    2
     9    17    15   ar
    10    17    19   ar
    11     9    10    1
    12    25    24    1
    13    77    76    1
    14    15    14   ar
    15    76    73    1
    16    19    18   ar
    17    24    21    1
    18    20    21    1
    19    20    11   am
    20    10    13    1
    21    10    11    1
    22    75    74    2
    23    14    13    1
    24    14    16   ar
    25    18    16   ar
    26    73    74    1
    27    73    72    1
    28    21    22    1
    29    11    12    2
    30    23    22    2
    31    72    68   am
    32    86    88   ar
    33    86    84   ar
    34    88    87   ar
    35    68    69    2
    36    68    67    1
    37    84    83   ar
    38    87    85   ar
    39    65    63   ar
    40    67    66    1
    41    67    70    1
    42    49    48    1
    43    47    48   ar
    44    47    45   ar
    45    63    62    1
    46    63    64   ar
    47    48    46   ar
    48    66    60   am
    49    71    70    1
    50    62    59    1
    51    83    85   ar
    52    83    82    1
    53    45    43   ar
    54    60    61    2
    55    60    59    1
    56    46    44   ar
    57    43    44   ar
    58    43    42    1
    59    59    58    1
    60    42    39    1
    61    82    79    1
    62    57    55    1
    63    56    55    1
    64    29    28    2
    65    79    78    1
    66    79    80    1
    67    39    38    1
    68    39    40    1
    69    28    38   am
    70    28    27    1
    71    41    40    2
    72    32    34   ar
    73    32    31   ar
    74    96    94   ar
    75    55    54    1
    76    30    27    1
    77    30    31    1
    78    34    36   ar
    79    27    26    1
    80    31    33   ar
    81    36    37    1
    82    36    35   ar
    83    33    35   ar
    84    80    81    2
    85    80    89   am
    86    94    95   ar
    87    94    93    1
    88    54    51    1
    89    89    90    1
    90    50    51    1
    91    93    90    1
    92    51    52    1
    93    90    91    1
    94    52    53    2
    95    91    92    2
