@<TRIPOS>MOLECULE
tmp/3t3mD00.pdb
 88 86 0 0 0
SMALL
GASTEIGER

@<TRIPOS>ATOM
      1  N         69.1820  103.8450   94.3250 N.3   121  SER121     -0.1202
      2  CA        70.5530  103.5430   93.9300 C.3   121  SER121      0.2020
      3  C         70.6820  103.7410   92.4140 C.2   121  SER121      0.2619
      4  O         69.6900  104.0040   91.7250 O.2   121  SER121     -0.2717
      5  CB        70.9340  102.1160   94.3300 C.3   121  SER121      0.2103
      6  OG        69.9990  101.1740   93.8360 O.3   121  SER121     -0.2182
      7  N         71.8960  103.6110   91.8900 N.am  122  TYR122     -0.1961
      8  CA        72.1600  103.9930   90.5030 C.3   122  TYR122      0.1771
      9  C         71.4450  103.1030   89.4780 C.2   122  TYR122      0.2620
     10  O         71.1520  103.5460   88.3680 O.2   122  TYR122     -0.2715
     11  CB        73.6650  104.0050   90.2310 C.3   122  TYR122      0.0574
     12  CG        74.0510  104.8020   89.0080 C.ar  122  TYR122     -0.0198
     13  CD1       73.9770  106.1900   89.0120 C.ar  122  TYR122     -0.0009
     14  CD2       74.4930  104.1730   87.8510 C.ar  122  TYR122     -0.0009
     15  CE1       74.3230  106.9260   87.9020 C.ar  122  TYR122      0.0417
     16  CE2       74.8460  104.9040   86.7330 C.ar  122  TYR122      0.0417
     17  CZ        74.7600  106.2820   86.7630 C.ar  122  TYR122      0.1957
     18  OH        75.1140  107.0250   85.6520 O.3   122  TYR122     -0.2866
     19  N         71.1660  101.8550   89.8430 N.am  123  SER123     -0.1950
     20  CA        70.4920  100.9360   88.9270 C.3   123  SER123      0.1924
     21  C         68.9980  101.2330   88.8090 C.2   123  SER123      0.2314
     22  O         68.2910  100.5810   88.0370 O.2   123  SER123     -0.2863
     23  CB        70.6790   99.4850   89.3730 C.3   123  SER123      0.2116
     24  OG        69.8330   99.1720   90.4670 O.3   123  SER123     -0.2180
     25  N         81.1350  105.5620   99.7040 N.3   166  TYR166     -0.1241
     26  CA        82.4680  105.8970   99.2250 C.3   166  TYR166      0.1605
     27  C         82.9400  107.1620   99.9200 C.2   166  TYR166      0.2264
     28  O         82.2190  108.1600   99.9560 O.2   166  TYR166     -0.2867
     29  CB        82.4550  106.1330   97.7190 C.3   166  TYR166      0.0534
     30  CG        82.1790  104.9030   96.8940 C.ar  166  TYR166     -0.0201
     31  CD1       83.1380  103.9060   96.7570 C.ar  166  TYR166     -0.0009
     32  CD2       80.9670  104.7460   96.2330 C.ar  166  TYR166     -0.0009
     33  CE1       82.8960  102.7780   95.9910 C.ar  166  TYR166      0.0417
     34  CE2       80.7130  103.6240   95.4630 C.ar  166  TYR166      0.0417
     35  CZ        81.6830  102.6430   95.3430 C.ar  166  TYR166      0.1957
     36  OH        81.4350  101.5260   94.5760 O.3   166  TYR166     -0.2866
     37  N         74.7790  106.7130   94.7650 N.3   214  ARG214     -0.1231
     38  CA        75.6870  105.6230   94.4450 C.3   214  ARG214      0.1694
     39  C         76.3530  105.1010   95.7160 C.2   214  ARG214      0.2592
     40  O         76.7470  105.8830   96.5810 O.2   214  ARG214     -0.2718
     41  CB        76.7340  106.1270   93.4460 C.3   214  ARG214      0.0321
     42  CG        77.7900  105.1180   93.0250 C.3   214  ARG214      0.0489
     43  CD        77.2250  104.0610   92.1010 C.3   214  ARG214      0.2205
     44  NE        78.2640  103.4410   91.2810 N.pl3 214  ARG214     -0.0865
     45  CZ        78.0980  102.3200   90.5830 C.cat 214  ARG214      0.5346
     46  NH1       76.9360  101.6760   90.6150 N.pl3 214  ARG214      0.1354
     47  NH2       79.0990  101.8340   89.8580 N.pl3 214  ARG214      0.1354
     48  N         76.4630  103.7810   95.8350 N.am  215  ASN215     -0.1960
     49  CA        77.1570  103.1810   96.9720 C.3   215  ASN215      0.1819
     50  C         77.7900  101.8300   96.6280 C.2   215  ASN215      0.2621
     51  O         77.5700  101.2800   95.5480 O.2   215  ASN215     -0.2715
     52  CB        76.2230  103.0650   98.1860 C.3   215  ASN215      0.1195
     53  CG        75.2920  101.8680   98.1080 C.2   215  ASN215      0.2630
     54  OD1       75.3740  100.9490   98.9290 O.2   215  ASN215     -0.2716
     55  ND2       74.3880  101.8820   97.1320 N.am  215  ASN215     -0.0877
     56  N         78.5640  101.2960   97.5670 N.am  216  ARG216     -0.1963
     57  CA        79.4880  100.2030   97.2770 C.3   216  ARG216      0.1729
     58  C         78.8820   98.7870   97.2850 C.2   216  ARG216      0.2616
     59  O         79.2170   97.9760   96.4200 O.2   216  ARG216     -0.2715
     60  CB        80.6730  100.2680   98.2480 C.3   216  ARG216      0.0348
     61  CG        81.7360   99.2240   97.9890 C.3   216  ARG216      0.0492
     62  CD        82.8530   99.2860   99.0170 C.3   216  ARG216      0.2205
     63  NE        83.8450  100.3080   98.6990 N.pl3 216  ARG216     -0.0865
     64  CZ        84.0550  101.4120   99.4090 C.cat 216  ARG216      0.5346
     65  NH1       83.3450  101.6640  100.5030 N.pl3 216  ARG216      0.1354
     66  NH2       84.9890  102.2700   99.0230 N.pl3 216  ARG216      0.1354
     67  N         78.0100   98.4740   98.2430 N.am  217  ASP217     -0.1957
     68  CA        77.5810   97.0820   98.4100 C.3   217  ASP217      0.1840
     69  C         76.1480   96.8090   97.9560 C.2   217  ASP217      0.2621
     70  O         75.2570   97.6480   98.0990 O.2   217  ASP217     -0.2715
     71  CB        77.8060   96.5990   99.8540 C.3   217  ASP217      0.1450
     72  CG        76.7770   97.1370  100.8300 C.2   217  ASP217      0.3671
     73  OD1       76.2590   98.2480  100.6050 O.co2 217  ASP217     -0.2456
     74  OD2       76.4920   96.4420  101.8340 O.co2 217  ASP217     -0.2456
     75  N         75.9500   95.6100   97.4140 N.am  218  ALA218     -0.1977
     76  CA        74.6830   95.2060   96.8030 C.3   218  ALA218      0.1597
     77  C         73.4740   95.3160   97.7370 C.2   218  ALA218      0.2287
     78  O         72.4600   95.9080   97.3740 O.2   218  ALA218     -0.2864
     79  CB        74.7980   93.7800   96.2710 C.3   218  ALA218      0.0319
     80  N         70.8920   96.7590  100.1640 N.3   220  GLU220     -0.1245
     81  CA        70.5650   98.1600  100.3940 C.3   220  GLU220      0.1567
     82  C         69.8490   98.3560  101.7340 C.2   220  GLU220      0.2260
     83  O         69.5300   97.3870  102.4330 O.2   220  GLU220     -0.2867
     84  CB        69.7180   98.6990   99.2390 C.3   220  GLU220      0.0388
     85  CG        70.3550   98.5140   97.8480 C.3   220  GLU220      0.1160
     86  CD        71.6360   99.3270   97.6440 C.2   220  GLU220      0.3649
     87  OE1       72.4550   99.4390   98.5860 O.co2 220  GLU220     -0.2457
     88  OE2       71.8270   99.8570   96.5290 O.co2 220  GLU220     -0.2457
@<TRIPOS>BOND
     1    18    17    1
     2    16    17   ar
     3    16    14   ar
     4    17    15   ar
     5    14    12   ar
     6    15    13   ar
     7    22    21    2
     8    10     9    2
     9    21    20    1
    10    20    23    1
    11    20    19    1
    12    12    13   ar
    13    12    11    1
    14    23    24    1
    15     9    19   am
    16     9     8    1
    17    47    45    1
    18    11     8    1
    19     8     7    1
    20    45    46    1
    21    45    44    2
    22    44    43    1
    23     4     3    2
    24     7     3   am
    25    43    42    1
    26     3     2    1
    27    42    41    1
    28    41    38    1
    29     6     5    1
    30     2     1    1
    31     2     5    1
    32    38    37    1
    33    38    39    1
    34    36    35    1
    35    35    34   ar
    36    35    33   ar
    37    34    32   ar
    38    51    50    2
    39    39    48   am
    40    39    40    2
    41    48    49    1
    42    33    31   ar
    43    32    30   ar
    44    79    76    1
    45    59    58    2
    46    88    86   ar
    47    50    49    1
    48    50    56   am
    49    31    30   ar
    50    76    75    1
    51    76    77    1
    52    30    29    1
    53    49    52    1
    54    55    53   am
    55    57    58    1
    56    57    56    1
    57    57    60    1
    58    58    67   am
    59    78    77    2
    60    75    69   am
    61    86    85    1
    62    86    87   ar
    63    29    26    1
    64    85    84    1
    65    69    70    2
    66    69    68    1
    67    61    60    1
    68    61    62    1
    69    53    52    1
    70    53    54    2
    71    67    68    1
    72    68    71    1
    73    63    62    1
    74    63    64    2
    75    66    64    1
    76    26    25    1
    77    26    27    1
    78    84    81    1
    79    64    65    1
    80    71    72    1
    81    27    28    2
    82    80    81    1
    83    81    82    1
    84    73    72   ar
    85    72    74   ar
    86    82    83    2
