@<TRIPOS>MOLECULE
tmp/3t3qC01.pdb
 124 119 0 0 0
SMALL
GASTEIGER

@<TRIPOS>ATOM
      1  N        -10.4990   -3.4690  -11.4110 N.3    76  PHE76      -0.1241
      2  CA        -9.5960   -4.4420  -10.7700 C.3    76  PHE76       0.1605
      3  C         -8.6920   -5.1540  -11.7790 C.2    76  PHE76       0.2264
      4  O         -7.5540   -5.4710  -11.4600 O.2    76  PHE76      -0.2867
      5  CB       -10.3550   -5.4310   -9.8730 C.3    76  PHE76       0.0534
      6  CG       -11.1330   -4.7720   -8.7500 C.ar   76  PHE76      -0.0203
      7  CD1      -12.5110   -4.9250   -8.6590 C.ar   76  PHE76      -0.0042
      8  CD2      -10.4850   -4.0060   -7.7880 C.ar   76  PHE76      -0.0042
      9  CE1      -13.2340   -4.3210   -7.6300 C.ar   76  PHE76      -0.0003
     10  CE2      -11.1970   -3.3900   -6.7530 C.ar   76  PHE76      -0.0003
     11  CZ       -12.5700   -3.5520   -6.6710 C.ar   76  PHE76      -0.0000
     12  N         -4.7730   -6.6110  -11.8030 N.3    80  PHE80      -0.1241
     13  CA        -4.6620   -8.0800  -11.8000 C.3    80  PHE80       0.1605
     14  C         -4.3310   -8.7170  -13.1500 C.2    80  PHE80       0.2264
     15  O         -3.6600   -9.7540  -13.1900 O.2    80  PHE80      -0.2867
     16  CB        -5.9030   -8.7350  -11.1620 C.3    80  PHE80       0.0534
     17  CG        -6.1270   -8.3170   -9.7370 C.ar   80  PHE80      -0.0203
     18  CD1       -7.3000   -7.6690   -9.3610 C.ar   80  PHE80      -0.0042
     19  CD2       -5.1390   -8.5260   -8.7780 C.ar   80  PHE80      -0.0042
     20  CE1       -7.4990   -7.2570   -8.0510 C.ar   80  PHE80      -0.0003
     21  CE2       -5.3260   -8.1150   -7.4570 C.ar   80  PHE80      -0.0003
     22  CZ        -6.5060   -7.4790   -7.0950 C.ar   80  PHE80      -0.0000
     23  N         -8.7180  -14.6050   -7.7680 N.3    86  VAL86      -0.1231
     24  CA       -10.0340  -14.0230   -8.0540 C.3    86  VAL86       0.1692
     25  C        -10.3380  -14.0260   -9.5590 C.2    86  VAL86       0.2592
     26  O        -11.3750  -14.5470   -9.9830 O.2    86  VAL86      -0.2718
     27  CB       -10.1970  -12.6060   -7.4290 C.3    86  VAL86       0.0266
     28  CG1      -11.5100  -11.9510   -7.8850 C.3    86  VAL86       0.0020
     29  CG2      -10.1380  -12.6850   -5.8790 C.3    86  VAL86       0.0020
     30  N         -9.4230  -13.4820  -10.3640 N.am   87  PHE87      -0.1976
     31  CA        -9.7080  -13.2570  -11.7900 C.3    87  PHE87       0.1639
     32  C         -9.1570  -14.3030  -12.7630 C.2    87  PHE87       0.2290
     33  O         -9.3410  -14.1880  -13.9720 O.2    87  PHE87      -0.2864
     34  CB        -9.3390  -11.8180  -12.1970 C.3    87  PHE87       0.0560
     35  CG       -10.1900  -10.7900  -11.5260 C.ar   87  PHE87      -0.0200
     36  CD1       -9.7310  -10.1180  -10.4000 C.ar   87  PHE87      -0.0042
     37  CD2      -11.4890  -10.5490  -11.9720 C.ar   87  PHE87      -0.0042
     38  CE1      -10.5430   -9.1930   -9.7450 C.ar   87  PHE87      -0.0003
     39  CE2      -12.3030   -9.6280  -11.3260 C.ar   87  PHE87      -0.0003
     40  CZ       -11.8330   -8.9500  -10.2090 C.ar   87  PHE87      -0.0000
     41  N        -12.1570    0.7990   -3.7950 N.3   178  PHE178     -0.1241
     42  CA       -13.4490    0.1670   -3.5320 C.3   178  PHE178      0.1605
     43  C        -14.5840    1.1540   -3.8140 C.2   178  PHE178      0.2264
     44  O        -15.5270    0.8340   -4.5430 O.2   178  PHE178     -0.2867
     45  CB       -13.4920   -0.2870   -2.0730 C.3   178  PHE178      0.0534
     46  CG       -14.5450   -1.3200   -1.7700 C.ar  178  PHE178     -0.0203
     47  CD1      -14.4520   -2.6060   -2.2970 C.ar  178  PHE178     -0.0042
     48  CD2      -15.5940   -1.0230   -0.9030 C.ar  178  PHE178     -0.0042
     49  CE1      -15.4080   -3.5640   -1.9970 C.ar  178  PHE178     -0.0003
     50  CE2      -16.5480   -1.9750   -0.5950 C.ar  178  PHE178     -0.0003
     51  CZ       -16.4570   -3.2530   -1.1440 C.ar  178  PHE178     -0.0000
     52  N         -5.3960  -10.0880   -3.6570 N.3   266  ASN266     -0.1240
     53  CA        -6.7910  -10.6010   -3.6380 C.3   266  ASN266      0.1653
     54  C         -7.3120  -10.8610   -2.2160 C.2   266  ASN266      0.2266
     55  O         -8.3840  -10.3770   -1.8260 O.2   266  ASN266     -0.2867
     56  CB        -6.9220  -11.9170   -4.4300 C.3   266  ASN266      0.1155
     57  CG        -6.9560  -11.7250   -5.9460 C.2   266  ASN266      0.2627
     58  OD1       -6.7610  -12.6860   -6.6960 O.2   266  ASN266     -0.2716
     59  ND2       -7.2230  -10.5100   -6.4020 N.am  266  ASN266     -0.0877
     60  N         -7.1650   -7.6060    0.1680 N.3   269  PHE269     -0.1227
     61  CA        -8.2520   -6.6910   -0.1690 C.3   269  PHE269      0.1736
     62  C         -9.6340   -7.2490    0.2180 C.2   269  PHE269      0.2595
     63  O        -10.3450   -6.6390    1.0130 O.2   269  PHE269     -0.2718
     64  CB        -8.1790   -6.3190   -1.6600 C.3   269  PHE269      0.0547
     65  CG        -8.7410   -4.9510   -1.9960 C.ar  269  PHE269     -0.0202
     66  CD1       -9.7060   -4.3410   -1.1910 C.ar  269  PHE269     -0.0042
     67  CD2       -8.3360   -4.3000   -3.1600 C.ar  269  PHE269     -0.0042
     68  CE1      -10.2410   -3.0940   -1.5250 C.ar  269  PHE269     -0.0003
     69  CE2       -8.8630   -3.0520   -3.5070 C.ar  269  PHE269     -0.0003
     70  CZ        -9.8180   -2.4490   -2.6880 C.ar  269  PHE269     -0.0000
     71  N        -10.0140   -8.4040   -0.3270 N.am  270  ALA270     -0.1980
     72  CA       -11.3200   -9.0050   -0.0210 C.3   270  ALA270      0.1597
     73  C        -11.4830   -9.2910    1.4780 C.2   270  ALA270      0.2287
     74  O        -12.5980   -9.2510    2.0030 O.2   270  ALA270     -0.2864
     75  CB       -11.5330  -10.2700   -0.8200 C.3   270  ALA270      0.0319
     76  N        -11.8780   -5.1790    3.1430 N.3   273  GLU273     -0.1231
     77  CA       -12.8690   -4.1430    2.8440 C.3   273  GLU273      0.1699
     78  C        -14.3300   -4.5570    2.9880 C.2   273  GLU273      0.2592
     79  O        -15.1730   -3.7610    3.4300 O.2   273  GLU273     -0.2718
     80  CB       -12.6070   -3.5430    1.4560 C.3   273  GLU273      0.0402
     81  CG       -13.1070   -2.1150    1.2850 C.3   273  GLU273      0.1161
     82  CD       -12.5190   -1.1340    2.2980 C.2   273  GLU273      0.3649
     83  OE1      -13.2490   -0.2060    2.7040 O.co2 273  GLU273     -0.2457
     84  OE2      -11.3390   -1.2920    2.6850 O.co2 273  GLU273     -0.2457
     85  N        -14.6290   -5.7960    2.6230 N.am  274  THR274     -0.1953
     86  CA       -16.0170   -6.2510    2.5770 C.3   274  THR274      0.1897
     87  C        -16.6270   -6.3480    3.9830 C.2   274  THR274      0.2313
     88  O        -17.7090   -5.8160    4.2240 O.2   274  THR274     -0.2863
     89  CB       -16.1290   -7.5780    1.8180 C.3   274  THR274      0.1794
     90  OG1      -15.0440   -7.6640    0.8870 O.3   274  THR274     -0.2208
     91  CG2      -17.4370   -7.6330    1.0450 C.3   274  THR274      0.0378
     92  N        -22.1010   -6.4310   -2.2450 N.3   335  ILE335     -0.1245
     93  CA       -21.7190   -6.6980   -3.6320 C.3   335  ILE335      0.1561
     94  C        -22.9820   -6.9560   -4.4620 C.2   335  ILE335      0.2260
     95  O        -23.2860   -8.1010   -4.8000 O.2   335  ILE335     -0.2867
     96  CB       -20.7410   -7.9210   -3.7550 C.3   335  ILE335      0.0252
     97  CG1      -19.6820   -7.9400   -2.6340 C.3   335  ILE335      0.0019
     98  CG2      -20.1030   -7.9610   -5.1430 C.3   335  ILE335      0.0019
     99  CD1      -18.7010   -6.7400   -2.6600 C.3   335  ILE335      0.0001
    100  N        -19.8350  -10.6940   -8.5210 N.3   339  LEU339     -0.1245
    101  CA       -18.6540  -10.5570   -9.3700 C.3   339  LEU339      0.1561
    102  C        -18.9340  -11.3660  -10.6380 C.2   339  LEU339      0.2260
    103  O        -19.4930  -12.4590  -10.5610 O.2   339  LEU339     -0.2867
    104  CB       -17.4090  -11.0810   -8.6570 C.3   339  LEU339      0.0270
    105  CG       -16.0230  -10.8660   -9.2650 C.3   339  LEU339      0.0019
    106  CD1      -15.6900   -9.3780   -9.3790 C.3   339  LEU339      0.0001
    107  CD2      -14.9680  -11.5910   -8.4240 C.3   339  LEU339      0.0001
    108  N        -17.4960  -17.3170   -2.8490 N.3   408  CYS408     -0.1235
    109  CA       -16.5530  -16.7770   -1.8840 C.3   408  CYS408      0.1677
    110  C        -16.0210  -17.8460   -0.9140 C.2   408  CYS408      0.2270
    111  O        -16.7620  -18.3220   -0.0540 O.2   408  CYS408     -0.2867
    112  CB       -17.2380  -15.6640   -1.0990 C.3   408  CYS408      0.0956
    113  SG       -16.1570  -14.8470    0.0190 S.3   408  CYS408     -0.0801
    114  N        -20.1480   -1.5480   -8.1410 N.3   449  PHE449     -0.1241
    115  CA       -19.5800   -2.8400   -7.7650 C.3   449  PHE449      0.1605
    116  C        -19.9490   -3.1790   -6.3210 C.2   449  PHE449      0.2264
    117  O        -20.2680   -4.3300   -6.0060 O.2   449  PHE449     -0.2867
    118  CB       -18.0580   -2.8900   -7.9290 C.3   449  PHE449      0.0534
    119  CG       -17.4400   -4.1620   -7.3900 C.ar  449  PHE449     -0.0203
    120  CD1      -17.6520   -5.3780   -8.0370 C.ar  449  PHE449     -0.0042
    121  CD2      -16.6760   -4.1470   -6.2230 C.ar  449  PHE449     -0.0042
    122  CE1      -17.0980   -6.5560   -7.5350 C.ar  449  PHE449     -0.0003
    123  CE2      -16.1140   -5.3140   -5.7200 C.ar  449  PHE449     -0.0003
    124  CZ       -16.3240   -6.5220   -6.3810 C.ar  449  PHE449     -0.0000
@<TRIPOS>BOND
     1    33    32    2
     2    15    14    2
     3    14    13    1
     4    32    31    1
     5    34    31    1
     6    34    35    1
     7    37    35   ar
     8    37    39   ar
     9    12    13    1
    10    13    16    1
    11    31    30    1
    12     3     4    2
    13     3     2    1
    14    35    36   ar
    15     1     2    1
    16    39    40   ar
    17    16    17    1
    18     2     5    1
    19   102   103    2
    20   102   101    1
    21    36    38   ar
    22    30    25   am
    23    40    38   ar
    24    26    25    2
    25     5     6    1
    26    17    18   ar
    27    17    19   ar
    28    25    24    1
    29   106   105    1
    30   101   104    1
    31   101   100    1
    32    18    20   ar
    33   105   104    1
    34   105   107    1
    35    19    21   ar
    36     6     7   ar
    37     6     8   ar
    38     7     9   ar
    39   114   115    1
    40    24    23    1
    41    24    27    1
    42    20    22   ar
    43   120   122   ar
    44   120   119   ar
    45   118   115    1
    46   118   119    1
    47    28    27    1
    48     8    10   ar
    49   115   116    1
    50     9    11   ar
    51   122   124   ar
    52    21    22   ar
    53    27    29    1
    54   119   121   ar
    55    10    11   ar
    56    58    57    2
    57    59    57   am
    58   124   123   ar
    59   116   117    2
    60   121   123   ar
    61    57    56    1
    62    98    96    1
    63    95    94    2
    64    44    43    2
    65    94    93    1
    66    56    53    1
    67    43    42    1
    68    41    42    1
    69    96    93    1
    70    96    97    1
    71    52    53    1
    72    53    54    1
    73    93    92    1
    74    42    45    1
    75    69    67   ar
    76    69    70   ar
    77    67    65   ar
    78   108   109    1
    79    70    68   ar
    80    99    97    1
    81    47    49   ar
    82    47    46   ar
    83    54    55    2
    84    45    46    1
    85    49    51   ar
    86    65    64    1
    87    65    66   ar
    88   109   112    1
    89   109   110    1
    90    46    48   ar
    91    64    61    1
    92    68    66   ar
    93    51    50   ar
    94   112   113    1
    95   110   111    2
    96    48    50   ar
    97    75    72    1
    98    71    72    1
    99    71    62   am
   100    61    60    1
   101    61    62    1
   102    72    73    1
   103    62    63    2
   104    90    89    1
   105    91    89    1
   106    81    80    1
   107    81    82    1
   108    80    77    1
   109    73    74    2
   110    89    86    1
   111    82    84   ar
   112    82    83   ar
   113    86    85    1
   114    86    87    1
   115    85    78   am
   116    77    78    1
   117    77    76    1
   118    78    79    2
   119    87    88    2
