@<TRIPOS>MOLECULE
tmp/3t3uA00.pdb
 171 159 0 0 0
SMALL
GASTEIGER

@<TRIPOS>ATOM
      1  N         25.7800   17.7670   68.7200 N.3    13  LEU13      -0.1231
      2  CA        25.7460   17.3060   67.3270 C.3    13  LEU13       0.1693
      3  C         25.6160   18.4780   66.3830 C.2    13  LEU13       0.2593
      4  O         25.9770   18.3970   65.2110 O.2    13  LEU13      -0.2718
      5  CB        24.6010   16.3340   67.1050 C.3    13  LEU13       0.0284
      6  CG        24.9070   14.9340   67.6280 C.3    13  LEU13       0.0019
      7  CD1       23.7710   13.9840   67.3390 C.3    13  LEU13       0.0001
      8  CD2       26.2210   14.3880   67.0510 C.3    13  LEU13       0.0001
      9  N         25.0960   19.5720   66.9120 N.am   14  GLY14      -0.1942
     10  CA        24.9550   20.7970   66.1530 C.3    14  GLY14       0.2014
     11  C         23.7770   21.6210   66.6130 C.2    14  GLY14       0.2639
     12  O         23.0300   21.2330   67.5130 O.2    14  GLY14      -0.2714
     13  N         23.6390   22.7890   66.0080 N.am   15  LYS15      -0.1963
     14  CA        22.3950   23.5080   66.0760 C.3    15  LYS15       0.1728
     15  C         21.7470   23.1990   64.7610 C.2    15  LYS15       0.2616
     16  O         22.3150   23.4400   63.7040 O.2    15  LYS15      -0.2715
     17  CB        22.5860   25.0090   66.2240 C.3    15  LYS15       0.0311
     18  CG        21.5360   25.6480   67.0980 C.3    15  LYS15       0.0038
     19  CD        20.2690   25.9320   66.3220 C.3    15  LYS15       0.0206
     20  CE        19.3680   26.8890   67.0750 C.3    15  LYS15       0.1093
     21  NZ        18.0260   26.9830   66.4450 N.3    15  LYS15      -0.1314
     22  N         20.5720   22.6130   64.8400 N.am   16  GLY16      -0.1955
     23  CA        19.7870   22.3530   63.6670 C.3    16  GLY16       0.1869
     24  C         18.6270   23.3040   63.7340 C.2    16  GLY16       0.2309
     25  O         18.7440   24.4060   64.2780 O.2    16  GLY16      -0.2863
     26  N         20.8960   20.0290   68.7750 N.3    21  VAL21      -0.1245
     27  CA        20.8640   18.5800   68.8030 C.3    21  VAL21       0.1561
     28  C         22.0830   18.0790   69.5780 C.2    21  VAL21       0.2260
     29  O         23.2320   18.4150   69.2700 O.2    21  VAL21      -0.2867
     30  CB        20.8140   17.9580   67.3880 C.3    21  VAL21       0.0252
     31  CG1       21.0070   16.4500   67.4710 C.3    21  VAL21       0.0019
     32  CG2       19.4750   18.2800   66.6990 C.3    21  VAL21       0.0019
     33  N         20.2500   10.8220   69.1580 N.3    34  ALA34      -0.1245
     34  CA        20.2910   12.2570   68.8700 C.3    34  ALA34       0.1562
     35  C         19.0410   12.9280   69.4150 C.2    34  ALA34       0.2260
     36  O         17.9170   12.5990   69.0280 O.2    34  ALA34      -0.2867
     37  CB        20.4220   12.5080   67.3680 C.3    34  ALA34       0.0290
     38  N         16.8300   16.2680   69.9120 N.3    36  LYS36      -0.1245
     39  CA        16.5500   17.6580   69.5560 C.3    36  LYS36       0.1561
     40  C         15.9000   18.3150   70.7670 C.2    36  LYS36       0.2260
     41  O         14.8640   17.8690   71.2450 O.2    36  LYS36      -0.2867
     42  CB        15.6400   17.7690   68.3240 C.3    36  LYS36       0.0271
     43  CG        15.3930   19.2490   67.8650 C.3    36  LYS36       0.0035
     44  CD        15.1240   19.3430   66.3530 C.3    36  LYS36       0.0206
     45  CE        16.4130   19.4170   65.5330 C.3    36  LYS36       0.1093
     46  NZ        16.1920   19.8700   64.1110 N.3    36  LYS36      -0.1314
     47  N          4.1690    9.6230   65.3450 N.3    59  LEU59      -0.1245
     48  CA         5.5590    9.5440   64.8290 C.3    59  LEU59       0.1561
     49  C          6.3310    8.3510   65.3910 C.2    59  LEU59       0.2260
     50  O          7.0860    7.6850   64.6640 O.2    59  LEU59      -0.2867
     51  CB         6.3360   10.8380   65.0860 C.3    59  LEU59       0.0270
     52  CG         5.9100   12.0050   64.1840 C.3    59  LEU59       0.0019
     53  CD1        6.5110   13.3030   64.6770 C.3    59  LEU59       0.0001
     54  CD2        6.2780   11.7320   62.7380 C.3    59  LEU59       0.0001
     55  N         14.0500    9.5320   59.6140 N.3    68  MET68      -0.1245
     56  CA        14.6240    9.4610   60.9540 C.3    68  MET68       0.1570
     57  C         13.6440    8.8280   61.9270 C.2    68  MET68       0.2261
     58  O         12.4740    9.2170   62.0160 O.2    68  MET68      -0.2867
     59  CB        15.0230   10.8380   61.4870 C.3    68  MET68       0.0387
     60  CG        15.7540   10.7850   62.8360 C.3    68  MET68       0.0595
     61  SD        15.3760   12.1330   63.9650 S.3    68  MET68      -0.1393
     62  CE        13.6950   11.7010   64.4710 C.3    68  MET68       0.0692
     63  N         12.0080    8.1900   65.3900 N.3    70  LEU70      -0.1245
     64  CA        11.6980    8.8290   66.6600 C.3    70  LEU70       0.1561
     65  C         11.3910    7.7800   67.7130 C.2    70  LEU70       0.2260
     66  O         10.5260    6.9160   67.5250 O.2    70  LEU70      -0.2867
     67  CB        10.4840    9.7630   66.5320 C.3    70  LEU70       0.0270
     68  CG        10.0990   10.5810   67.7780 C.3    70  LEU70       0.0019
     69  CD1       11.2220   11.5640   68.1670 C.3    70  LEU70       0.0001
     70  CD2        8.7650   11.3360   67.5730 C.3    70  LEU70       0.0001
     71  N         13.1140   15.7610   72.0610 N.3    82  LEU82      -0.1245
     72  CA        12.7610   14.7640   71.0580 C.3    82  LEU82       0.1561
     73  C         13.9240   13.8120   70.8400 C.2    82  LEU82       0.2260
     74  O         14.9520   14.1930   70.2860 O.2    82  LEU82      -0.2867
     75  CB        12.3870   15.4250   69.7240 C.3    82  LEU82       0.0270
     76  CG        11.3650   16.5560   69.7880 C.3    82  LEU82       0.0019
     77  CD1       11.2560   17.2780   68.4400 C.3    82  LEU82       0.0001
     78  CD2       10.0260   16.0150   70.1980 C.3    82  LEU82       0.0001
     79  N         15.6370   10.9270   69.0030 N.3    84  GLY84      -0.1210
     80  CA        15.7540   10.2040   67.7420 C.3    84  GLY84       0.1956
     81  C         17.0320    9.3860   67.5810 C.2    84  GLY84       0.2612
     82  O         17.9770    9.4870   68.3620 O.2    84  GLY84      -0.2717
     83  N         17.0090    8.5460   66.5640 N.am   85  GLU85      -0.1965
     84  CA        18.1480    7.7540   66.1390 C.3    85  GLU85       0.1733
     85  C         19.2350    8.6650   65.5870 C.2    85  GLU85       0.2616
     86  O         18.9490    9.5850   64.8300 O.2    85  GLU85      -0.2715
     87  CB        17.7210    6.7620   65.0470 C.3    85  GLU85       0.0429
     88  CG        18.8450    5.8540   64.5640 C.3    85  GLU85       0.1163
     89  CD        18.3680    4.6270   63.8170 C.2    85  GLU85       0.3649
     90  OE1       17.3500    4.6720   63.0940 O.co2  85  GLU85      -0.2457
     91  OE2       19.0550    3.6000   63.9240 O.co2  85  GLU85      -0.2457
     92  N         20.4770    8.4010   65.9780 N.am   86  VAL86      -0.1963
     93  CA        21.6270    9.1700   65.4970 C.3    86  VAL86       0.1727
     94  C         22.1630    8.5880   64.2060 C.2    86  VAL86       0.2616
     95  O         22.3140    7.3870   64.0690 O.2    86  VAL86      -0.2715
     96  CB        22.7820    9.2640   66.5170 C.3    86  VAL86       0.0290
     97  CG1       23.3680    7.8990   66.8390 C.3    86  VAL86       0.0023
     98  CG2       23.8660   10.1950   65.9860 C.3    86  VAL86       0.0023
     99  N         22.4250    9.4710   63.2570 N.am   87  TYR87      -0.1974
    100  CA        23.0730    9.1190   61.9930 C.3    87  TYR87       0.1639
    101  C         24.4000    9.8550   61.8720 C.2    87  TYR87       0.2290
    102  O         24.5000   11.0390   62.1820 O.2    87  TYR87      -0.2864
    103  CB        22.1420    9.4160   60.8160 C.3    87  TYR87       0.0560
    104  CG        20.7960    8.7520   61.0090 C.ar   87  TYR87      -0.0198
    105  CD1       20.6920    7.3610   61.1050 C.ar   87  TYR87      -0.0009
    106  CD2       19.6370    9.5070   61.1700 C.ar   87  TYR87      -0.0009
    107  CE1       19.4530    6.7390   61.3230 C.ar   87  TYR87       0.0417
    108  CE2       18.4060    8.8990   61.3850 C.ar   87  TYR87       0.0417
    109  CZ        18.3180    7.5220   61.4600 C.ar   87  TYR87       0.1957
    110  OH        17.0830    6.9590   61.6760 O.3    87  TYR87      -0.2866
    111  N         25.7990   15.2890   56.1930 N.3    91  GLU91      -0.1245
    112  CA        24.8180   15.7840   55.2300 C.3    91  GLU91       0.1567
    113  C         25.1310   15.2680   53.8280 C.2    91  GLU91       0.2260
    114  O         26.2900   15.1950   53.4240 O.2    91  GLU91      -0.2867
    115  CB        24.7860   17.3220   55.2250 C.3    91  GLU91       0.0388
    116  CG        24.3070   17.9620   56.5150 C.3    91  GLU91       0.1160
    117  CD        24.5420   19.4690   56.5430 C.2    91  GLU91       0.3649
    118  OE1       24.5680   20.1070   55.4670 O.co2  91  GLU91      -0.2457
    119  OE2       24.7070   20.0250   57.6420 O.co2  91  GLU91      -0.2457
    120  N         20.2890   20.1650   53.8620 N.3   134  GLU134     -0.1245
    121  CA        20.6880   20.0660   55.2940 C.3   134  GLU134      0.1567
    122  C         19.9090   18.9860   56.0350 C.2   134  GLU134      0.2260
    123  O         20.3810   18.4460   57.0350 O.2   134  GLU134     -0.2867
    124  CB        20.4630   21.3920   56.0510 C.3   134  GLU134      0.0388
    125  CG        21.6940   22.2700   56.1520 C.3   134  GLU134      0.1160
    126  CD        21.5790   23.3500   57.2230 C.2   134  GLU134      0.3649
    127  OE1       20.4490   23.6540   57.6630 O.co2 134  GLU134     -0.2457
    128  OE2       22.6330   23.8950   57.6180 O.co2 134  GLU134     -0.2457
    129  N         20.2960   13.4280   55.8220 N.3   137  LEU137     -0.1245
    130  CA        21.4220   12.8190   56.4910 C.3   137  LEU137      0.1561
    131  C         21.7270   11.4570   55.9000 C.2   137  LEU137      0.2260
    132  O         20.8720   10.7860   55.3210 O.2   137  LEU137     -0.2867
    133  CB        21.1720   12.7120   57.9980 C.3   137  LEU137      0.0270
    134  CG        21.0310   14.0310   58.7650 C.3   137  LEU137      0.0019
    135  CD1       20.9990   13.7600   60.2910 C.3   137  LEU137      0.0001
    136  CD2       22.1420   15.0380   58.4230 C.3   137  LEU137      0.0001
    137  N         15.4210   14.1570   58.0840 N.3   150  ILE150     -0.1231
    138  CA        15.1720   14.7320   59.3980 C.3   150  ILE150      0.1692
    139  C         14.2190   15.9390   59.3530 C.2   150  ILE150      0.2592
    140  O         14.0680   16.5980   58.3300 O.2   150  ILE150     -0.2718
    141  CB        16.4760   15.1200   60.1300 C.3   150  ILE150      0.0266
    142  CG1       17.3610   16.0080   59.2530 C.3   150  ILE150      0.0019
    143  CG2       17.2340   13.8810   60.5720 C.3   150  ILE150      0.0020
    144  CD1       18.3630   16.8350   60.0070 C.3   150  ILE150      0.0001
    145  N         13.5980   16.1880   60.5030 N.am  151  ASP151     -0.1960
    146  CA        12.6550   17.3040   60.7710 C.3   151  ASP151      0.1840
    147  C         11.2440   17.2120   60.1830 C.2   151  ASP151      0.2622
    148  O         10.5120   18.1840   60.2300 O.2   151  ASP151     -0.2715
    149  CB        13.2640   18.6730   60.4130 C.3   151  ASP151      0.1450
    150  CG        14.1790   19.2160   61.5060 C.2   151  ASP151      0.3671
    151  OD1       14.1660   18.7110   62.6480 O.co2 151  ASP151     -0.2456
    152  OD2       14.9290   20.1600   61.2110 O.co2 151  ASP151     -0.2456
    153  N         10.8320   16.0560   59.6740 N.am  152  PHE152     -0.1974
    154  CA         9.4110   15.8820   59.3180 C.3   152  PHE152      0.1639
    155  C          8.4630   16.2360   60.4680 C.2   152  PHE152      0.2290
    156  O          8.6380   15.8080   61.6110 O.2   152  PHE152     -0.2864
    157  CB         9.0920   14.4600   58.8240 C.3   152  PHE152      0.0560
    158  CG         8.7990   14.3940   57.3560 C.ar  152  PHE152     -0.0200
    159  CD1        9.7740   13.9620   56.4560 C.ar  152  PHE152     -0.0042
    160  CD2        7.5620   14.7990   56.8670 C.ar  152  PHE152     -0.0042
    161  CE1        9.5180   13.9250   55.1080 C.ar  152  PHE152     -0.0003
    162  CE2        7.2940   14.7650   55.5000 C.ar  152  PHE152     -0.0003
    163  CZ         8.2700   14.3190   54.6200 C.ar  152  PHE152     -0.0000
    164  N          7.8610   18.9930   62.1510 N.3   154  LEU154     -0.1245
    165  CA         8.1740   20.0810   63.1010 C.3   154  LEU154      0.1561
    166  C          7.5040   21.4240   62.7730 C.2   154  LEU154      0.2260
    167  O          7.0280   22.1200   63.6630 O.2   154  LEU154     -0.2867
    168  CB         9.6810   20.2750   63.2390 C.3   154  LEU154      0.0270
    169  CG        10.3970   19.1610   64.0200 C.3   154  LEU154      0.0019
    170  CD1       11.8260   19.5650   64.2610 C.3   154  LEU154      0.0001
    171  CD2        9.6810   18.8660   65.3450 C.3   154  LEU154      0.0001
@<TRIPOS>BOND
     1   114   113    2
     2   113   112    1
     3   120   121    1
     4   163   161   ar
     5   163   162   ar
     6   161   159   ar
     7   115   112    1
     8   115   116    1
     9   112   111    1
    10   121   122    1
    11   121   124    1
    12   132   131    2
    13   118   117   ar
    14   162   160   ar
    15   129   130    1
    16   131   130    1
    17   122   123    2
    18   124   125    1
    19   125   126    1
    20   159   158   ar
    21   130   133    1
    22   116   117    1
    23   117   119   ar
    24   160   158   ar
    25   126   128   ar
    26   126   127   ar
    27   158   157    1
    28   133   134    1
    29   137   138    1
    30   140   139    2
    31   136   134    1
    32   134   135    1
    33   157   154    1
    34   142   144    1
    35   142   141    1
    36   154   153    1
    37   154   155    1
    38   139   138    1
    39   139   145   am
    40   138   141    1
    41    55    56    1
    42   153   147   am
    43   141   143    1
    44   147   148    2
    45   147   146    1
    46   149   146    1
    47   149   150    1
    48   155   156    2
    49   145   146    1
    50   103   104    1
    51   103   100    1
    52    56    59    1
    53    56    57    1
    54   104   105   ar
    55   104   106   ar
    56   105   107   ar
    57   106   108   ar
    58   152   150   ar
    59   107   109   ar
    60   108   109   ar
    61   109   110    1
    62    59    60    1
    63   150   151   ar
    64   101   100    1
    65   101   102    2
    66    57    58    2
    67   100    99    1
    68   164   165    1
    69    54    52    1
    70   166   165    1
    71   166   167    2
    72    60    61    1
    73    90    89   ar
    74   165   168    1
    75   168   169    1
    76    99    94   am
    77    23    24    1
    78    23    22    1
    79    16    15    2
    80    24    25    2
    81    89    91   ar
    82    89    88    1
    83    61    62    1
    84   169   170    1
    85   169   171    1
    86    95    94    2
    87    46    45    1
    88    52    53    1
    89    52    51    1
    90    94    93    1
    91    88    87    1
    92    50    49    2
    93    15    22   am
    94    15    14    1
    95    48    51    1
    96    48    47    1
    97    48    49    1
    98    86    85    2
    99    87    84    1
   100     4     3    2
   101    63    64    1
   102    93    92    1
   103    93    96    1
   104    45    44    1
   105    85    92   am
   106    85    84    1
   107    98    96    1
   108    13    14    1
   109    13    11   am
   110    14    17    1
   111    84    83    1
   112    10    11    1
   113    10     9    1
   114    17    18    1
   115    19    20    1
   116    19    18    1
   117    44    43    1
   118     3     9   am
   119     3     2    1
   120    21    20    1
   121    96    97    1
   122    67    64    1
   123    67    68    1
   124    83    81   am
   125    11    12    2
   126    64    65    1
   127    32    30    1
   128     8     6    1
   129     5     2    1
   130     5     6    1
   131     2     1    1
   132     7     6    1
   133    37    34    1
   134    30    31    1
   135    30    27    1
   136    66    65    2
   137    70    68    1
   138    81    80    1
   139    81    82    2
   140    80    79    1
   141    68    69    1
   142    43    42    1
   143    42    39    1
   144    77    76    1
   145    26    27    1
   146    27    28    1
   147    34    33    1
   148    34    35    1
   149    36    35    2
   150    29    28    2
   151    39    38    1
   152    39    40    1
   153    75    76    1
   154    75    72    1
   155    76    78    1
   156    74    73    2
   157    40    41    2
   158    73    72    1
   159    72    71    1
