@<TRIPOS>MOLECULE
tmp/3t3vA00.pdb
 171 159 0 0 0
SMALL
GASTEIGER

@<TRIPOS>ATOM
      1  N         21.5040   16.8710   67.1690 N.3    13  LEU13      -0.1231
      2  CA        21.5320   16.4430   65.7620 C.3    13  LEU13       0.1693
      3  C         21.4390   17.6460   64.8360 C.2    13  LEU13       0.2593
      4  O         21.9740   17.6370   63.7230 O.2    13  LEU13      -0.2718
      5  CB        20.3910   15.4770   65.4550 C.3    13  LEU13       0.0284
      6  CG        20.4930   14.1330   66.1740 C.3    13  LEU13       0.0019
      7  CD1       19.2420   13.3020   65.9470 C.3    13  LEU13       0.0001
      8  CD2       21.7340   13.3770   65.7250 C.3    13  LEU13       0.0001
      9  N         20.7420   18.6750   65.3110 N.am   14  GLY14      -0.1942
     10  CA        20.5740   19.9260   64.5690 C.3    14  GLY14       0.2014
     11  C         19.2840   20.6740   64.8550 C.2    14  GLY14       0.2639
     12  O         18.4890   20.2910   65.7070 O.2    14  GLY14      -0.2714
     13  N         19.0980   21.7720   64.1350 N.am   15  LYS15      -0.1963
     14  CA        17.8660   22.5430   64.2210 C.3    15  LYS15       0.1728
     15  C         16.9880   22.1810   63.0410 C.2    15  LYS15       0.2616
     16  O         17.4390   22.1230   61.8980 O.2    15  LYS15      -0.2715
     17  CB        18.1350   24.0520   64.2260 C.3    15  LYS15       0.0311
     18  CG        16.8650   24.8930   64.4290 C.3    15  LYS15       0.0038
     19  CD        16.7720   26.0620   63.4480 C.3    15  LYS15       0.0206
     20  CE        17.5070   27.3020   63.9600 C.3    15  LYS15       0.1093
     21  NZ        17.0200   28.5520   63.3050 N.3    15  LYS15      -0.1314
     22  N         15.7320   21.9070   63.3370 N.am   16  GLY16      -0.1955
     23  CA        14.7310   21.7020   62.3040 C.3    16  GLY16       0.1869
     24  C         13.5840   22.6590   62.4920 C.2    16  GLY16       0.2309
     25  O         13.6550   23.5780   63.3110 O.2    16  GLY16      -0.2863
     26  N         16.6350   19.3420   67.5070 N.3    21  VAL21      -0.1245
     27  CA        16.5340   17.8940   67.5580 C.3    21  VAL21       0.1561
     28  C         17.7680   17.3160   68.2340 C.2    21  VAL21       0.2260
     29  O         18.9080   17.5810   67.8470 O.2    21  VAL21      -0.2867
     30  CB        16.3210   17.2650   66.1780 C.3    21  VAL21       0.0252
     31  CG1       16.1790   15.7400   66.3060 C.3    21  VAL21       0.0019
     32  CG2       15.0900   17.8790   65.5120 C.3    21  VAL21       0.0019
     33  N         15.7140   10.1600   68.1340 N.3    34  ALA34      -0.1245
     34  CA        15.7990   11.5650   67.7310 C.3    34  ALA34       0.1562
     35  C         14.5920   12.3170   68.3100 C.2    34  ALA34       0.2260
     36  O         13.4360   12.0290   67.9830 O.2    34  ALA34      -0.2867
     37  CB        15.8400   11.6930   66.2110 C.3    34  ALA34       0.0290
     38  N         12.5670   15.7120   68.8170 N.3    36  LYS36      -0.1245
     39  CA        12.2620   17.1010   68.4740 C.3    36  LYS36       0.1561
     40  C         11.6530   17.7940   69.6840 C.2    36  LYS36       0.2260
     41  O         10.6130   17.3820   70.2070 O.2    36  LYS36      -0.2867
     42  CB        11.3260   17.2230   67.2640 C.3    36  LYS36       0.0271
     43  CG        11.0980   18.6740   66.8340 C.3    36  LYS36       0.0035
     44  CD        10.6660   18.8000   65.3600 C.3    36  LYS36       0.0206
     45  CE        11.8540   18.7780   64.4020 C.3    36  LYS36       0.1093
     46  NZ        11.4920   19.2730   63.0390 N.3    36  LYS36      -0.1314
     47  N         -0.5090    9.0760   64.9760 N.3    59  LEU59      -0.1245
     48  CA         0.8550    8.9980   64.4070 C.3    59  LEU59       0.1561
     49  C          1.6570    7.8400   64.9940 C.2    59  LEU59       0.2260
     50  O          2.3900    7.1740   64.2810 O.2    59  LEU59      -0.2867
     51  CB         1.6190   10.3090   64.6010 C.3    59  LEU59       0.0270
     52  CG         1.1260   11.4450   63.7040 C.3    59  LEU59       0.0019
     53  CD1        1.6070   12.7960   64.2220 C.3    59  LEU59       0.0001
     54  CD2        1.5660   11.2240   62.2650 C.3    59  LEU59       0.0001
     55  N          9.0190    9.0810   58.7490 N.3    68  MET68      -0.1245
     56  CA         9.6530    9.0120   60.0750 C.3    68  MET68       0.1570
     57  C          8.7200    8.3520   61.0850 C.2    68  MET68       0.2261
     58  O          7.5610    8.7290   61.2330 O.2    68  MET68      -0.2867
     59  CB        10.0660   10.3900   60.6010 C.3    68  MET68       0.0387
     60  CG        10.9090   10.3130   61.8860 C.3    68  MET68       0.0595
     61  SD        10.6110   11.6360   63.0720 S.3    68  MET68      -0.1393
     62  CE         9.0520   11.1110   63.8070 C.3    68  MET68       0.0692
     63  N          7.2980    7.7300   64.6300 N.3    70  LEU70      -0.1245
     64  CA         7.0910    8.3770   65.9320 C.3    70  LEU70       0.1561
     65  C          6.8030    7.3310   67.0080 C.2    70  LEU70       0.2260
     66  O          5.9330    6.4810   66.8400 O.2    70  LEU70      -0.2867
     67  CB         5.9430    9.3930   65.8840 C.3    70  LEU70       0.0270
     68  CG         5.6360   10.1130   67.2080 C.3    70  LEU70       0.0019
     69  CD1        6.7730   11.0730   67.5670 C.3    70  LEU70       0.0001
     70  CD2        4.2930   10.8500   67.1270 C.3    70  LEU70       0.0001
     71  N          8.9070   15.3400   71.2440 N.3    82  LEU82      -0.1245
     72  CA         8.5230   14.3810   70.2000 C.3    82  LEU82       0.1561
     73  C          9.6760   13.4160   69.9200 C.2    82  LEU82       0.2260
     74  O         10.7120   13.7970   69.3820 O.2    82  LEU82      -0.2867
     75  CB         8.0980   15.0910   68.9170 C.3    82  LEU82       0.0270
     76  CG         6.9120   16.0570   69.0040 C.3    82  LEU82       0.0019
     77  CD1        6.9740   17.0510   67.8550 C.3    82  LEU82       0.0001
     78  CD2        5.5940   15.3080   68.9610 C.3    82  LEU82       0.0001
     79  N         11.1830   10.3600   68.0890 N.3    84  GLY84      -0.1210
     80  CA        11.1330    9.5540   66.8700 C.3    84  GLY84       0.1956
     81  C         12.3520    8.7080   66.5920 C.2    84  GLY84       0.2612
     82  O         13.3510    8.7570   67.3100 O.2    84  GLY84      -0.2717
     83  N         12.2480    7.9180   65.5300 N.am   85  GLU85      -0.1965
     84  CA        13.3470    7.0650   65.0980 C.3    85  GLU85       0.1733
     85  C         14.4410    7.9680   64.5380 C.2    85  GLU85       0.2616
     86  O         14.1540    8.9120   63.7930 O.2    85  GLU85      -0.2715
     87  CB        12.8850    6.0490   64.0460 C.3    85  GLU85       0.0429
     88  CG        13.9070    4.9670   63.6980 C.3    85  GLU85       0.1163
     89  CD        13.4000    3.9570   62.6730 C.2    85  GLU85       0.3649
     90  OE1       12.3660    4.1890   61.9920 O.co2  85  GLU85      -0.2457
     91  OE2       14.0710    2.9240   62.5250 O.co2  85  GLU85      -0.2457
     92  N         15.6820    7.6930   64.9380 N.am   86  VAL86      -0.1963
     93  CA        16.8450    8.4430   64.4450 C.3    86  VAL86       0.1727
     94  C         17.3610    7.8290   63.1460 C.2    86  VAL86       0.2616
     95  O         17.5380    6.6130   63.0360 O.2    86  VAL86      -0.2715
     96  CB        18.0110    8.5410   65.4770 C.3    86  VAL86       0.0290
     97  CG1       18.4440    7.1800   65.9560 C.3    86  VAL86       0.0023
     98  CG2       19.2130    9.2870   64.8650 C.3    86  VAL86       0.0023
     99  N         17.5750    8.6960   62.1640 N.am   87  TYR87      -0.1974
    100  CA        18.1610    8.3200   60.8800 C.3    87  TYR87       0.1639
    101  C         19.5270    8.9590   60.7140 C.2    87  TYR87       0.2290
    102  O         19.7480   10.0900   61.1100 O.2    87  TYR87      -0.2864
    103  CB        17.2190    8.6840   59.7260 C.3    87  TYR87       0.0560
    104  CG        15.8460    8.0910   59.9470 C.ar   87  TYR87      -0.0198
    105  CD1       15.6790    6.7130   60.0760 C.ar   87  TYR87      -0.0009
    106  CD2       14.7310    8.9030   60.0990 C.ar   87  TYR87      -0.0009
    107  CE1       14.4240    6.1540   60.3170 C.ar   87  TYR87       0.0417
    108  CE2       13.4680    8.3520   60.3390 C.ar   87  TYR87       0.0417
    109  CZ        13.3240    6.9870   60.4590 C.ar   87  TYR87       0.1957
    110  OH        12.0720    6.4750   60.6940 O.3    87  TYR87      -0.2866
    111  N         20.6340   14.4510   54.9150 N.3    91  GLU91      -0.1245
    112  CA        19.6680   15.0030   53.9800 C.3    91  GLU91       0.1567
    113  C         19.9330   14.5090   52.5660 C.2    91  GLU91       0.2260
    114  O         21.0770   14.4320   52.1320 O.2    91  GLU91      -0.2867
    115  CB        19.6860   16.5330   54.0160 C.3    91  GLU91       0.0388
    116  CG        19.0820   17.1150   55.2770 C.3    91  GLU91       0.1160
    117  CD        19.3860   18.5850   55.4620 C.2    91  GLU91       0.3649
    118  OE1       19.6570   19.2940   54.4680 O.co2  91  GLU91      -0.2457
    119  OE2       19.3300   19.0420   56.6130 O.co2  91  GLU91      -0.2457
    120  N         15.0600   19.3330   52.6850 N.3   134  GLU134     -0.1245
    121  CA        15.6060   19.0660   54.0400 C.3   134  GLU134      0.1567
    122  C         14.6750   18.2330   54.9210 C.2   134  GLU134      0.2260
    123  O         15.0840   17.7330   55.9640 O.2   134  GLU134     -0.2867
    124  CB        16.0250   20.3540   54.7570 C.3   134  GLU134      0.0388
    125  CG        14.9070   21.2640   55.2210 C.3   134  GLU134      0.1160
    126  CD        15.4400   22.4630   56.0040 C.2   134  GLU134      0.3649
    127  OE1       16.5520   22.9510   55.6980 O.co2 134  GLU134     -0.2457
    128  OE2       14.7530   22.9160   56.9380 O.co2 134  GLU134     -0.2457
    129  N         15.1070   12.8620   54.6940 N.3   137  LEU137     -0.1245
    130  CA        16.3160   12.2430   55.2540 C.3   137  LEU137      0.1561
    131  C         16.5640   10.8600   54.6560 C.2   137  LEU137      0.2260
    132  O         15.6520   10.2180   54.1770 O.2   137  LEU137     -0.2867
    133  CB        16.2260   12.1300   56.7780 C.3   137  LEU137      0.0270
    134  CG        15.9100   13.4060   57.5580 C.3   137  LEU137      0.0019
    135  CD1       15.9840   13.1200   59.0430 C.3   137  LEU137      0.0001
    136  CD2       16.8500   14.5760   57.2030 C.3   137  LEU137      0.0001
    137  N         10.3750   13.7030   57.1090 N.3   150  ILE150     -0.1231
    138  CA        10.1520   14.2770   58.4470 C.3   150  ILE150      0.1692
    139  C          9.1550   15.4320   58.4620 C.2   150  ILE150      0.2592
    140  O          8.9490   16.1280   57.4550 O.2   150  ILE150     -0.2718
    141  CB        11.4890   14.7090   59.1390 C.3   150  ILE150      0.0266
    142  CG1       12.2770   15.7110   58.2910 C.3   150  ILE150      0.0019
    143  CG2       12.3410   13.4840   59.4180 C.3   150  ILE150      0.0020
    144  CD1       13.5060   16.3470   58.9970 C.3   150  ILE150      0.0001
    145  N          8.5400   15.6070   59.6280 N.am  151  ASP151     -0.1960
    146  CA         7.6760   16.7570   59.9560 C.3   151  ASP151      0.1840
    147  C          6.2350   16.6920   59.4270 C.2   151  ASP151      0.2622
    148  O          5.5310   17.6910   59.4290 O.2   151  ASP151     -0.2715
    149  CB         8.3240   18.0780   59.5300 C.3   151  ASP151      0.1450
    150  CG         9.4600   18.5010   60.4450 C.2   151  ASP151      0.3671
    151  OD1        9.4920   18.0870   61.6330 O.co2 151  ASP151     -0.2456
    152  OD2       10.3250   19.2590   59.9530 O.co2 151  ASP151     -0.2456
    153  N          5.7850   15.5170   59.0140 N.am  152  PHE152     -0.1974
    154  CA         4.3710   15.3590   58.6310 C.3   152  PHE152      0.1639
    155  C          3.4820   15.7230   59.8090 C.2   152  PHE152      0.2290
    156  O          3.7320   15.3090   60.9380 O.2   152  PHE152     -0.2864
    157  CB         4.0370   13.9400   58.1730 C.3   152  PHE152      0.0560
    158  CG         3.7360   13.8360   56.7060 C.ar  152  PHE152     -0.0200
    159  CD1        4.6900   13.3650   55.8180 C.ar  152  PHE152     -0.0042
    160  CD2        2.4910   14.2110   56.2200 C.ar  152  PHE152     -0.0042
    161  CE1        4.4100   13.2660   54.4590 C.ar  152  PHE152     -0.0003
    162  CE2        2.1940   14.1260   54.8630 C.ar  152  PHE152     -0.0003
    163  CZ         3.1520   13.6520   53.9770 C.ar  152  PHE152     -0.0000
    164  N          2.9150   18.4450   61.5080 N.3   154  LEU154     -0.1245
    165  CA         3.2780   19.4600   62.5000 C.3   154  LEU154      0.1561
    166  C          2.6720   20.8450   62.2030 C.2   154  LEU154      0.2260
    167  O          2.1790   21.5170   63.1070 O.2   154  LEU154     -0.2867
    168  CB         4.7950   19.5620   62.6470 C.3   154  LEU154      0.0270
    169  CG         5.4740   18.4330   63.4400 C.3   154  LEU154      0.0019
    170  CD1        6.8890   18.8540   63.7610 C.3   154  LEU154      0.0001
    171  CD2        4.7210   18.0620   64.7180 C.3   154  LEU154      0.0001
@<TRIPOS>BOND
     1   114   113    2
     2   113   112    1
     3   120   121    1
     4   163   161   ar
     5   163   162   ar
     6   112   115    1
     7   112   111    1
     8   115   116    1
     9   121   124    1
    10   121   122    1
    11   132   131    2
    12   161   159   ar
    13   118   117   ar
    14   131   130    1
    15   129   130    1
    16   124   125    1
    17   162   160   ar
    18   122   123    2
    19   125   126    1
    20   130   133    1
    21   116   117    1
    22   117   119   ar
    23   127   126   ar
    24   159   158   ar
    25   126   128   ar
    26   160   158   ar
    27   158   157    1
    28   133   134    1
    29   137   138    1
    30   136   134    1
    31   140   139    2
    32   134   135    1
    33   157   154    1
    34   142   144    1
    35   142   141    1
    36   138   139    1
    37   138   141    1
    38   139   145   am
    39   154   153    1
    40   154   155    1
    41    55    56    1
    42   153   147   am
    43   141   143    1
    44   147   148    2
    45   147   146    1
    46   149   146    1
    47   149   150    1
    48   145   146    1
    49   103   104    1
    50   103   100    1
    51   155   156    2
    52   104   105   ar
    53   104   106   ar
    54   152   150   ar
    55    56    59    1
    56    56    57    1
    57   105   107   ar
    58   106   108   ar
    59   107   109   ar
    60   108   109   ar
    61   150   151   ar
    62   109   110    1
    63    59    60    1
    64   101   100    1
    65   101   102    2
    66   100    99    1
    67    57    58    2
    68   164   165    1
    69    60    61    1
    70    16    15    2
    71    90    89   ar
    72    99    94   am
    73   166   165    1
    74   166   167    2
    75    54    52    1
    76    23    24    1
    77    23    22    1
    78    24    25    2
    79   165   168    1
    80    91    89   ar
    81   168   169    1
    82    89    88    1
    83    95    94    2
    84    46    45    1
    85    15    22   am
    86    15    14    1
    87    61    62    1
    88    94    93    1
    89    21    20    1
    90   169   170    1
    91   169   171    1
    92    19    20    1
    93    19    18    1
    94    88    87    1
    95    52    53    1
    96    52    51    1
    97     4     3    2
    98    86    85    2
    99    87    84    1
   100    13    14    1
   101    13    11   am
   102    14    17    1
   103    17    18    1
   104    50    49    2
   105    45    44    1
   106    48    51    1
   107    48    47    1
   108    48    49    1
   109    93    92    1
   110    93    96    1
   111    85    92   am
   112    85    84    1
   113    10    11    1
   114    10     9    1
   115    63    64    1
   116     3     9   am
   117     3     2    1
   118    11    12    2
   119    98    96    1
   120    84    83    1
   121    44    43    1
   122     5     2    1
   123     5     6    1
   124    96    97    1
   125    32    30    1
   126    83    81   am
   127     8     6    1
   128     2     1    1
   129    67    64    1
   130    67    68    1
   131    64    65    1
   132     7     6    1
   133    30    31    1
   134    30    27    1
   135    37    34    1
   136    81    80    1
   137    81    82    2
   138    43    42    1
   139    66    65    2
   140    80    79    1
   141    70    68    1
   142    68    69    1
   143    42    39    1
   144    26    27    1
   145    27    28    1
   146    34    33    1
   147    34    35    1
   148    29    28    2
   149    77    76    1
   150    36    35    2
   151    39    38    1
   152    39    40    1
   153    75    76    1
   154    75    72    1
   155    78    76    1
   156    74    73    2
   157    40    41    2
   158    73    72    1
   159    72    71    1
