@<TRIPOS>MOLECULE
tmp/3t3yA00.pdb
 155 144 0 0 0
SMALL
GASTEIGER

@<TRIPOS>ATOM
      1  N         -1.1370   -3.4930   -4.3450 N.3   105  ASN105     -0.1240
      2  CA        -2.5730   -3.7690   -4.3420 C.3   105  ASN105      0.1653
      3  C         -3.1400   -3.5440   -5.7370 C.2   105  ASN105      0.2266
      4  O         -2.7780   -2.5760   -6.3930 O.2   105  ASN105     -0.2867
      5  CB        -3.3110   -2.8100   -3.3900 C.3   105  ASN105      0.1155
      6  CG        -3.1140   -3.1540   -1.9250 C.2   105  ASN105      0.2627
      7  OD1       -2.4600   -4.1260   -1.5970 O.2   105  ASN105     -0.2716
      8  ND2       -3.6750   -2.3340   -1.0340 N.am  105  ASN105     -0.0877
      9  N         -6.9490   -3.1600   -7.6410 N.3   107  TYR107     -0.1241
     10  CA        -8.3820   -3.0150   -7.4210 C.3   107  TYR107      0.1605
     11  C         -9.1300   -3.0930   -8.7320 C.2   107  TYR107      0.2264
     12  O         -8.9220   -2.2540   -9.6030 O.2   107  TYR107     -0.2867
     13  CB        -8.7060   -1.6370   -6.8040 C.3   107  TYR107      0.0534
     14  CG        -8.1280   -1.4220   -5.4330 C.ar  107  TYR107     -0.0201
     15  CD1       -6.7770   -1.1260   -5.2680 C.ar  107  TYR107     -0.0009
     16  CD2       -8.9330   -1.4880   -4.3040 C.ar  107  TYR107     -0.0009
     17  CE1       -6.2440   -0.9200   -4.0150 C.ar  107  TYR107      0.0417
     18  CE2       -8.4080   -1.2820   -3.0450 C.ar  107  TYR107      0.0417
     19  CZ        -7.0630   -1.0040   -2.9060 C.ar  107  TYR107      0.1957
     20  OH        -6.5350   -0.8100   -1.6540 O.3   107  TYR107     -0.2866
     21  N        -10.8430   -1.7240    0.2920 N.3   113  LEU113     -0.1245
     22  CA        -9.9480   -2.1810    1.3430 C.3   113  LEU113      0.1561
     23  C        -10.5330   -1.7650    2.6900 C.2   113  LEU113      0.2260
     24  O        -10.7300   -0.5680    2.9560 O.2   113  LEU113     -0.2867
     25  CB        -8.5400   -1.6000    1.1450 C.3   113  LEU113      0.0270
     26  CG        -7.4590   -2.0580    2.1200 C.3   113  LEU113      0.0019
     27  CD1       -7.1150   -3.5360    1.8930 C.3   113  LEU113      0.0001
     28  CD2       -6.2080   -1.1950    1.9820 C.3   113  LEU113      0.0001
     29  N         -8.3630   -0.3550    8.5560 N.3   116  HIS116     -0.1241
     30  CA        -7.2770   -1.0670    9.2070 C.3   116  HIS116      0.1621
     31  C         -6.1570   -0.1120    9.5920 C.2   116  HIS116      0.2264
     32  O         -6.1090    1.0310    9.1280 O.2   116  HIS116     -0.2867
     33  CB        -6.7160   -2.1150    8.2490 C.3   116  HIS116      0.0745
     34  CG        -5.9440   -1.5230    7.1150 C.ar  116  HIS116      0.0817
     35  ND1       -6.5440   -1.0760    5.9560 N.ar  116  HIS116     -0.2268
     36  CD2       -4.6220   -1.2680    6.9780 C.ar  116  HIS116      0.1154
     37  CE1       -5.6220   -0.5810    5.1500 C.ar  116  HIS116      0.1986
     38  NE2       -4.4480   -0.6820    5.7500 N.ar  116  HIS116     -0.2212
     39  N         -1.8110    0.0040    9.7970 N.3   118  ASP118     -0.1239
     40  CA        -0.5430   -0.6720    9.5480 C.3   118  ASP118      0.1674
     41  C          0.3420   -0.5390   10.7870 C.2   118  ASP118      0.2266
     42  O          1.0380    0.4590   10.9670 O.2   118  ASP118     -0.2867
     43  CB         0.1440   -0.1080    8.3070 C.3   118  ASP118      0.1410
     44  CG        -0.6190   -0.4160    7.0440 C.2   118  ASP118      0.3668
     45  OD1       -1.5380    0.3490    6.7150 O.co2 118  ASP118     -0.2456
     46  OD2       -0.3160   -1.4330    6.3850 O.co2 118  ASP118     -0.2456
     47  N          5.0780    5.3730    5.8730 N.3   128  ILE128     -0.1245
     48  CA         4.7800    4.5040    4.7440 C.3   128  ILE128      0.1561
     49  C          4.6010    5.4200    3.5490 C.2   128  ILE128      0.2260
     50  O          3.9640    6.4750    3.6550 O.2   128  ILE128     -0.2867
     51  CB         3.5370    3.6320    5.0090 C.3   128  ILE128      0.0252
     52  CG1        3.8790    2.5570    6.0450 C.3   128  ILE128      0.0019
     53  CG2        3.0250    2.9650    3.7230 C.3   128  ILE128      0.0019
     54  CD1        2.7060    1.6720    6.4050 C.3   128  ILE128      0.0001
     55  N          3.0250    5.8180   -0.1230 N.3   130  SER130     -0.1217
     56  CA         1.9200    5.2280   -0.8510 C.3   130  SER130      0.1889
     57  C          1.7040    5.9100   -2.1970 C.2   130  SER130      0.2288
     58  O          1.5420    7.1380   -2.2880 O.2   130  SER130     -0.2866
     59  CB         0.6470    5.2880   -0.0090 C.3   130  SER130      0.2089
     60  OG        -0.4760    4.8950   -0.7680 O.3   130  SER130     -0.2183
     61  N        -10.0110    7.5760   -0.5080 N.3   139  PHE139     -0.1241
     62  CA        -9.2460    7.1280    0.6450 C.3   139  PHE139      0.1605
     63  C         -9.9270    7.6970    1.8830 C.2   139  PHE139      0.2264
     64  O        -10.2430    8.8940    1.9400 O.2   139  PHE139     -0.2867
     65  CB        -7.8030    7.6390    0.5010 C.3   139  PHE139      0.0534
     66  CG        -6.9040    7.2940    1.6520 C.ar  139  PHE139     -0.0203
     67  CD1       -6.2980    6.0490    1.7320 C.ar  139  PHE139     -0.0042
     68  CD2       -6.6210    8.2340    2.6240 C.ar  139  PHE139     -0.0042
     69  CE1       -5.4540    5.7480    2.7850 C.ar  139  PHE139     -0.0003
     70  CE2       -5.7750    7.9370    3.6720 C.ar  139  PHE139     -0.0003
     71  CZ        -5.1910    6.6860    3.7480 C.ar  139  PHE139     -0.0000
     72  N         -7.9150   10.0120   -4.1120 N.3   155  LEU155     -0.1245
     73  CA        -6.5570    9.8160   -4.6140 C.3   155  LEU155      0.1561
     74  C         -6.6080    9.5040   -6.1030 C.2   155  LEU155      0.2260
     75  O         -7.3560    8.6210   -6.5510 O.2   155  LEU155     -0.2867
     76  CB        -5.8430    8.6770   -3.8690 C.3   155  LEU155      0.0270
     77  CG        -5.5820    8.8480   -2.3770 C.3   155  LEU155      0.0019
     78  CD1       -4.9150    7.6020   -1.8090 C.3   155  LEU155      0.0001
     79  CD2       -4.7130   10.0900   -2.1210 C.3   155  LEU155      0.0001
     80  N          1.1910    9.7080   -1.2660 N.3   161  VAL161     -0.1245
     81  CA         0.9890   10.1580    0.1000 C.3   161  VAL161      0.1561
     82  C          2.1380    9.6220    0.9330 C.2   161  VAL161      0.2260
     83  O          2.4610    8.4350    0.8650 O.2   161  VAL161     -0.2867
     84  CB        -0.3340    9.6250    0.6610 C.3   161  VAL161      0.0252
     85  CG1       -0.4770    9.9910    2.1380 C.3   161  VAL161      0.0019
     86  CG2       -1.5260   10.1650   -0.1660 C.3   161  VAL161      0.0019
     87  N          2.8630    8.8820    4.5700 N.3   163  TRP163     -0.1241
     88  CA         2.0150    8.6880    5.7440 C.3   163  TRP163      0.1605
     89  C          2.9320    8.5670    6.9570 C.2   163  TRP163      0.2264
     90  O          3.4910    7.5000    7.2150 O.2   163  TRP163     -0.2867
     91  CB         1.2260    7.3890    5.5280 C.3   163  TRP163      0.0550
     92  CG         0.0950    7.0680    6.4680 C.ar  163  TRP163      0.0003
     93  CD1        0.0730    6.0760    7.4150 C.ar  163  TRP163      0.0946
     94  CD2       -1.2040    7.6860    6.5080 C.ar  163  TRP163      0.0152
     95  NE1       -1.1460    6.0620    8.0570 N.ar  163  TRP163     -0.2442
     96  CE2       -1.9480    7.0350    7.5190 C.ar  163  TRP163      0.0810
     97  CE3       -1.8030    8.7310    5.7990 C.ar  163  TRP163      0.0012
     98  CZ2       -3.2560    7.4030    7.8460 C.ar  163  TRP163      0.0191
     99  CZ3       -3.1090    9.0870    6.1170 C.ar  163  TRP163      0.0001
    100  CH2       -3.8180    8.4270    7.1340 C.ar  163  TRP163      0.0015
    101  N         -7.4900    3.4600    8.4190 N.3   172  HIS172     -0.1241
    102  CA        -7.7470    3.9880    7.0790 C.3   172  HIS172      0.1621
    103  C         -8.1600    2.8760    6.1370 C.2   172  HIS172      0.2264
    104  O         -7.9910    1.6940    6.4420 O.2   172  HIS172     -0.2867
    105  CB        -6.4980    4.6760    6.5190 C.3   172  HIS172      0.0745
    106  CG        -5.2890    3.7950    6.5090 C.ar  172  HIS172      0.0817
    107  ND1       -4.5190    3.5760    7.6310 N.ar  172  HIS172     -0.2268
    108  CD2       -4.7420    3.0450    5.5230 C.ar  172  HIS172      0.1154
    109  CE1       -3.5390    2.7400    7.3330 C.ar  172  HIS172      0.1986
    110  NE2       -3.6450    2.4130    6.0570 N.ar  172  HIS172     -0.2212
    111  N        -10.0540    2.0690    1.8190 N.3   174  ILE174     -0.1245
    112  CA       -10.4100    2.5110    0.4810 C.3   174  ILE174      0.1561
    113  C        -11.8530    2.0950    0.1900 C.2   174  ILE174      0.2260
    114  O        -12.2290    0.9380    0.4050 O.2   174  ILE174     -0.2867
    115  CB        -9.4430    1.9000   -0.5690 C.3   174  ILE174      0.0252
    116  CG1       -8.0210    2.4400   -0.3770 C.3   174  ILE174      0.0019
    117  CG2       -9.9150    2.1900   -1.9950 C.3   174  ILE174      0.0019
    118  CD1       -7.8130    3.8370   -0.9260 C.3   174  ILE174      0.0001
    119  N         -7.0800    0.0630  -10.4770 N.3   189  ARG189     -0.1245
    120  CA        -6.2150    0.9810   -9.7710 C.3   189  ARG189      0.1563
    121  C         -5.1380    0.1250   -9.1250 C.2   189  ARG189      0.2260
    122  O         -5.4210   -0.9640   -8.6230 O.2   189  ARG189     -0.2867
    123  CB        -6.9870    1.7250   -8.6860 C.3   189  ARG189      0.0307
    124  CG        -6.0860    2.4770   -7.7200 C.3   189  ARG189      0.0489
    125  CD        -6.9180    3.1990   -6.6810 C.3   189  ARG189      0.2205
    126  NE        -6.0750    3.9750   -5.7810 N.pl3 189  ARG189     -0.0865
    127  CZ        -5.6850    3.5640   -4.5770 C.cat 189  ARG189      0.5346
    128  NH1       -6.0860    2.3880   -4.1110 N.pl3 189  ARG189      0.1354
    129  NH2       -4.9030    4.3420   -3.8280 N.pl3 189  ARG189      0.1354
    130  N         -2.0270    0.3210   -6.1790 N.3   191  ASN191     -0.1240
    131  CA        -1.4320    1.0940   -5.1080 C.3   191  ASN191      0.1653
    132  C         -0.1500    0.4180   -4.6350 C.2   191  ASN191      0.2266
    133  O         -0.1150   -0.8040   -4.4400 O.2   191  ASN191     -0.2867
    134  CB        -2.4210    1.2840   -3.9540 C.3   191  ASN191      0.1155
    135  CG        -1.7740    1.9110   -2.7350 C.2   191  ASN191      0.2627
    136  OD1       -1.4860    1.2270   -1.7570 O.2   191  ASN191     -0.2716
    137  ND2       -1.5490    3.2240   -2.7840 N.am  191  ASN191     -0.0877
    138  N          2.5680    0.4720   -1.5240 N.3   193  THR193     -0.1218
    139  CA         2.9340    0.9780   -0.1960 C.3   193  THR193      0.1862
    140  C          4.2960    0.4620    0.2020 C.2   193  THR193      0.2287
    141  O          4.4980   -0.7420    0.3890 O.2   193  THR193     -0.2866
    142  CB         1.8940    0.6760    0.9300 C.3   193  THR193      0.1770
    143  OG1        1.4360   -0.6790    0.8380 O.3   193  THR193     -0.2211
    144  CG2        0.7000    1.6170    0.8520 C.3   193  THR193      0.0375
    145  N          7.4900    0.1900    2.7460 N.3   195  ARG195     -0.1245
    146  CA         7.6360    0.0360    4.1940 C.3   195  ARG195      0.1563
    147  C          9.0500   -0.3470    4.6010 C.2   195  ARG195      0.2260
    148  O          9.7510   -1.0510    3.8690 O.2   195  ARG195     -0.2867
    149  CB         6.6820   -1.0520    4.7120 C.3   195  ARG195      0.0307
    150  CG         5.2250   -0.8650    4.2770 C.3   195  ARG195      0.0489
    151  CD         4.6620   -2.1240    3.6260 C.3   195  ARG195      0.2205
    152  NE         3.2940   -1.9290    3.1440 N.pl3 195  ARG195     -0.0865
    153  CZ         2.2350   -1.8200    3.9410 C.cat 195  ARG195      0.5346
    154  NH1        2.3850   -1.8780    5.2570 N.pl3 195  ARG195      0.1354
    155  NH2        1.0270   -1.6420    3.4250 N.pl3 195  ARG195      0.1354
@<TRIPOS>BOND
     1   119   120    1
     2   120   121    1
     3   120   123    1
     4    12    11    2
     5   121   122    2
     6    11    10    1
     7   123   124    1
     8   124   125    1
     9     9    10    1
    10    10    13    1
    11    13    14    1
    12   125   126    1
    13    75    74    2
    14     4     3    2
    15   130   131    1
    16    74    73    1
    17   126   127    2
    18     3     2    1
    19    14    15   ar
    20    14    16   ar
    21    15    17   ar
    22   131   132    1
    23   131   134    1
    24   132   133    2
    25    73    72    1
    26    73    76    1
    27   127   128    1
    28   127   129    1
    29     1     2    1
    30     2     5    1
    31    16    18   ar
    32    17    19   ar
    33   134   135    1
    34    76    77    1
    35     5     6    1
    36    18    19   ar
    37    19    20    1
    38   137   135   am
    39   135   136    2
    40    77    79    1
    41    77    78    1
    42    58    57    2
    43    57    56    1
    44   117   115    1
    45     6     7    2
    46     6     8   am
    47   138   139    1
    48    80    81    1
    49   118   116    1
    50    56    55    1
    51    56    59    1
    52    60    59    1
    53   115   116    1
    54   115   112    1
    55    61    62    1
    56   139   140    1
    57   139   142    1
    58    86    84    1
    59    81    84    1
    60    81    82    1
    61   113   114    2
    62   113   112    1
    63   140   141    2
    64    21    22    1
    65   112   111    1
    66    65    62    1
    67    65    66    1
    68    62    63    1
    69    84    85    1
    70   143   142    1
    71   144   142    1
    72    83    82    2
    73    25    22    1
    74    25    26    1
    75    22    23    1
    76    66    67   ar
    77    66    68   ar
    78    67    69   ar
    79    63    64    2
    80    27    26    1
    81    28    26    1
    82    68    70   ar
    83    23    24    2
    84   145   146    1
    85    69    71   ar
    86   152   151    1
    87   152   153    2
    88   155   153    1
    89    49    50    2
    90    49    48    1
    91   151   150    1
    92    70    71   ar
    93    53    51    1
    94   148   147    2
    95   153   154    1
    96   146   147    1
    97   146   149    1
    98   150   149    1
    99    87    88    1
   100    48    51    1
   101    48    47    1
   102    51    52    1
   103    37    38   ar
   104    37    35   ar
   105   108   110   ar
   106   108   106   ar
   107    91    88    1
   108    91    92    1
   109    88    89    1
   110    38    36   ar
   111    97    99   ar
   112    97    94   ar
   113    35    34   ar
   114    52    54    1
   115   110   109   ar
   116    99   100   ar
   117   103   104    2
   118   103   102    1
   119    46    44   ar
   120    92    94   ar
   121    92    93   ar
   122    94    96   ar
   123   106   105    1
   124   106   107   ar
   125   105   102    1
   126    45    44   ar
   127    89    90    2
   128    36    34   ar
   129    44    43    1
   130   102   101    1
   131    34    33    1
   132   100    98   ar
   133   109   107   ar
   134    93    95   ar
   135    96    98   ar
   136    96    95   ar
   137    33    30    1
   138    43    40    1
   139    29    30    1
   140    32    31    2
   141    30    31    1
   142    40    39    1
   143    40    41    1
   144    41    42    2
