@<TRIPOS>MOLECULE
tmp/3t3zD01.pdb
 121 115 0 0 0
SMALL
GASTEIGER

@<TRIPOS>ATOM
      1  N         67.5760  -14.2070   14.7710 N.3    73  LEU73      -0.1245
      2  CA        67.7470  -15.1200   15.8980 C.3    73  LEU73       0.1561
      3  C         68.3280  -14.3510   17.1080 C.2    73  LEU73       0.2260
      4  O         69.5440  -14.1810   17.2200 O.2    73  LEU73      -0.2867
      5  CB        68.6190  -16.3300   15.5020 C.3    73  LEU73       0.0270
      6  CG        68.1010  -17.2670   14.3840 C.3    73  LEU73       0.0019
      7  CD1       69.2060  -18.1510   13.8490 C.3    73  LEU73       0.0001
      8  CD2       66.9000  -18.1290   14.8130 C.3    73  LEU73       0.0001
      9  N         71.5490  -14.8430   19.1170 N.3    76  PHE76      -0.1241
     10  CA        72.7700  -14.4630   18.4230 C.3    76  PHE76       0.1605
     11  C         72.7720  -13.0040   17.9360 C.2    76  PHE76       0.2264
     12  O         73.3700  -12.6980   16.9040 O.2    76  PHE76      -0.2867
     13  CB        73.0500  -15.4360   17.2690 C.3    76  PHE76       0.0534
     14  CG        73.9290  -16.6010   17.6530 C.ar   76  PHE76      -0.0203
     15  CD1       75.3160  -16.4580   17.7040 C.ar   76  PHE76      -0.0042
     16  CD2       73.3750  -17.8390   17.9630 C.ar   76  PHE76      -0.0042
     17  CE1       76.1270  -17.5240   18.0520 C.ar   76  PHE76      -0.0003
     18  CE2       74.1880  -18.9150   18.3180 C.ar   76  PHE76      -0.0003
     19  CZ        75.5550  -18.7600   18.3650 C.ar   76  PHE76      -0.0000
     20  N         76.6860  -16.6280    9.0340 N.3    85  ILE85      -0.1231
     21  CA        75.4960  -17.3680    9.5020 C.3    85  ILE85       0.1692
     22  C         74.2380  -16.5210    9.7410 C.2    85  ILE85       0.2592
     23  O         73.1580  -16.8600    9.2550 O.2    85  ILE85      -0.2718
     24  CB        75.7790  -18.2330   10.7640 C.3    85  ILE85       0.0266
     25  CG1       76.9670  -19.1730   10.5360 C.3    85  ILE85       0.0019
     26  CG2       74.5210  -19.0320   11.1540 C.3    85  ILE85       0.0020
     27  CD1       77.3720  -19.9840   11.7660 C.3    85  ILE85       0.0001
     28  N         74.3870  -15.4290   10.4810 N.am   86  PHE86      -0.1976
     29  CA        73.2520  -14.6150   10.9050 C.3    86  PHE86       0.1639
     30  C         73.1930  -13.2910   10.1390 C.2    86  PHE86       0.2290
     31  O         72.5530  -12.3240   10.5780 O.2    86  PHE86      -0.2864
     32  CB        73.3080  -14.3820   12.4250 C.3    86  PHE86       0.0560
     33  CG        73.5520  -15.6390   13.2180 C.ar   86  PHE86      -0.0200
     34  CD1       72.4950  -16.4820   13.5580 C.ar   86  PHE86      -0.0042
     35  CD2       74.8330  -15.9810   13.6210 C.ar   86  PHE86      -0.0042
     36  CE1       72.7190  -17.6570   14.2840 C.ar   86  PHE86      -0.0003
     37  CE2       75.0660  -17.1460   14.3410 C.ar   86  PHE86      -0.0003
     38  CZ        74.0010  -17.9900   14.6700 C.ar   86  PHE86      -0.0000
     39  N         74.3520  -25.2270   21.7040 N.3   177  PHE177     -0.1241
     40  CA        73.5910  -26.1170   20.8220 C.3   177  PHE177      0.1605
     41  C         72.4910  -26.8300   21.6160 C.2   177  PHE177      0.2264
     42  O         71.3470  -26.9240   21.1660 O.2   177  PHE177     -0.2867
     43  CB        74.5490  -27.1160   20.1320 C.3   177  PHE177      0.0534
     44  CG        73.9440  -27.8810   18.9630 C.ar  177  PHE177     -0.0203
     45  CD1       73.3870  -27.2180   17.8680 C.ar  177  PHE177     -0.0042
     46  CD2       73.9930  -29.2740   18.9350 C.ar  177  PHE177     -0.0042
     47  CE1       72.8610  -27.9380   16.7910 C.ar  177  PHE177     -0.0003
     48  CE2       73.4690  -29.9960   17.8550 C.ar  177  PHE177     -0.0003
     49  CZ        72.9100  -29.3310   16.7900 C.ar  177  PHE177     -0.0000
     50  N         69.8600  -24.0520   22.9010 N.3   180  LEU180     -0.1245
     51  CA        69.1240  -23.6320   21.6930 C.3   180  LEU180      0.1561
     52  C         68.1530  -24.6980   21.1610 C.2   180  LEU180      0.2260
     53  O         67.3550  -24.4170   20.2650 O.2   180  LEU180     -0.2867
     54  CB        70.0860  -23.1640   20.5780 C.3   180  LEU180      0.0270
     55  CG        70.7260  -21.7650   20.6900 C.3   180  LEU180      0.0019
     56  CD1       71.8610  -21.6050   19.6920 C.3   180  LEU180      0.0001
     57  CD2       69.7100  -20.6380   20.5220 C.3   180  LEU180      0.0001
     58  N         82.5380  -22.0450   15.5790 N.3   268  PHE268     -0.1227
     59  CA        81.3850  -22.7290   16.1560 C.3   268  PHE268      0.1736
     60  C         80.8240  -23.7640   15.1640 C.2   268  PHE268      0.2595
     61  O         80.7210  -24.9510   15.4750 O.2   268  PHE268     -0.2718
     62  CB        80.3280  -21.6870   16.5750 C.3   268  PHE268      0.0547
     63  CG        79.0200  -22.2750   17.0410 C.ar  268  PHE268     -0.0202
     64  CD1       78.9830  -23.3520   17.9190 C.ar  268  PHE268     -0.0042
     65  CD2       77.8160  -21.7280   16.6130 C.ar  268  PHE268     -0.0042
     66  CE1       77.7730  -23.8880   18.3460 C.ar  268  PHE268     -0.0003
     67  CE2       76.5950  -22.2550   17.0420 C.ar  268  PHE268     -0.0003
     68  CZ        76.5760  -23.3350   17.9100 C.ar  268  PHE268     -0.0000
     69  N         80.5110  -23.3210   13.9570 N.am  269  ALA269     -0.1980
     70  CA        79.8990  -24.2150   12.9790 C.3   269  ALA269      0.1597
     71  C         80.8110  -25.3730   12.5730 C.2   269  ALA269      0.2287
     72  O         80.3310  -26.4580   12.2670 O.2   269  ALA269     -0.2864
     73  CB        79.4370  -23.4410   11.7730 C.3   269  ALA269      0.0319
     74  N         80.8070  -27.9400   16.1350 N.3   272  GLU272     -0.1231
     75  CA        79.6980  -28.5090   16.9090 C.3   272  GLU272      0.1699
     76  C         78.8430  -29.5700   16.2240 C.2   272  GLU272      0.2592
     77  O         78.5500  -30.6110   16.8310 O.2   272  GLU272     -0.2718
     78  CB        78.8160  -27.4080   17.5000 C.3   272  GLU272      0.0402
     79  CG        77.9350  -27.9050   18.6440 C.3   272  GLU272      0.1161
     80  CD        78.7110  -28.6550   19.7220 C.2   272  GLU272      0.3649
     81  OE1       78.1330  -29.5600   20.3520 O.co2 272  GLU272     -0.2457
     82  OE2       79.9020  -28.3430   19.9490 O.co2 272  GLU272     -0.2457
     83  N         78.4470  -29.3090   14.9780 N.am  273  THR273     -0.1953
     84  CA        77.6170  -30.2530   14.2400 C.3   273  THR273      0.1897
     85  C         78.3390  -31.5780   13.9330 C.2   273  THR273      0.2313
     86  O         77.7820  -32.6490   14.1570 O.2   273  THR273     -0.2863
     87  CB        76.9660  -29.6130   12.9910 C.3   273  THR273      0.1794
     88  OG1       77.9070  -28.7640   12.3300 O.3   273  THR273     -0.2208
     89  CG2       75.7530  -28.7750   13.3990 C.3   273  THR273      0.0378
     90  N         69.7950  -30.7630   12.1350 N.3   334  VAL334     -0.1245
     91  CA        69.2150  -29.4190   12.0860 C.3   334  VAL334      0.1561
     92  C         67.8370  -29.5330   11.4230 C.2   334  VAL334      0.2260
     93  O         67.6700  -29.1390   10.2670 O.2   334  VAL334     -0.2867
     94  CB        70.1230  -28.4260   11.3110 C.3   334  VAL334      0.0252
     95  CG1       69.6380  -27.0010   11.4770 C.3   334  VAL334      0.0019
     96  CG2       71.5690  -28.5490   11.7690 C.3   334  VAL334      0.0019
     97  N         68.0880  -23.6420    9.0760 N.3   338  LEU338     -0.1245
     98  CA        68.1690  -22.2890    9.5700 C.3   338  LEU338      0.1561
     99  C         67.0720  -21.5090    8.8720 C.2   338  LEU338      0.2260
    100  O         66.8230  -21.7300    7.6740 O.2   338  LEU338     -0.2867
    101  CB        69.5430  -21.6780    9.2880 C.3   338  LEU338      0.0270
    102  CG        70.4930  -21.5300   10.4750 C.3   338  LEU338      0.0019
    103  CD1       70.4390  -22.7500   11.3740 C.3   338  LEU338      0.0001
    104  CD2       71.9120  -21.2970   10.0040 C.3   338  LEU338      0.0001
    105  N         75.0460  -25.0220    3.5770 N.3   407  CYS407     -0.1235
    106  CA        76.0740  -25.0310    4.6130 C.3   407  CYS407      0.1677
    107  C         77.4540  -24.7840    3.9950 C.2   407  CYS407      0.2270
    108  O         77.8360  -25.4570    3.0310 O.2   407  CYS407     -0.2867
    109  CB        76.0510  -26.3480    5.3770 C.3   407  CYS407      0.0956
    110  SG        77.5310  -26.6090    6.3350 S.3   407  CYS407     -0.0801
    111  N         66.6520  -26.1680   17.5550 N.3   448  PHE448     -0.1241
    112  CA        67.5630  -25.7820   16.4740 C.3   448  PHE448      0.1605
    113  C         68.3130  -27.0140   16.0130 C.2   448  PHE448      0.2264
    114  O         68.5760  -27.1820   14.8170 O.2   448  PHE448     -0.2867
    115  CB        68.5560  -24.7340   16.9570 C.3   448  PHE448      0.0534
    116  CG        67.9870  -23.3490   17.0480 C.ar  448  PHE448     -0.0203
    117  CD1       66.6090  -23.1310   17.0320 C.ar  448  PHE448     -0.0042
    118  CD2       68.8340  -22.2540   17.1860 C.ar  448  PHE448     -0.0042
    119  CE1       66.0810  -21.8510   17.1210 C.ar  448  PHE448     -0.0003
    120  CE2       68.3110  -20.9660   17.2920 C.ar  448  PHE448     -0.0003
    121  CZ        66.9260  -20.7680   17.2580 C.ar  448  PHE448     -0.0000
@<TRIPOS>BOND
     1   108   107    2
     2   105   106    1
     3   107   106    1
     4   106   109    1
     5   109   110    1
     6   100    99    2
     7    99    98    1
     8    20    21    1
     9    97    98    1
    10    23    22    2
    11   101    98    1
    12   101   102    1
    13    21    22    1
    14    21    24    1
    15    22    28   am
    16   104   102    1
    17    30    31    2
    18    30    29    1
    19    93    92    2
    20   102   103    1
    21    28    29    1
    22    25    24    1
    23    25    27    1
    24    24    26    1
    25    29    32    1
    26    94    95    1
    27    94    96    1
    28    94    91    1
    29    92    91    1
    30    73    70    1
    31    91    90    1
    32    72    71    2
    33    88    87    1
    34    32    33    1
    35    71    70    1
    36    70    69    1
    37    87    89    1
    38    87    84    1
    39    33    34   ar
    40    33    35   ar
    41    34    36   ar
    42    35    37   ar
    43     7     6    1
    44    85    86    2
    45    85    84    1
    46    69    60   am
    47    84    83    1
    48    36    38   ar
    49    37    38   ar
    50     6     8    1
    51     6     5    1
    52     1     2    1
    53   114   113    2
    54    83    76   am
    55    60    61    2
    56    60    59    1
    57     5     2    1
    58    58    59    1
    59     2     3    1
    60   113   112    1
    61    74    75    1
    62    59    62    1
    63    76    77    2
    64    76    75    1
    65   112   115    1
    66   112   111    1
    67    62    63    1
    68    65    63   ar
    69    65    67   ar
    70    49    47   ar
    71    49    48   ar
    72    47    45   ar
    73    12    11    2
    74    75    78    1
    75   115   116    1
    76   117   116   ar
    77   117   119   ar
    78    63    64   ar
    79    67    68   ar
    80   116   118   ar
    81     3     4    2
    82   119   121   ar
    83   118   120   ar
    84   121   120   ar
    85    13    14    1
    86    13    10    1
    87    78    79    1
    88    14    15   ar
    89    14    16   ar
    90    15    17   ar
    91    48    46   ar
    92    45    44   ar
    93    68    66   ar
    94    64    66   ar
    95    11    10    1
    96    16    18   ar
    97    17    19   ar
    98    18    19   ar
    99    10     9    1
   100    79    80    1
   101    46    44   ar
   102    44    43    1
   103    56    55    1
   104    80    82   ar
   105    80    81   ar
   106    43    40    1
   107    53    52    2
   108    57    55    1
   109    54    55    1
   110    54    51    1
   111    40    41    1
   112    40    39    1
   113    52    51    1
   114    42    41    2
   115    51    50    1
