@<TRIPOS>MOLECULE
tmp/3t40A00.pdb
 145 134 0 0 0
SMALL
GASTEIGER

@<TRIPOS>ATOM
      1  N          9.3320    9.2870    4.8450 N.3    53  GLU53      -0.1245
      2  CA         9.4920    9.1220    6.2860 C.3    53  GLU53       0.1567
      3  C          9.8320   10.3920    7.0600 C.2    53  GLU53       0.2260
      4  O         10.7200   11.1430    6.6790 O.2    53  GLU53      -0.2867
      5  CB        10.5600    8.0640    6.5630 C.3    53  GLU53       0.0388
      6  CG        10.7110    7.6890    8.0170 C.3    53  GLU53       0.1160
      7  CD        11.2950    6.3040    8.1920 C.2    53  GLU53       0.3649
      8  OE1       12.5290    6.1870    8.2950 O.co2  53  GLU53      -0.2457
      9  OE2       10.5170    5.3360    8.2160 O.co2  53  GLU53      -0.2457
     10  N         11.4600   11.7870   10.4360 N.3    55  LYS55      -0.1245
     11  CA        12.4780   11.3180   11.3710 C.3    55  LYS55       0.1561
     12  C         13.1350   12.4670   12.1360 C.2    55  LYS55       0.2260
     13  O         12.5670   13.5480   12.2600 O.2    55  LYS55      -0.2867
     14  CB        13.5590   10.5660   10.6000 C.3    55  LYS55       0.0271
     15  CG        13.8640    9.1840   11.1140 C.3    55  LYS55       0.0035
     16  CD        15.1320    8.6530   10.4780 C.3    55  LYS55       0.0206
     17  CE        14.8250    7.6810    9.3570 C.3    55  LYS55       0.1093
     18  NZ        15.9160    7.6390    8.3540 N.3    55  LYS55      -0.1314
     19  N          8.4930    7.9180   12.4990 N.3    79  VAL79      -0.1245
     20  CA         9.2720    7.1610   13.4670 C.3    79  VAL79       0.1561
     21  C          8.9350    7.6620   14.8750 C.2    79  VAL79       0.2260
     22  O          9.1310    8.8340   15.1870 O.2    79  VAL79      -0.2867
     23  CB        10.7720    7.2940   13.1980 C.3    79  VAL79       0.0252
     24  CG1       11.5590    6.4440   14.1920 C.3    79  VAL79       0.0019
     25  CG2       11.0920    6.8660   11.7610 C.3    79  VAL79       0.0019
     26  N         10.0020    5.9680   17.6530 N.3    81  GLU81      -0.1245
     27  CA        11.0240    5.4450   18.5590 C.3    81  GLU81       0.1567
     28  C         11.8150    6.6090   19.1370 C.2    81  GLU81       0.2260
     29  O         12.2550    7.4880   18.4070 O.2    81  GLU81      -0.2867
     30  CB        11.9500    4.4860   17.8080 C.3    81  GLU81       0.0388
     31  CG        12.7790    3.5790   18.7070 C.3    81  GLU81       0.1160
     32  CD        14.1760    4.1130   18.9560 C.2    81  GLU81       0.3649
     33  OE1       14.4910    5.2240   18.4770 O.co2  81  GLU81      -0.2457
     34  OE2       14.9640    3.4140   19.6270 O.co2  81  GLU81      -0.2457
     35  N         16.7720    6.4240   19.7780 N.3    84  ARG84      -0.1231
     36  CA        17.7510    6.6690   18.7230 C.3    84  ARG84       0.1694
     37  C         17.3270    7.7820   17.7660 C.2    84  ARG84       0.2592
     38  O         18.1560    8.5810   17.3250 O.2    84  ARG84      -0.2718
     39  CB        18.0360    5.3830   17.9400 C.3    84  ARG84       0.0321
     40  CG        19.0290    4.5300   18.6400 C.3    84  ARG84       0.0489
     41  CD        19.8200    3.5690   17.7660 C.3    84  ARG84       0.2205
     42  NE        18.9370    2.7170   16.9920 N.pl3  84  ARG84      -0.0865
     43  CZ        18.1780    1.7110   17.4140 C.cat  84  ARG84       0.5346
     44  NH1       18.0500    1.2890   18.6700 N.pl3  84  ARG84       0.1354
     45  NH2       17.4440    1.0960   16.4480 N.pl3  84  ARG84       0.1354
     46  N         16.0350    7.8410   17.4560 N.am   85  PHE85      -0.1976
     47  CA        15.5410    8.7710   16.4410 C.3    85  PHE85       0.1639
     48  C         14.8100    9.9720   17.0120 C.2    85  PHE85       0.2290
     49  O         14.3140   10.8170   16.2650 O.2    85  PHE85      -0.2864
     50  CB        14.6390    8.0370   15.4520 C.3    85  PHE85       0.0560
     51  CG        15.3540    6.9920   14.6570 C.ar   85  PHE85      -0.0200
     52  CD1       16.1440    7.3490   13.5740 C.ar   85  PHE85      -0.0042
     53  CD2       15.2470    5.6510   14.9970 C.ar   85  PHE85      -0.0042
     54  CE1       16.8080    6.3840   12.8390 C.ar   85  PHE85      -0.0003
     55  CE2       15.9080    4.6840   14.2670 C.ar   85  PHE85      -0.0003
     56  CZ        16.6880    5.0480   13.1870 C.ar   85  PHE85      -0.0000
     57  N          6.2720    3.8030   12.5530 N.3   106  LYS106     -0.1231
     58  CA         7.5480    3.1180   12.4010 C.3   106  LYS106      0.1693
     59  C          8.2400    3.0810   13.7630 C.2   106  LYS106      0.2592
     60  O          8.7270    4.0960   14.2700 O.2   106  LYS106     -0.2718
     61  CB         8.4250    3.8420   11.3690 C.3   106  LYS106      0.0285
     62  CG         9.6190    3.0460   10.8400 C.3   106  LYS106      0.0035
     63  CD         9.2990    2.3770    9.4990 C.3   106  LYS106      0.0206
     64  CE        10.5400    1.7410    8.8710 C.3   106  LYS106      0.1093
     65  NZ        11.6320    2.7400    8.6320 N.3   106  LYS106     -0.1314
     66  N          8.2630    1.9050   14.3610 N.am  107  ASP107     -0.1960
     67  CA         8.7930    1.7290   15.7030 C.3   107  ASP107      0.1840
     68  C          9.0500    0.2360   15.9220 C.2   107  ASP107      0.2622
     69  O          8.7040   -0.5850   15.0690 O.2   107  ASP107     -0.2715
     70  CB         7.7630    2.2480   16.7170 C.3   107  ASP107      0.1450
     71  CG         8.3830    2.6300   18.0530 C.2   107  ASP107      0.3671
     72  OD1        9.4680    2.1080   18.3920 O.co2 107  ASP107     -0.2456
     73  OD2        7.7730    3.4600   18.7680 O.co2 107  ASP107     -0.2456
     74  N          9.5880   -0.1170   17.0840 N.am  108  PHE108     -0.1974
     75  CA         9.6880   -1.5270   17.4630 C.3   108  PHE108      0.1639
     76  C          8.4090   -1.9260   18.1690 C.2   108  PHE108      0.2290
     77  O          8.2130   -1.6090   19.3460 O.2   108  PHE108     -0.2864
     78  CB        10.8760   -1.7720   18.3940 C.3   108  PHE108      0.0560
     79  CG        12.2050   -1.5670   17.7400 C.ar  108  PHE108     -0.0200
     80  CD1       12.6790   -2.4810   16.8120 C.ar  108  PHE108     -0.0042
     81  CD2       12.9860   -0.4670   18.0570 C.ar  108  PHE108     -0.0042
     82  CE1       13.9070   -2.2970   16.2040 C.ar  108  PHE108     -0.0003
     83  CE2       14.2160   -0.2770   17.4540 C.ar  108  PHE108     -0.0003
     84  CZ        14.6760   -1.1910   16.5250 C.ar  108  PHE108     -0.0000
     85  N          4.4050   -1.0710   11.6700 N.3   127  LEU127     -0.1245
     86  CA         5.5410   -1.9380   11.3330 C.3   127  LEU127      0.1561
     87  C          5.6400   -3.1530   12.2670 C.2   127  LEU127      0.2260
     88  O          5.6210   -2.9980   13.4920 O.2   127  LEU127     -0.2867
     89  CB         6.8510   -1.1470   11.4000 C.3   127  LEU127      0.0270
     90  CG         8.1370   -1.8590   10.9620 C.3   127  LEU127      0.0019
     91  CD1        8.1930   -1.9620    9.4390 C.3   127  LEU127      0.0001
     92  CD2        9.3800   -1.1480   11.4890 C.3   127  LEU127      0.0001
     93  N          8.3630   -6.3580   12.7690 N.3   129  ILE129     -0.1245
     94  CA         9.6890   -6.7950   12.3360 C.3   129  ILE129      0.1561
     95  C          9.8780   -8.2850   12.6100 C.2   129  ILE129      0.2260
     96  O          9.9380   -8.7100   13.7570 O.2   129  ILE129     -0.2867
     97  CB        10.8000   -5.9850   13.0500 C.3   129  ILE129      0.0252
     98  CG1       10.6410   -4.4960   12.7580 C.3   129  ILE129      0.0019
     99  CG2       12.1760   -6.4550   12.6090 C.3   129  ILE129      0.0019
    100  CD1       11.5850   -3.6240   13.5680 C.3   129  ILE129      0.0001
    101  N          8.2220   -6.5340    8.0200 N.3   155  GLU155     -0.1245
    102  CA         9.5870   -6.3170    7.5630 C.3   155  GLU155      0.1567
    103  C         10.4590   -7.5520    7.6900 C.2   155  GLU155      0.2260
    104  O         10.5600   -8.1540    8.7660 O.2   155  GLU155     -0.2867
    105  CB        10.2170   -5.1530    8.3350 C.3   155  GLU155      0.0388
    106  CG        11.7050   -5.0130    8.1250 C.3   155  GLU155      0.1160
    107  CD        12.2540   -3.8060    8.8380 C.2   155  GLU155      0.3649
    108  OE1       11.7350   -2.7040    8.5920 O.co2 155  GLU155     -0.2457
    109  OE2       13.1900   -3.9720    9.6410 O.co2 155  GLU155     -0.2457
    110  N         14.0800   -4.9810    4.3360 N.3   176  ASN176     -0.1240
    111  CA        15.0950   -4.1010    4.8980 C.3   176  ASN176      0.1653
    112  C         16.4850   -4.7020    4.7170 C.2   176  ASN176      0.2266
    113  O         16.7570   -5.8020    5.1960 O.2   176  ASN176     -0.2867
    114  CB        14.8250   -3.8750    6.3870 C.3   176  ASN176      0.1155
    115  CG        15.6480   -2.7400    6.9640 C.2   176  ASN176      0.2627
    116  OD1       16.6840   -2.3670    6.4170 O.2   176  ASN176     -0.2716
    117  ND2       15.1910   -2.1880    8.0810 N.am  176  ASN176     -0.0877
    118  N         19.2660   -3.7330    5.9680 N.3   178  ARG178     -0.1245
    119  CA        20.1110   -3.6230    7.1510 C.3   178  ARG178      0.1563
    120  C         19.7820   -4.7100    8.1680 C.2   178  ARG178      0.2260
    121  O         18.6150   -5.0450    8.3800 O.2   178  ARG178     -0.2867
    122  CB        19.9720   -2.2380    7.7860 C.3   178  ARG178      0.0307
    123  CG        20.1760   -1.1820    6.7450 C.3   178  ARG178      0.0489
    124  CD        20.4310    0.1590    7.3370 C.3   178  ARG178      0.2205
    125  NE        19.2690    0.6070    8.0890 N.pl3 178  ARG178     -0.0865
    126  CZ        18.2540    1.2630    7.5040 C.cat 178  ARG178      0.5346
    127  NH1       18.3300    1.5790    6.2070 N.pl3 178  ARG178      0.1354
    128  NH2       17.1910    1.6060    8.2350 N.pl3 178  ARG178      0.1354
    129  N         12.4590   -1.1240    1.5210 N.3   201  GLU201     -0.1245
    130  CA        12.5870   -0.1680    2.6170 C.3   201  GLU201      0.1567
    131  C         13.9430    0.5300    2.6720 C.2   201  GLU201      0.2260
    132  O         14.1280    1.4630    3.4530 O.2   201  GLU201     -0.2867
    133  CB        12.3610   -0.8680    3.9490 C.3   201  GLU201      0.0388
    134  CG        10.9730   -1.4150    4.1650 C.3   201  GLU201      0.1160
    135  CD        10.8680   -2.1430    5.4970 C.2   201  GLU201      0.3649
    136  OE1       11.2150   -1.5380    6.5290 O.co2 201  GLU201     -0.2457
    137  OE2       10.4600   -3.3200    5.5150 O.co2 201  GLU201     -0.2457
    138  N         10.2520    2.9110    0.5320 N.3   222  LEU222     -0.1245
    139  CA        10.3290    3.8250    1.6630 C.3   222  LEU222      0.1561
    140  C         11.5610    4.7110    1.4970 C.2   222  LEU222      0.2260
    141  O         12.6470    4.2290    1.1810 O.2   222  LEU222     -0.2867
    142  CB        10.3700    3.0210    2.9710 C.3   222  LEU222      0.0270
    143  CG        10.0350    3.7600    4.2710 C.3   222  LEU222      0.0019
    144  CD1        9.5150    2.7870    5.3470 C.3   222  LEU222      0.0001
    145  CD2       11.2560    4.4960    4.7620 C.3   222  LEU222      0.0001
@<TRIPOS>BOND
     1   138   139    1
     2   141   140    2
     3   140   139    1
     4   129   130    1
     5   139   142    1
     6   130   131    1
     7   130   133    1
     8   131   132    2
     9   142   143    1
    10   133   134    1
    11   134   135    1
    12   143   145    1
    13   143   144    1
    14   110   111    1
    15   112   111    1
    16   112   113    2
    17     1     2    1
    18   111   114    1
    19   135   137   ar
    20   135   136   ar
    21   118   119    1
    22   127   126    1
    23     2     5    1
    24     2     3    1
    25   114   115    1
    26   116   115    2
    27     5     6    1
    28     4     3    2
    29   123   124    1
    30   123   122    1
    31   115   117   am
    32   119   122    1
    33   119   120    1
    34   124   125    1
    35   126   125    2
    36   126   128    1
    37   102   103    1
    38   102   101    1
    39   102   105    1
    40   103   104    2
    41     6     7    1
    42   106   105    1
    43   106   107    1
    44   120   121    2
    45     7     9   ar
    46     7     8   ar
    47    18    17    1
    48   108   107   ar
    49    65    64    1
    50   107   109   ar
    51    64    63    1
    52    17    16    1
    53    91    90    1
    54    63    62    1
    55    10    11    1
    56    16    15    1
    57    14    15    1
    58    14    11    1
    59    62    61    1
    60    90    89    1
    61    90    92    1
    62    86    89    1
    63    86    85    1
    64    86    87    1
    65    61    58    1
    66    11    12    1
    67    25    23    1
    68    12    13    2
    69    87    88    2
    70    94    95    1
    71    94    93    1
    72    94    97    1
    73    58    57    1
    74    58    59    1
    75    19    20    1
    76    99    97    1
    77    95    96    2
    78    98    97    1
    79    98   100    1
    80    54    56   ar
    81    54    52   ar
    82    56    55   ar
    83    23    20    1
    84    23    24    1
    85    20    21    1
    86    52    51   ar
    87    59    60    2
    88    59    66   am
    89    55    53   ar
    90    66    67    1
    91    51    53   ar
    92    51    50    1
    93    21    22    2
    94    69    68    2
    95    50    47    1
    96    67    68    1
    97    67    70    1
    98    68    74   am
    99    82    84   ar
   100    82    80   ar
   101    49    48    2
   102    47    48    1
   103    47    46    1
   104    45    43    1
   105    84    83   ar
   106    70    71    1
   107    80    79   ar
   108    42    43    2
   109    42    41    1
   110    74    75    1
   111    38    37    2
   112    43    44    1
   113    83    81   ar
   114    46    37   am
   115    75    76    1
   116    75    78    1
   117    26    27    1
   118    79    81   ar
   119    79    78    1
   120    41    40    1
   121    37    36    1
   122    30    27    1
   123    30    31    1
   124    39    40    1
   125    39    36    1
   126    71    72   ar
   127    71    73   ar
   128    76    77    2
   129    29    28    2
   130    33    32   ar
   131    27    28    1
   132    31    32    1
   133    36    35    1
   134    32    34   ar
