@<TRIPOS>MOLECULE
tmp/3t44A00.pdb
 170 159 0 0 0
SMALL
GASTEIGER

@<TRIPOS>ATOM
      1  N         -9.0140   -8.9780    4.9010 N.3    53  GLU53      -0.1245
      2  CA        -9.1150   -8.7410    6.3310 C.3    53  GLU53       0.1567
      3  C         -9.6080   -9.9480    7.1340 C.2    53  GLU53       0.2260
      4  O        -10.5050  -10.6570    6.7030 O.2    53  GLU53      -0.2867
      5  CB        -9.9820   -7.5180    6.5850 C.3    53  GLU53       0.0388
      6  CG       -10.1740   -7.1440    8.0400 C.3    53  GLU53       0.1160
      7  CD       -10.6850   -5.7380    8.2010 C.2    53  GLU53       0.3649
      8  OE1      -11.8840   -5.6270    8.4710 O.co2  53  GLU53      -0.2457
      9  OE2       -9.9050   -4.7500    8.0270 O.co2  53  GLU53      -0.2457
     10  N        -11.5220  -10.7730   10.3650 N.3    55  LYS55      -0.1245
     11  CA       -12.5300  -10.1120   11.1920 C.3    55  LYS55       0.1561
     12  C        -13.5850  -11.1400   11.5340 C.2    55  LYS55       0.2260
     13  O        -14.2350  -11.6600   10.6160 O.2    55  LYS55      -0.2867
     14  CB       -13.2050   -8.9800   10.4200 C.3    55  LYS55       0.0271
     15  CG       -14.3160   -8.2640   11.1820 C.3    55  LYS55       0.0035
     16  CD       -14.7860   -7.0070   10.4790 C.3    55  LYS55       0.0206
     17  CE       -15.2810   -7.2380    9.0780 C.3    55  LYS55       0.1093
     18  NZ       -15.8930   -5.9950    8.5250 N.3    55  LYS55      -0.1314
     19  N         -8.0980   -7.3790   12.4070 N.3    88  VAL88      -0.1245
     20  CA        -8.8310   -6.6220   13.4110 C.3    88  VAL88       0.1561
     21  C         -8.5110   -7.1650   14.7980 C.2    88  VAL88       0.2260
     22  O         -8.6700   -8.3450   15.0760 O.2    88  VAL88      -0.2867
     23  CB       -10.3500   -6.6820   13.1540 C.3    88  VAL88       0.0252
     24  CG1      -11.1010   -5.8830   14.2440 C.3    88  VAL88       0.0019
     25  CG2      -10.6770   -6.1520   11.7490 C.3    88  VAL88       0.0019
     26  N        -15.4940   -6.6590   17.7960 N.3    94  PHE94      -0.1241
     27  CA       -15.0330   -7.4170   16.6250 C.3    94  PHE94       0.1605
     28  C        -14.4910   -8.8050   16.9730 C.2    94  PHE94       0.2264
     29  O        -14.1680   -9.5780   16.0730 O.2    94  PHE94      -0.2867
     30  CB       -13.9870   -6.6210   15.8290 C.3    94  PHE94       0.0534
     31  CG       -14.4990   -5.3100   15.3160 C.ar   94  PHE94      -0.0203
     32  CD1      -14.5960   -4.2140   16.1560 C.ar   94  PHE94      -0.0042
     33  CD2      -14.9180   -5.1760   14.0060 C.ar   94  PHE94      -0.0042
     34  CE1      -15.0880   -3.0210   15.7020 C.ar   94  PHE94      -0.0003
     35  CE2      -15.3990   -3.9740   13.5410 C.ar   94  PHE94      -0.0003
     36  CZ       -15.4850   -2.8890   14.4040 C.ar   94  PHE94      -0.0000
     37  N         -5.7030   -3.4320   12.4490 N.3   115  LYS115     -0.1231
     38  CA        -6.9470   -2.7140   12.3810 C.3   115  LYS115      0.1693
     39  C         -7.4980   -2.6310   13.7880 C.2   115  LYS115      0.2592
     40  O         -7.9450   -3.6050   14.3670 O.2   115  LYS115     -0.2718
     41  CB        -7.9020   -3.4550   11.4560 C.3   115  LYS115      0.0285
     42  CG        -7.9290   -2.9190   10.0550 C.3   115  LYS115      0.0035
     43  CD        -8.9140   -1.8620    9.9080 C.3   115  LYS115      0.0206
     44  CE        -9.0490   -1.3840    8.4810 C.3   115  LYS115      0.1093
     45  NZ       -10.1500   -2.0770    7.7810 N.3   115  LYS115     -0.1314
     46  N         -7.3950   -1.4630   14.3820 N.am  116  ASP116     -0.1960
     47  CA        -7.9270   -1.2910   15.7140 C.3   116  ASP116      0.1840
     48  C         -8.2060    0.1930   15.8450 C.2   116  ASP116      0.2622
     49  O         -8.1440    0.9130   14.8520 O.2   116  ASP116     -0.2715
     50  CB        -6.9280   -1.7970   16.7560 C.3   116  ASP116      0.1450
     51  CG        -7.5940   -2.2530   18.0640 C.2   116  ASP116      0.3671
     52  OD1       -8.5670   -1.5990   18.5250 O.co2 116  ASP116     -0.2456
     53  OD2       -7.1390   -3.2650   18.6530 O.co2 116  ASP116     -0.2456
     54  N         -8.5310    0.6180   17.0570 N.am  117  PHE117     -0.1974
     55  CA        -8.9180    1.9920   17.3290 C.3   117  PHE117      0.1639
     56  C         -7.8190    2.6390   18.1370 C.2   117  PHE117      0.2290
     57  O         -7.8260    2.6130   19.3590 O.2   117  PHE117     -0.2864
     58  CB       -10.2820    1.9940   18.0190 C.3   117  PHE117      0.0560
     59  CG       -11.3490    1.3620   17.1740 C.ar  117  PHE117     -0.0200
     60  CD1      -12.1820    2.1410   16.3980 C.ar  117  PHE117     -0.0042
     61  CD2      -11.4570   -0.0120   17.0910 C.ar  117  PHE117     -0.0042
     62  CE1      -13.1420    1.5770   15.5880 C.ar  117  PHE117     -0.0003
     63  CE2      -12.4100   -0.5920   16.2700 C.ar  117  PHE117     -0.0003
     64  CZ       -13.2540    0.2200   15.5200 C.ar  117  PHE117     -0.0000
     65  N         -3.7810    1.3890   11.3180 N.3   136  LEU136     -0.1245
     66  CA        -4.9370    2.2310   11.0470 C.3   136  LEU136      0.1561
     67  C         -5.0040    3.4080   12.0130 C.2   136  LEU136      0.2260
     68  O         -4.8410    3.2420   13.2160 O.2   136  LEU136     -0.2867
     69  CB        -6.2340    1.4250   11.1980 C.3   136  LEU136      0.0270
     70  CG        -7.4870    2.1330   10.6870 C.3   136  LEU136      0.0019
     71  CD1       -7.4960    2.1680    9.1690 C.3   136  LEU136      0.0001
     72  CD2       -8.7340    1.4330   11.2380 C.3   136  LEU136      0.0001
     73  N         -7.8750    6.5820   12.5980 N.3   138  ILE138     -0.1245
     74  CA        -9.2290    6.9360   12.1570 C.3   138  ILE138      0.1561
     75  C         -9.4960    8.4020   12.4370 C.2   138  ILE138      0.2260
     76  O         -9.5610    8.7980   13.5810 O.2   138  ILE138     -0.2867
     77  CB       -10.2990    6.0970   12.8710 C.3   138  ILE138      0.0252
     78  CG1      -10.0680    4.6110   12.6300 C.3   138  ILE138      0.0019
     79  CG2      -11.6850    6.5120   12.3970 C.3   138  ILE138      0.0019
     80  CD1      -10.8630    3.7020   13.5530 C.3   138  ILE138      0.0001
     81  N         -7.7960    6.7600    7.8780 N.3   164  GLU164     -0.1245
     82  CA        -9.1590    6.4710    7.4020 C.3   164  GLU164      0.1567
     83  C        -10.0660    7.6810    7.5370 C.2   164  GLU164      0.2260
     84  O        -10.1130    8.3240    8.5980 O.2   164  GLU164     -0.2867
     85  CB        -9.7520    5.2800    8.1460 C.3   164  GLU164      0.0388
     86  CG       -11.1820    4.9980    7.7640 C.3   164  GLU164      0.1160
     87  CD       -11.7230    3.7650    8.4280 C.2   164  GLU164      0.3649
     88  OE1      -11.2170    2.6600    8.1350 O.co2 164  GLU164     -0.2457
     89  OE2      -12.6950    3.8880    9.2000 O.co2 164  GLU164     -0.2457
     90  N        -13.5540    4.9460    4.0460 N.3   185  ASN185     -0.1240
     91  CA       -14.4310    3.9200    4.5370 C.3   185  ASN185      0.1653
     92  C        -15.8280    4.2310    4.0550 C.2   185  ASN185      0.2266
     93  O        -16.3670    5.2860    4.3740 O.2   185  ASN185     -0.2867
     94  CB       -14.4060    3.8310    6.0600 C.3   185  ASN185      0.1155
     95  CG       -15.0330    2.5510    6.5820 C.2   185  ASN185      0.2627
     96  OD1      -15.7090    1.8210    5.8440 O.2   185  ASN185     -0.2716
     97  ND2      -14.8150    2.2710    7.8690 N.am  185  ASN185     -0.0877
     98  N        -18.3660    2.7450    5.0180 N.3   187  ARG187     -0.1245
     99  CA       -19.2430    2.6670    6.1730 C.3   187  ARG187      0.1563
    100  C        -19.0410    3.8650    7.0920 C.2   187  ARG187      0.2260
    101  O        -17.9200    4.2160    7.4260 O.2   187  ARG187     -0.2867
    102  CB       -19.0160    1.3930    6.9570 C.3   187  ARG187      0.0307
    103  CG       -20.0220    1.2110    8.0800 C.3   187  ARG187      0.0489
    104  CD       -19.9290   -0.1280    8.7230 C.3   187  ARG187      0.2205
    105  NE       -20.0310   -1.2250    7.7770 N.pl3 187  ARG187     -0.0865
    106  CZ       -21.1440   -1.8590    7.4300 C.cat 187  ARG187      0.5346
    107  NH1      -22.3410   -1.5110    7.9260 N.pl3 187  ARG187      0.1354
    108  NH2      -21.0520   -2.8640    6.5650 N.pl3 187  ARG187      0.1354
    109  N        -18.8170    5.1520   10.5120 N.3   189  LEU189     -0.1245
    110  CA       -18.5760    4.5110   11.8110 C.3   189  LEU189      0.1561
    111  C        -19.4730    5.0280   12.9380 C.2   189  LEU189      0.2260
    112  O        -19.5370    4.4070   14.0000 O.2   189  LEU189     -0.2867
    113  CB       -17.1050    4.6190   12.2410 C.3   189  LEU189      0.0270
    114  CG       -16.0860    3.9880   11.2790 C.3   189  LEU189      0.0019
    115  CD1      -14.7430    3.7440   11.9710 C.3   189  LEU189      0.0001
    116  CD2      -16.6240    2.6900   10.6330 C.3   189  LEU189      0.0001
    117  N        -12.2340    1.1740    1.2940 N.3   215  GLU215     -0.1231
    118  CA       -12.5600    0.1730    2.2810 C.3   215  GLU215      0.1699
    119  C        -14.0470   -0.0360    2.3630 C.2   215  GLU215      0.2593
    120  O        -14.8140    0.9120    2.2500 O.2   215  GLU215     -0.2718
    121  CB       -12.1190    0.6030    3.6630 C.3   215  GLU215      0.0402
    122  CG       -10.6860    0.9690    3.8490 C.3   215  GLU215      0.1161
    123  CD       -10.4060    1.2320    5.3150 C.2   215  GLU215      0.3649
    124  OE1      -10.1440    0.2590    6.0610 O.co2 215  GLU215     -0.2457
    125  OE2      -10.5220    2.3990    5.7420 O.co2 215  GLU215     -0.2457
    126  N        -14.4200   -1.2870    2.5970 N.am  216  SER216     -0.1938
    127  CA       -15.7630   -1.7160    2.9810 C.3   216  SER216      0.2055
    128  C        -16.7620   -1.8900    1.8480 C.2   216  SER216      0.2644
    129  O        -16.6880   -1.2570    0.8050 O.2   216  SER216     -0.2714
    130  CB       -16.3830   -0.8050    4.0440 C.3   216  SER216      0.2130
    131  OG       -15.5820   -0.7830    5.1980 O.3   216  SER216     -0.2179
    132  N        -17.6820   -2.8130    2.0920 N.am  217  GLY217     -0.1939
    133  CA       -18.7960   -3.0510    1.2040 C.3   217  GLY217      0.2014
    134  C        -18.5830   -3.8840   -0.0500 C.2   217  GLY217      0.2638
    135  O        -19.5340   -4.0640   -0.8260 O.2   217  GLY217     -0.2714
    136  N        -17.3770   -4.3890   -0.2820 N.am  218  VAL218     -0.1977
    137  CA       -17.0610   -5.1200   -1.5150 C.3   218  VAL218      0.1596
    138  C        -17.6370   -6.5380   -1.4800 C.2   218  VAL218      0.2287
    139  O        -17.2120   -7.3640   -0.6740 O.2   218  VAL218     -0.2864
    140  CB       -15.5340   -5.1710   -1.7430 C.3   218  VAL218      0.0276
    141  CG1      -15.1910   -6.0670   -2.9420 C.3   218  VAL218      0.0022
    142  CG2      -14.9860   -3.7460   -1.9050 C.3   218  VAL218      0.0022
    143  N         -9.9540   -2.8420    0.2500 N.3   236  LEU236     -0.1231
    144  CA        -9.8580   -3.6160    1.4800 C.3   236  LEU236      0.1693
    145  C        -11.2000   -4.3030    1.7220 C.2   236  LEU236      0.2592
    146  O        -12.2650   -3.6610    1.7110 O.2   236  LEU236     -0.2718
    147  CB        -9.4670   -2.6910    2.6310 C.3   236  LEU236      0.0284
    148  CG        -9.0660   -3.3220    3.9550 C.3   236  LEU236      0.0019
    149  CD1       -8.1830   -2.3910    4.7670 C.3   236  LEU236      0.0001
    150  CD2      -10.3180   -3.6690    4.7280 C.3   236  LEU236      0.0001
    151  N        -11.1350   -5.6140    1.9260 N.am  237  VAL237     -0.1966
    152  CA       -12.3230   -6.4740    1.9330 C.3   237  VAL237      0.1727
    153  C        -12.2820   -7.4020    3.1380 C.2   237  VAL237      0.2617
    154  O        -11.2760   -8.0310    3.3810 O.2   237  VAL237     -0.2715
    155  CB       -12.3790   -7.3290    0.6430 C.3   237  VAL237      0.0290
    156  CG1      -13.6760   -8.1320    0.6010 C.3   237  VAL237      0.0023
    157  CG2      -12.2620   -6.4660   -0.5910 C.3   237  VAL237      0.0023
    158  N        -13.3760   -7.4590    3.8990 N.am  238  GLY238     -0.1940
    159  CA       -13.4850   -8.3130    5.0820 C.3   238  GLY238      0.2014
    160  C        -14.6070   -9.3240    4.9870 C.2   238  GLY238      0.2638
    161  O        -14.3670  -10.5130    4.7550 O.2   238  GLY238     -0.2714
    162  N        -15.8380   -8.8550    5.1500 N.am  239  GLU239     -0.1977
    163  CA       -16.9940   -9.7450    5.2940 C.3   239  GLU239      0.1602
    164  C        -17.1070  -10.8230    4.2180 C.2   239  GLU239      0.2287
    165  O        -17.3230  -11.9950    4.5360 O.2   239  GLU239     -0.2864
    166  CB       -18.2730   -8.9110    5.3270 C.3   239  GLU239      0.0415
    167  CG       -19.5500   -9.7330    5.4470 C.3   239  GLU239      0.1163
    168  CD       -20.7520   -8.9230    5.8960 C.2   239  GLU239      0.3649
    169  OE1      -20.5990   -7.7490    6.2850 O.co2 239  GLU239     -0.2457
    170  OE2      -21.8610   -9.4960    5.8840 O.co2 239  GLU239     -0.2457
@<TRIPOS>BOND
     1   141   140    1
     2   142   140    1
     3   140   137    1
     4   137   138    1
     5   137   136    1
     6   138   139    2
     7   135   134    2
     8   157   155    1
     9   136   134   am
    10   134   133    1
    11   143   144    1
    12   156   155    1
    13   155   152    1
    14   129   128    2
    15   133   132    1
    16   117   118    1
    17   144   145    1
    18   144   147    1
    19   146   145    2
    20   145   151   am
    21   128   132   am
    22   128   127    1
    23   151   152    1
    24   152   153    1
    25   120   119    2
    26   118   119    1
    27   118   121    1
    28   119   126   am
    29   126   127    1
    30   147   148    1
    31   127   130    1
    32   153   154    2
    33   153   158   am
    34   121   122    1
    35   122   123    1
    36   158   159    1
    37   148   150    1
    38   148   149    1
    39   130   131    1
    40    90    91    1
    41    92    93    2
    42    92    91    1
    43   164   165    2
    44   164   163    1
    45    91    94    1
    46   161   160    2
    47     1     2    1
    48   160   159    1
    49   160   162   am
    50    98    99    1
    51   162   163    1
    52   163   166    1
    53   123   125   ar
    54   123   124   ar
    55   166   167    1
    56   167   168    1
    57    96    95    2
    58   170   168   ar
    59   168   169   ar
    60    94    95    1
    61    99   102    1
    62    99   100    1
    63     2     5    1
    64     2     3    1
    65   108   106    1
    66    95    97   am
    67     5     6    1
    68     4     3    2
    69   102   103    1
    70   100   101    2
    71    82    83    1
    72    82    81    1
    73    82    85    1
    74   106   105    2
    75   106   107    1
    76    83    84    2
    77    86    85    1
    78    86    87    1
    79   105   104    1
    80    45    44    1
    81     9     7   ar
    82     6     7    1
    83   103   104    1
    84    88    87   ar
    85     7     8   ar
    86    87    89   ar
    87    44    43    1
    88    18    17    1
    89    17    16    1
    90    71    70    1
    91    43    42    1
    92    42    41    1
    93    10    11    1
    94    14    15    1
    95    14    11    1
    96    16    15    1
    97   109   110    1
    98    13    12    2
    99   116   114    1
   100    70    69    1
   101    70    72    1
   102    66    69    1
   103    66    65    1
   104    66    67    1
   105    11    12    1
   106   114   115    1
   107   114   113    1
   108    41    38    1
   109    25    23    1
   110   110   113    1
   111   110   111    1
   112    67    68    2
   113    74    75    1
   114    74    73    1
   115    74    77    1
   116    38    37    1
   117    38    39    1
   118    79    77    1
   119    19    20    1
   120    75    76    2
   121    78    77    1
   122    78    80    1
   123   111   112    2
   124    23    20    1
   125    23    24    1
   126    20    21    1
   127    35    33   ar
   128    35    36   ar
   129    39    40    2
   130    39    46   am
   131    33    31   ar
   132    46    47    1
   133    36    34   ar
   134    21    22    2
   135    49    48    2
   136    31    30    1
   137    31    32   ar
   138    64    62   ar
   139    64    63   ar
   140    62    60   ar
   141    34    32   ar
   142    47    48    1
   143    47    50    1
   144    30    27    1
   145    48    54   am
   146    29    28    2
   147    63    61   ar
   148    60    59   ar
   149    27    28    1
   150    27    26    1
   151    50    51    1
   152    54    55    1
   153    61    59   ar
   154    59    58    1
   155    55    58    1
   156    55    56    1
   157    51    52   ar
   158    51    53   ar
   159    56    57    2
