@<TRIPOS>MOLECULE
tmp/3t45C02.pdb
 122 115 0 0 0
SMALL
GASTEIGER

@<TRIPOS>ATOM
      1  N        -30.6290   -6.9560    9.0660 N.3    61  THR61      -0.1203
      2  CA       -30.6020   -8.0670    8.1050 C.3    61  THR61       0.1994
      3  C        -31.8840   -8.1360    7.2340 C.2    61  THR61       0.2618
      4  O        -32.9140   -7.5630    7.6100 O.2    61  THR61      -0.2717
      5  CB       -30.2960   -9.4030    8.8220 C.3    61  THR61       0.1784
      6  OG1      -30.2020  -10.4600    7.8550 O.3    61  THR61      -0.2211
      7  CG2      -31.3670   -9.7210    9.8420 C.3    61  THR61       0.0376
      8  N        -31.8040   -8.8060    6.0750 N.am   62  MET62      -0.1965
      9  CA       -32.9760   -9.0250    5.1760 C.3    62  MET62       0.1736
     10  C        -33.6680  -10.4130    5.2580 C.2    62  MET62       0.2616
     11  O        -33.1900  -11.3890    4.6810 O.2    62  MET62      -0.2715
     12  CB       -32.6130   -8.7470    3.7100 C.3    62  MET62       0.0427
     13  CG       -32.4140   -7.2830    3.3710 C.3    62  MET62       0.0599
     14  SD       -33.7050   -6.2100    4.0420 S.3    62  MET62      -0.1393
     15  CE       -32.7590   -4.7950    4.6210 C.3    62  MET62       0.0692
     16  N        -34.8060  -10.4970    5.9450 N.am   63  VAL63      -0.1964
     17  CA       -35.5190  -11.7730    6.0860 C.3    63  VAL63       0.1712
     18  C        -36.6600  -11.8390    5.0740 C.2    63  VAL63       0.2458
     19  O        -37.4890  -10.9330    5.0420 O.2    63  VAL63      -0.2730
     20  CB       -36.0530  -11.9750    7.5240 C.3    63  VAL63       0.0289
     21  CG1      -36.9470  -13.2030    7.6140 C.3    63  VAL63       0.0023
     22  CG2      -34.8950  -12.0950    8.5050 C.3    63  VAL63       0.0023
     23  N        -36.6960  -12.8940    4.2260 N.am   64  PRO64      -0.2727
     24  CA       -37.7980  -13.0090    3.2690 C.3    64  PRO64       0.1402
     25  C        -39.0010  -13.7290    3.8620 C.2    64  PRO64       0.2269
     26  O        -38.8640  -14.8570    4.3350 O.2    64  PRO64      -0.2865
     27  CB       -37.1930  -13.8120    2.1150 C.3    64  PRO64       0.0296
     28  CG       -36.1490  -14.6450    2.7650 C.3    64  PRO64       0.0237
     29  CD       -35.6580  -13.9130    3.9860 C.3    64  PRO64       0.0939
     30  N        -32.0220   -7.4010   13.8860 N.3    74  TRP74      -0.1241
     31  CA       -31.8270   -8.5480   14.7420 C.3    74  TRP74       0.1605
     32  C        -31.1520   -8.1650   16.0490 C.2    74  TRP74       0.2264
     33  O        -31.3870   -8.7840   17.1020 O.2    74  TRP74      -0.2867
     34  CB       -31.1010   -9.6570   13.9800 C.3    74  TRP74       0.0550
     35  CG       -29.6830   -9.3140   13.6520 C.ar   74  TRP74       0.0003
     36  CD1      -29.1580   -8.9410   12.4310 C.ar   74  TRP74       0.0946
     37  CD2      -28.5510   -9.2900   14.5790 C.ar   74  TRP74       0.0152
     38  NE1      -27.8180   -8.6870   12.5370 N.ar   74  TRP74      -0.2442
     39  CE2      -27.3960   -8.8800   13.7980 C.ar   74  TRP74       0.0810
     40  CE3      -28.3930   -9.5590   15.9360 C.ar   74  TRP74       0.0012
     41  CZ2      -26.1410   -8.7590   14.3640 C.ar   74  TRP74       0.0191
     42  CZ3      -27.1310   -9.4220   16.4920 C.ar   74  TRP74       0.0001
     43  CH2      -26.0290   -9.0350   15.7270 C.ar   74  TRP74       0.0015
     44  N        -30.4160   -9.4610   20.2680 N.3    78  ALA78      -0.1245
     45  CA       -29.1040   -9.5890   20.8970 C.3    78  ALA78       0.1562
     46  C        -29.0070   -8.6740   22.1200 C.2    78  ALA78       0.2260
     47  O        -28.4520   -9.0390   23.1490 O.2    78  ALA78      -0.2867
     48  CB       -28.0440   -9.2240   19.9040 C.3    78  ALA78       0.0290
     49  N        -31.9120   -9.8920   24.8280 N.3    81  LEU81      -0.1245
     50  CA       -31.3710  -11.1240   25.4040 C.3    81  LEU81       0.1561
     51  C        -30.6850  -10.9050   26.7720 C.2    81  LEU81       0.2260
     52  O        -30.9020  -11.6680   27.7070 O.2    81  LEU81      -0.2867
     53  CB       -30.3980  -11.8040   24.4350 C.3    81  LEU81       0.0270
     54  CG       -29.9810  -13.2050   24.8890 C.3    81  LEU81       0.0019
     55  CD1      -31.1980  -14.1160   24.9600 C.3    81  LEU81       0.0001
     56  CD2      -28.9000  -13.8000   24.0100 C.3    81  LEU81       0.0001
     57  N        -35.7050  -15.4540   34.6410 N.3   106  VAL106     -0.1231
     58  CA       -34.6150  -15.4060   33.6660 C.3   106  VAL106      0.1692
     59  C        -34.8530  -16.4380   32.5410 C.2   106  VAL106      0.2592
     60  O        -34.8370  -16.1020   31.3390 O.2   106  VAL106     -0.2718
     61  CB       -33.2570  -15.5700   34.3770 C.3   106  VAL106      0.0266
     62  CG1      -32.1210  -15.7840   33.3980 C.3   106  VAL106      0.0020
     63  CG2      -32.9720  -14.3330   35.2130 C.3   106  VAL106      0.0020
     64  N        -35.1130  -17.6790   32.9540 N.am  107  GLY107     -0.1957
     65  CA       -35.5560  -18.7320   32.0430 C.3   107  GLY107      0.1869
     66  C        -36.7140  -18.3210   31.1570 C.2   107  GLY107      0.2309
     67  O        -36.6510  -18.4920   29.9400 O.2   107  GLY107     -0.2863
     68  N        -35.4690  -15.4670   28.8960 N.3   110  GLY110     -0.1210
     69  CA       -34.7080  -16.1450   27.8600 C.3   110  GLY110      0.1956
     70  C        -35.6180  -16.6230   26.7590 C.2   110  GLY110      0.2611
     71  O        -35.4810  -16.1840   25.6100 O.2   110  GLY110     -0.2717
     72  N        -36.5720  -17.4910   27.1150 N.am  111  ILE111     -0.1979
     73  CA       -37.5060  -18.0770   26.1190 C.3   111  ILE111      0.1595
     74  C        -38.2830  -17.0190   25.3320 C.2   111  ILE111      0.2287
     75  O        -38.5120  -17.1910   24.1220 O.2   111  ILE111     -0.2864
     76  CB       -38.5620  -19.0460   26.7160 C.3   111  ILE111      0.0276
     77  CG1      -37.9350  -20.0190   27.7160 C.3   111  ILE111      0.0022
     78  CG2      -39.3180  -19.7470   25.5750 C.3   111  ILE111      0.0022
     79  CD1      -38.9520  -20.8040   28.5140 C.3   111  ILE111      0.0001
     80  N        -35.7670  -15.5160   23.1280 N.3   114  GLY114     -0.1210
     81  CA       -35.3680  -16.6600   22.3340 C.3   114  GLY114      0.1956
     82  C        -36.3070  -16.8520   21.1770 C.2   114  GLY114      0.2612
     83  O        -35.8930  -16.7500   20.0150 O.2   114  GLY114     -0.2717
     84  N        -37.5750  -17.1030   21.5000 N.am  115  THR115     -0.1952
     85  CA       -38.6320  -17.2910   20.4950 C.3   115  THR115      0.1897
     86  C        -38.8800  -16.0460   19.6210 C.2   115  THR115      0.2313
     87  O        -39.0780  -16.1610   18.4110 O.2   115  THR115     -0.2863
     88  CB       -39.9460  -17.6410   21.1790 C.3   115  THR115      0.1794
     89  OG1      -40.0440  -16.8530   22.3630 O.3   115  THR115     -0.2208
     90  CG2      -39.9740  -19.0900   21.5520 C.3   115  THR115      0.0378
     91  N        -36.7280  -13.8040   18.7470 N.3   117  LEU117     -0.1231
     92  CA       -35.7020  -13.8610   17.7040 C.3   117  LEU117      0.1693
     93  C        -36.0300  -14.9030   16.6170 C.2   117  LEU117      0.2591
     94  O        -36.0650  -14.5770   15.4040 O.2   117  LEU117     -0.2718
     95  CB       -34.3040  -14.0870   18.2940 C.3   117  LEU117      0.0284
     96  CG       -33.1450  -14.2860   17.3020 C.3   117  LEU117      0.0019
     97  CD1      -33.1500  -13.2950   16.1230 C.3   117  LEU117      0.0001
     98  CD2      -31.8410  -14.2470   18.0770 C.3   117  LEU117      0.0001
     99  N        -36.2870  -16.1400   17.0500 N.am  118  VAL118     -0.1980
    100  CA       -36.7000  -17.1710   16.1120 C.3   118  VAL118      0.1595
    101  C        -37.8360  -16.6470   15.1990 C.2   118  VAL118      0.2287
    102  O        -37.7290  -16.6960   13.9690 O.2   118  VAL118     -0.2864
    103  CB       -37.0920  -18.4690   16.8430 C.3   118  VAL118      0.0276
    104  CG1      -37.4790  -19.5420   15.8440 C.3   118  VAL118      0.0022
    105  CG2      -35.9340  -18.9690   17.6840 C.3   118  VAL118      0.0022
    106  N        -36.8400  -13.9840   12.4110 N.3   121  LEU121     -0.1245
    107  CA       -36.0950  -14.4740   11.2460 C.3   121  LEU121      0.1561
    108  C        -36.7740  -15.6280   10.4950 C.2   121  LEU121      0.2260
    109  O        -36.1980  -16.1570    9.5220 O.2   121  LEU121     -0.2867
    110  CB       -34.6850  -14.9060   11.6480 C.3   121  LEU121      0.0270
    111  CG       -33.8400  -14.0090   12.5330 C.3   121  LEU121      0.0019
    112  CD1      -32.5780  -14.7680   12.9160 C.3   121  LEU121      0.0001
    113  CD2      -33.5020  -12.6910   11.8490 C.3   121  LEU121      0.0001
    114  N        -38.9860  -17.4450    7.8850 N.3   123  LYS123     -0.1245
    115  CA       -39.3690  -17.1960    6.4950 C.3   123  LYS123      0.1561
    116  C        -40.8330  -17.4840    6.1000 C.2   123  LYS123      0.2260
    117  O        -41.2910  -16.9990    5.0710 O.2   123  LYS123     -0.2867
    118  CB       -38.3990  -17.9710    5.6070 C.3   123  LYS123      0.0271
    119  CG       -36.9680  -17.5990    5.9480 C.3   123  LYS123      0.0035
    120  CD       -35.9580  -18.6770    5.6230 C.3   123  LYS123      0.0206
    121  CE       -34.5750  -18.0490    5.5170 C.3   123  LYS123      0.1093
    122  NZ       -33.4790  -19.0230    5.7740 N.3   123  LYS123     -0.1314
@<TRIPOS>BOND
     1    27    28    1
     2    27    24    1
     3    28    29    1
     4    24    25    1
     5    24    23    1
     6    13    12    1
     7    13    14    1
     8    12     9    1
     9    25    26    2
    10    29    23    1
    11    14    15    1
    12    23    18   am
    13    11    10    2
    14    19    18    2
    15   117   116    2
    16    18    17    1
    17     9    10    1
    18     9     8    1
    19    10    16   am
    20   121   120    1
    21   121   122    1
    22   118   119    1
    23   118   115    1
    24   120   119    1
    25    16    17    1
    26     8     3   am
    27    17    20    1
    28   116   115    1
    29   115   114    1
    30     3     4    2
    31     3     2    1
    32    20    21    1
    33    20    22    1
    34     6     5    1
    35     2     5    1
    36     2     1    1
    37     5     7    1
    38   109   108    2
    39   108   107    1
    40   107   110    1
    41   107   106    1
    42   110   111    1
    43   113   111    1
    44    36    38   ar
    45    36    35   ar
    46   111   112    1
    47    38    39   ar
    48    35    34    1
    49    35    37   ar
    50    39    41   ar
    51    39    37   ar
    52    30    31    1
    53   102   101    2
    54    34    31    1
    55    41    43   ar
    56    37    40   ar
    57    31    32    1
    58   101   100    1
    59    94    93    2
    60    43    42   ar
    61   104   103    1
    62    40    42   ar
    63    32    33    2
    64   100   103    1
    65   100    99    1
    66    97    96    1
    67    93    99   am
    68    93    92    1
    69   103   105    1
    70    96    98    1
    71    96    95    1
    72    92    95    1
    73    92    91    1
    74    87    86    2
    75    86    85    1
    76    48    45    1
    77    83    82    2
    78    44    45    1
    79    85    88    1
    80    85    84    1
    81    45    46    1
    82    82    84   am
    83    82    81    1
    84    88    90    1
    85    88    89    1
    86    46    47    2
    87    81    80    1
    88    56    54    1
    89    75    74    2
    90    53    54    1
    91    53    50    1
    92    49    50    1
    93    54    55    1
    94    74    73    1
    95    50    51    1
    96    78    76    1
    97    71    70    2
    98    73    76    1
    99    73    72    1
   100    76    77    1
   101    70    72   am
   102    70    69    1
   103    51    52    2
   104    77    79    1
   105    69    68    1
   106    67    66    2
   107    66    65    1
   108    60    59    2
   109    65    64    1
   110    59    64   am
   111    59    58    1
   112    62    61    1
   113    58    61    1
   114    58    57    1
   115    61    63    1
