@<TRIPOS>MOLECULE
tmp/3t45B04.pdb
 91 85 0 0 0
SMALL
GASTEIGER

@<TRIPOS>ATOM
      1  N        -44.1990  -29.5570   29.9620 N.3    18  THR18      -0.1203
      2  CA       -44.0520  -28.2100   30.5120 C.3    18  THR18       0.1994
      3  C        -45.3020  -27.8250   31.3230 C.2    18  THR18       0.2617
      4  O        -45.2060  -27.4470   32.5050 O.2    18  THR18      -0.2717
      5  CB       -43.7870  -27.1520   29.4190 C.3    18  THR18       0.1784
      6  OG1      -42.8420  -27.6560   28.4670 O.3    18  THR18      -0.2211
      7  CG2      -43.2350  -25.9030   30.0410 C.3    18  THR18       0.0376
      8  N        -46.4660  -27.9470   30.6850 N.am   19  LEU19      -0.1979
      9  CA       -47.7180  -27.5070   31.2760 C.3    19  LEU19       0.1596
     10  C        -48.0170  -28.2520   32.5550 C.2    19  LEU19       0.2287
     11  O        -48.3920  -27.6340   33.5400 O.2    19  LEU19      -0.2864
     12  CB       -48.8730  -27.6900   30.3060 C.3    19  LEU19       0.0297
     13  CG       -48.8900  -27.0030   28.9450 C.3    19  LEU19       0.0022
     14  CD1      -50.3030  -27.1010   28.4450 C.3    19  LEU19       0.0001
     15  CD2      -48.4920  -25.5410   28.9830 C.3    19  LEU19       0.0001
     16  N        -45.8480  -29.6730   34.5780 N.3    21  PHE21      -0.1227
     17  CA       -44.8600  -29.1730   35.5310 C.3    21  PHE21       0.1736
     18  C        -45.2070  -27.7790   36.0180 C.2    21  PHE21       0.2595
     19  O        -44.9880  -27.4670   37.1800 O.2    21  PHE21      -0.2718
     20  CB       -43.4550  -29.1660   34.9130 C.3    21  PHE21       0.0547
     21  CG       -42.8510  -30.5390   34.7310 C.ar   21  PHE21      -0.0202
     22  CD1      -42.9600  -31.5130   35.7320 C.ar   21  PHE21      -0.0042
     23  CD2      -42.1360  -30.8460   33.5790 C.ar   21  PHE21      -0.0042
     24  CE1      -42.3850  -32.7680   35.5710 C.ar   21  PHE21      -0.0003
     25  CE2      -41.5620  -32.1000   33.4070 C.ar   21  PHE21      -0.0003
     26  CZ       -41.6850  -33.0600   34.4020 C.ar   21  PHE21      -0.0000
     27  N        -45.7470  -26.9550   35.1170 N.am   22  LEU22      -0.1980
     28  CA       -46.1800  -25.5880   35.4260 C.3    22  LEU22       0.1596
     29  C        -47.3660  -25.5860   36.3790 C.2    22  LEU22       0.2287
     30  O        -47.3510  -24.8690   37.3640 O.2    22  LEU22      -0.2864
     31  CB       -46.5310  -24.8440   34.1360 C.3    22  LEU22       0.0297
     32  CG       -46.4820  -23.3180   34.0310 C.3    22  LEU22       0.0022
     33  CD1      -45.1630  -22.7630   34.5320 C.3    22  LEU22       0.0001
     34  CD2      -46.7070  -22.9090   32.5730 C.3    22  LEU22       0.0001
     35  N        -46.6140  -27.1490   39.7840 N.3    25  GLY25      -0.1225
     36  CA       -45.7410  -26.1840   40.4560 C.3    25  GLY25       0.1811
     37  C        -46.4610  -25.0270   41.1250 C.2    25  GLY25       0.2280
     38  O        -45.8570  -24.2810   41.8860 O.2    25  GLY25      -0.2866
     39  N        -46.4970  -23.9120   45.4830 N.3    28  VAL28      -0.1245
     40  CA       -45.2970  -24.4700   46.0990 C.3    28  VAL28       0.1561
     41  C        -44.4530  -23.2900   46.5820 C.2    28  VAL28       0.2260
     42  O        -43.8030  -22.6040   45.7900 O.2    28  VAL28      -0.2867
     43  CB       -44.4920  -25.3600   45.1220 C.3    28  VAL28       0.0252
     44  CG1      -43.2300  -25.8770   45.7940 C.3    28  VAL28       0.0019
     45  CG2      -45.3300  -26.5330   44.6170 C.3    28  VAL28       0.0019
     46  N        -39.0620  -24.6650   45.1780 N.3    34  LYS34      -0.1245
     47  CA       -39.1230  -23.6740   44.0960 C.3    34  LYS34       0.1561
     48  C        -37.9820  -23.9090   43.1330 C.2    34  LYS34       0.2260
     49  O        -38.2410  -24.3320   42.0030 O.2    34  LYS34      -0.2867
     50  CB       -39.1460  -22.2310   44.5980 C.3    34  LYS34       0.0271
     51  CG       -40.5560  -21.7000   44.7280 C.3    34  LYS34       0.0035
     52  CD       -40.6310  -20.2120   44.4530 C.3    34  LYS34       0.0206
     53  CE       -42.0850  -19.7810   44.2670 C.3    34  LYS34       0.1093
     54  NZ       -42.3480  -18.3320   44.5340 N.3    34  LYS34      -0.1314
     55  N        -38.4990  -27.1050   40.9530 N.3    37  TYR37      -0.1227
     56  CA       -39.6130  -26.9040   40.0450 C.3    37  TYR37       0.1736
     57  C        -39.2440  -25.9580   38.9010 C.2    37  TYR37       0.2595
     58  O        -39.5880  -26.2020   37.7500 O.2    37  TYR37      -0.2718
     59  CB       -40.8340  -26.3960   40.8180 C.3    37  TYR37       0.0548
     60  CG       -41.7430  -27.4990   41.3320 C.ar   37  TYR37      -0.0200
     61  CD1      -42.5860  -28.1920   40.4640 C.ar   37  TYR37      -0.0009
     62  CD2      -41.7710  -27.8380   42.6890 C.ar   37  TYR37      -0.0009
     63  CE1      -43.4190  -29.1940   40.9210 C.ar   37  TYR37       0.0417
     64  CE2      -42.6050  -28.8430   43.1580 C.ar   37  TYR37       0.0417
     65  CZ       -43.4250  -29.5180   42.2670 C.ar   37  TYR37       0.1957
     66  OH       -44.2600  -30.5240   42.7070 O.3    37  TYR37      -0.2866
     67  N        -38.5110  -24.9060   39.2350 N.am   38  ALA38      -0.1980
     68  CA       -38.1110  -23.8870   38.2840 C.3    38  ALA38       0.1597
     69  C        -37.2740  -24.4630   37.1200 C.2    38  ALA38       0.2287
     70  O        -37.5450  -24.2300   35.9250 O.2    38  ALA38      -0.2864
     71  CB       -37.3360  -22.7910   39.0200 C.3    38  ALA38       0.0319
     72  N        -38.9150  -27.2710   34.9830 N.3    41  THR41      -0.1203
     73  CA       -39.9130  -26.8240   34.0070 C.3    41  THR41       0.1994
     74  C        -39.2320  -26.1620   32.7780 C.2    41  THR41       0.2617
     75  O        -39.7470  -26.2120   31.6270 O.2    41  THR41      -0.2717
     76  CB       -41.0280  -25.9310   34.6260 C.3    41  THR41       0.1784
     77  OG1      -41.4550  -26.4630   35.8810 O.3    41  THR41      -0.2211
     78  CG2      -42.2490  -25.8780   33.7130 C.3    41  THR41       0.0376
     79  N        -38.0690  -25.5530   33.0280 N.am   42  LEU42      -0.1979
     80  CA       -37.3330  -24.8980   31.9700 C.3    42  LEU42       0.1596
     81  C        -36.9380  -25.8840   30.9090 C.2    42  LEU42       0.2287
     82  O        -37.2250  -25.6730   29.7190 O.2    42  LEU42      -0.2864
     83  CB       -36.1080  -24.2170   32.5020 C.3    42  LEU42       0.0297
     84  CG       -36.3640  -22.7740   32.8910 C.3    42  LEU42       0.0022
     85  CD1      -35.0410  -22.0290   32.7540 C.3    42  LEU42       0.0001
     86  CD2      -37.4320  -22.1090   32.0270 C.3    42  LEU42       0.0001
     87  N        -39.7450  -26.7290   28.5110 N.3    45  ALA45      -0.1245
     88  CA       -40.1390  -25.5090   27.7990 C.3    45  ALA45       0.1562
     89  C        -39.1540  -25.2250   26.6690 C.2    45  ALA45       0.2260
     90  O        -39.5360  -25.0260   25.5060 O.2    45  ALA45      -0.2867
     91  CB       -40.1820  -24.3280   28.7630 C.3    45  ALA45       0.0290
@<TRIPOS>BOND
     1    90    89    2
     2    89    88    1
     3    88    87    1
     4    88    91    1
     5    14    13    1
     6     6     5    1
     7    13    15    1
     8    13    12    1
     9     5     7    1
    10     5     2    1
    11    82    81    2
    12     1     2    1
    13    12     9    1
    14     2     3    1
    15     8     9    1
    16     8     3   am
    17    81    80    1
    18     9    10    1
    19     3     4    2
    20    75    74    2
    21    80    83    1
    22    80    79    1
    23    86    84    1
    24    83    84    1
    25    10    11    2
    26    34    32    1
    27    85    84    1
    28    74    79   am
    29    74    73    1
    30    25    23   ar
    31    25    26   ar
    32    23    21   ar
    33    78    76    1
    34    73    76    1
    35    73    72    1
    36    32    31    1
    37    32    33    1
    38    31    28    1
    39    26    24   ar
    40    16    17    1
    41    76    77    1
    42    21    20    1
    43    21    22   ar
    44    20    17    1
    45    27    28    1
    46    27    18   am
    47    28    29    1
    48    17    18    1
    49    24    22   ar
    50    70    69    2
    51    18    19    2
    52    29    30    2
    53    69    68    1
    54    58    57    2
    55    68    71    1
    56    68    67    1
    57    57    67   am
    58    57    56    1
    59    35    36    1
    60    56    59    1
    61    56    55    1
    62    36    37    1
    63    61    63   ar
    64    61    60   ar
    65    59    60    1
    66    63    65   ar
    67    37    38    2
    68    60    62   ar
    69    49    48    2
    70    65    66    1
    71    65    64   ar
    72    62    64   ar
    73    48    47    1
    74    47    50    1
    75    47    46    1
    76    53    52    1
    77    53    54    1
    78    52    51    1
    79    50    51    1
    80    45    43    1
    81    43    44    1
    82    43    40    1
    83    39    40    1
    84    42    41    2
    85    40    41    1
