@<TRIPOS>MOLECULE
tmp/3t45A04.pdb
 82 76 0 0 0
SMALL
GASTEIGER

@<TRIPOS>ATOM
      1  N        -21.5970   -7.5490   43.5800 N.3   100  GLY100     -0.1210
      2  CA       -21.6190   -6.3680   42.7210 C.3   100  GLY100      0.1956
      3  C        -20.4430   -6.2760   41.7640 C.2   100  GLY100      0.2612
      4  O        -20.5990   -6.5070   40.5490 O.2   100  GLY100     -0.2717
      5  N        -19.2620   -5.9650   42.3000 N.am  101  THR101     -0.1952
      6  CA       -18.0500   -5.7310   41.4750 C.3   101  THR101      0.1897
      7  C        -17.8120   -6.7760   40.3850 C.2   101  THR101      0.2313
      8  O        -17.4040   -6.4230   39.2830 O.2   101  THR101     -0.2863
      9  CB       -16.7590   -5.5460   42.3190 C.3   101  THR101      0.1794
     10  OG1      -16.8700   -6.2830   43.5370 O.3   101  THR101     -0.2208
     11  CG2      -16.5290   -4.0760   42.6610 C.3   101  THR101      0.0378
     12  N        -20.1130   -6.4500   37.5690 N.3   104  ALA104     -0.1245
     13  CA       -19.6020   -5.2720   36.8740 C.3   104  ALA104      0.1562
     14  C        -18.5650   -5.6370   35.8100 C.2   104  ALA104      0.2260
     15  O        -18.7220   -5.3060   34.6380 O.2   104  ALA104     -0.2867
     16  CB       -19.0150   -4.2940   37.8850 C.3   104  ALA104      0.0290
     17  N        -19.8240   -8.0940   33.0230 N.3   107  GLY107     -0.1210
     18  CA       -20.5130   -7.1620   32.1220 C.3   107  GLY107      0.1956
     19  C        -19.5790   -6.4200   31.1800 C.2   107  GLY107      0.2611
     20  O        -19.7540   -6.4570   29.9570 O.2   107  GLY107     -0.2717
     21  N        -18.5670   -5.7740   31.7530 N.am  108  ALA108     -0.1979
     22  CA       -17.5510   -5.0530   30.9800 C.3   108  ALA108      0.1597
     23  C        -16.7920   -5.9730   30.0310 C.2   108  ALA108      0.2287
     24  O        -16.5610   -5.6220   28.8600 O.2   108  ALA108     -0.2864
     25  CB       -16.5790   -4.3450   31.9020 C.3   108  ALA108      0.0319
     26  N        -18.9960   -6.9960   27.1150 N.3   111  ILE111     -0.1245
     27  CA       -19.0140   -5.8920   26.1140 C.3   111  ILE111      0.1561
     28  C        -17.7170   -5.8000   25.3160 C.2   111  ILE111      0.2260
     29  O        -17.7390   -5.5530   24.1060 O.2   111  ILE111     -0.2867
     30  CB       -19.2740   -4.5030   26.7260 C.3   111  ILE111      0.0252
     31  CG1      -20.5470   -4.5290   27.5620 C.3   111  ILE111      0.0019
     32  CG2      -19.3110   -3.4500   25.6210 C.3   111  ILE111      0.0019
     33  CD1      -20.7480   -3.2740   28.3700 C.3   111  ILE111      0.0001
     34  N        -14.3850    1.2910   21.3460 N.3   134  ILE134     -0.1245
     35  CA       -15.3640    1.0180   22.3990 C.3   134  ILE134      0.1561
     36  C        -14.8920   -0.1430   23.3060 C.2   134  ILE134      0.2260
     37  O        -14.9440   -0.0560   24.5370 O.2   134  ILE134     -0.2867
     38  CB       -16.7660    0.7780   21.8140 C.3   134  ILE134      0.0252
     39  CG1      -17.2000    2.0200   21.0320 C.3   134  ILE134      0.0019
     40  CG2      -17.7570    0.4500   22.9250 C.3   134  ILE134      0.0019
     41  CD1      -18.5080    1.8930   20.2860 C.3   134  ILE134      0.0001
     42  N        -12.0560    0.6870   25.3500 N.3   137  ALA137     -0.1231
     43  CA       -12.5950    1.4760   26.4500 C.3   137  ALA137      0.1694
     44  C        -13.0130    0.5990   27.6360 C.2   137  ALA137      0.2591
     45  O        -12.5840    0.8290   28.7880 O.2   137  ALA137     -0.2718
     46  CB       -13.7610    2.3200   25.9660 C.3   137  ALA137      0.0304
     47  N        -13.8400   -0.4080   27.3390 N.am  138  ALA138     -0.1980
     48  CA       -14.2440   -1.4100   28.3190 C.3   138  ALA138      0.1597
     49  C        -13.0460   -2.0120   29.0240 C.2   138  ALA138      0.2287
     50  O        -13.0900   -2.2140   30.2250 O.2   138  ALA138     -0.2864
     51  CB       -15.0450   -2.4980   27.6510 C.3   138  ALA138      0.0319
     52  N        -11.6590    0.0120   31.6630 N.3   141  TYR141     -0.1241
     53  CA       -12.4920   -0.1340   32.8430 C.3   141  TYR141      0.1605
     54  C        -12.1080   -1.3310   33.6750 C.2   141  TYR141      0.2264
     55  O        -12.0670   -1.2300   34.8930 O.2   141  TYR141     -0.2867
     56  CB       -13.9720   -0.2390   32.5020 C.3   141  TYR141      0.0534
     57  CG       -14.7800   -0.2930   33.7640 C.ar  141  TYR141     -0.0201
     58  CD1      -15.0210    0.8630   34.4950 C.ar  141  TYR141     -0.0009
     59  CD2      -15.2580   -1.4980   34.2540 C.ar  141  TYR141     -0.0009
     60  CE1      -15.7300    0.8320   35.6810 C.ar  141  TYR141      0.0417
     61  CE2      -15.9820   -1.5450   35.4340 C.ar  141  TYR141      0.0417
     62  CZ       -16.2060   -0.3730   36.1520 C.ar  141  TYR141      0.1957
     63  OH       -16.9190   -0.3880   37.3290 O.3   141  TYR141     -0.2866
     64  N         -8.8010   -0.7380   35.2150 N.3   144  TYR144     -0.1227
     65  CA        -8.9940    0.1930   36.3200 C.3   144  TYR144      0.1736
     66  C         -9.3320   -0.5610   37.5940 C.2   144  TYR144      0.2595
     67  O         -8.5210   -0.6360   38.5140 O.2   144  TYR144     -0.2718
     68  CB       -10.1170    1.1500   35.9930 C.3   144  TYR144      0.0548
     69  CG       -10.4840    2.0820   37.1030 C.ar  144  TYR144     -0.0200
     70  CD1       -9.5790    3.0460   37.5520 C.ar  144  TYR144     -0.0009
     71  CD2      -11.7510    2.0360   37.6820 C.ar  144  TYR144     -0.0009
     72  CE1       -9.9170    3.9270   38.5640 C.ar  144  TYR144      0.0417
     73  CE2      -12.1030    2.9150   38.6930 C.ar  144  TYR144      0.0417
     74  CZ       -11.1820    3.8620   39.1270 C.ar  144  TYR144      0.1957
     75  OH       -11.5250    4.7410   40.1270 O.3   144  TYR144     -0.2866
     76  N        -10.5310   -1.1400   37.6130 N.am  145  VAL145     -0.1980
     77  CA       -11.0200   -1.8930   38.7590 C.3   145  VAL145      0.1595
     78  C         -9.9500   -2.8360   39.2790 C.2   145  VAL145      0.2287
     79  O         -9.7490   -2.9350   40.4770 O.2   145  VAL145     -0.2864
     80  CB       -12.2990   -2.6770   38.4230 C.3   145  VAL145      0.0276
     81  CG1      -12.7330   -3.4990   39.6260 C.3   145  VAL145      0.0022
     82  CG2      -13.4110   -1.7260   37.9920 C.3   145  VAL145      0.0022
@<TRIPOS>BOND
     1    41    39    1
     2    39    38    1
     3    34    35    1
     4    38    35    1
     5    38    40    1
     6    35    36    1
     7    36    37    2
     8    29    28    2
     9    28    27    1
    10    42    43    1
    11    32    30    1
    12    46    43    1
    13    27    30    1
    14    27    26    1
    15    43    44    1
    16    30    31    1
    17    47    44   am
    18    47    48    1
    19    31    33    1
    20    44    45    2
    21    51    48    1
    22    48    49    1
    23    24    23    2
    24    49    50    2
    25    20    19    2
    26    23    22    1
    27    22    21    1
    28    22    25    1
    29    19    21   am
    30    19    18    1
    31    52    53    1
    32    18    17    1
    33    56    53    1
    34    56    57    1
    35    53    54    1
    36    54    55    2
    37    57    59   ar
    38    57    58   ar
    39    59    61   ar
    40    58    60   ar
    41    15    14    2
    42    64    65    1
    43    61    62   ar
    44    60    62   ar
    45    14    13    1
    46    68    65    1
    47    68    69    1
    48    62    63    1
    49    65    66    1
    50    13    12    1
    51    13    16    1
    52    69    70   ar
    53    69    71   ar
    54    70    72   ar
    55    66    76   am
    56    66    67    2
    57    76    77    1
    58    71    73   ar
    59    82    80    1
    60    80    77    1
    61    80    81    1
    62    72    74   ar
    63    73    74   ar
    64    77    78    1
    65    74    75    1
    66    78    79    2
    67     8     7    2
    68     7     6    1
    69     4     3    2
    70     6     5    1
    71     6     9    1
    72     3     5   am
    73     3     2    1
    74     9    11    1
    75     9    10    1
    76     2     1    1
