@<TRIPOS>MOLECULE
tmp/3t45C03.pdb
 71 65 0 0 0
SMALL
GASTEIGER

@<TRIPOS>ATOM
      1  N        -34.7670  -19.4130   43.6220 N.3   100  GLY100     -0.1210
      2  CA       -35.7360  -20.0260   42.7040 C.3   100  GLY100      0.1956
      3  C        -36.4180  -19.0500   41.7620 C.2   100  GLY100      0.2612
      4  O        -36.1110  -19.0370   40.5740 O.2   100  GLY100     -0.2717
      5  N        -37.3200  -18.2180   42.2900 N.am  101  THR101     -0.1952
      6  CA       -38.1150  -17.2850   41.4610 C.3   101  THR101      0.1897
      7  C        -37.2910  -16.5800   40.3620 C.2   101  THR101      0.2313
      8  O        -37.7530  -16.4340   39.2270 O.2   101  THR101     -0.2863
      9  CB       -38.9110  -16.2530   42.3090 C.3   101  THR101      0.1794
     10  OG1      -38.1920  -15.9630   43.5070 O.3   101  THR101     -0.2208
     11  CG2      -40.2880  -16.7810   42.6890 C.3   101  THR101      0.0378
     12  N        -34.3890  -17.5270   38.8410 N.3   103  LEU103     -0.1231
     13  CA       -34.0870  -18.5030   37.8090 C.3   103  LEU103      0.1693
     14  C        -35.3120  -18.7380   36.9350 C.2   103  LEU103      0.2591
     15  O        -35.2040  -18.8770   35.7060 O.2   103  LEU103     -0.2718
     16  CB       -33.6210  -19.7910   38.4780 C.3   103  LEU103      0.0284
     17  CG       -33.3120  -21.0720   37.7140 C.3   103  LEU103      0.0019
     18  CD1      -32.5560  -20.8320   36.4190 C.3   103  LEU103      0.0001
     19  CD2      -32.5230  -21.9960   38.6270 C.3   103  LEU103      0.0001
     20  N        -36.4770  -18.7470   37.5850 N.am  104  ALA104     -0.1980
     21  CA       -37.7630  -18.8930   36.9130 C.3   104  ALA104      0.1597
     22  C        -37.9600  -17.8100   35.8430 C.2   104  ALA104      0.2287
     23  O        -38.1900  -18.1170   34.6610 O.2   104  ALA104     -0.2864
     24  CB       -38.8750  -18.8340   37.9400 C.3   104  ALA104      0.0319
     25  N        -35.1130  -17.6790   32.9540 N.3   107  GLY107     -0.1210
     26  CA       -35.5560  -18.7320   32.0430 C.3   107  GLY107      0.1956
     27  C        -36.7140  -18.3210   31.1570 C.2   107  GLY107      0.2611
     28  O        -36.6510  -18.4920   29.9400 O.2   107  GLY107     -0.2717
     29  N        -37.7670  -17.7780   31.7670 N.am  108  ALA108     -0.1979
     30  CA       -38.9130  -17.2490   31.0270 C.3   108  ALA108      0.1597
     31  C        -38.5110  -16.1170   30.0910 C.2   108  ALA108      0.2287
     32  O        -38.9120  -16.0870   28.9160 O.2   108  ALA108     -0.2864
     33  CB       -39.9850  -16.7710   31.9830 C.3   108  ALA108      0.0319
     34  N        -36.5720  -17.4910   27.1150 N.3   111  ILE111     -0.1245
     35  CA       -37.5060  -18.0770   26.1190 C.3   111  ILE111      0.1561
     36  C        -38.2830  -17.0190   25.3320 C.2   111  ILE111      0.2260
     37  O        -38.5120  -17.1910   24.1220 O.2   111  ILE111     -0.2867
     38  CB       -38.5620  -19.0460   26.7160 C.3   111  ILE111      0.0252
     39  CG1      -37.9350  -20.0190   27.7160 C.3   111  ILE111      0.0019
     40  CG2      -39.3180  -19.7470   25.5750 C.3   111  ILE111      0.0019
     41  CD1      -38.9520  -20.8040   28.5140 C.3   111  ILE111      0.0001
     42  N        -46.0160  -17.6580   21.3460 N.3   134  ILE134     -0.1245
     43  CA       -45.2810  -18.3840   22.3840 C.3   134  ILE134      0.1561
     44  C        -44.5120  -17.4180   23.3050 C.2   134  ILE134      0.2260
     45  O        -44.5340  -17.5470   24.5490 O.2   134  ILE134     -0.2867
     46  CB       -44.3540  -19.4490   21.7660 C.3   134  ILE134      0.0252
     47  CG1      -45.1870  -20.4000   20.8980 C.3   134  ILE134      0.0019
     48  CG2      -43.6170  -20.1970   22.8710 C.3   134  ILE134      0.0019
     49  CD1      -44.4230  -21.4880   20.1840 C.3   134  ILE134      0.0001
     50  N        -46.6950  -15.3100   25.3250 N.3   137  ALA137     -0.1231
     51  CA       -47.0950  -16.1750   26.4340 C.3   137  ALA137      0.1694
     52  C        -46.1350  -16.1070   27.6450 C.2   137  ALA137      0.2591
     53  O        -46.5590  -15.8200   28.7730 O.2   137  ALA137     -0.2718
     54  CB       -47.2740  -17.6020   25.9400 C.3   137  ALA137      0.0304
     55  N        -44.8470  -16.3470   27.3900 N.am  138  ALA138     -0.1980
     56  CA       -43.8090  -16.1990   28.4000 C.3   138  ALA138      0.1597
     57  C        -43.8690  -14.8260   29.0430 C.2   138  ALA138      0.2287
     58  O        -43.6630  -14.6970   30.2570 O.2   138  ALA138     -0.2864
     59  CB       -42.4510  -16.4100   27.7890 C.3   138  ALA138      0.0319
     60  N        -46.2860  -14.6460   31.6200 N.3   141  TYR141     -0.1241
     61  CA       -45.7610  -15.2930   32.7960 C.3   141  TYR141      0.1605
     62  C        -44.9560  -14.3280   33.6710 C.2   141  TYR141      0.2264
     63  O        -45.1430  -14.3030   34.8870 O.2   141  TYR141     -0.2867
     64  CB       -44.9340  -16.5410   32.4660 C.3   141  TYR141      0.0534
     65  CG       -44.4930  -17.2150   33.7430 C.ar  141  TYR141     -0.0201
     66  CD1      -45.3810  -17.9980   34.4780 C.ar  141  TYR141     -0.0009
     67  CD2      -43.2170  -17.0090   34.2570 C.ar  141  TYR141     -0.0009
     68  CE1      -45.0040  -18.5760   35.6690 C.ar  141  TYR141      0.0417
     69  CE2      -42.8270  -17.6050   35.4410 C.ar  141  TYR141      0.0417
     70  CZ       -43.7330  -18.3780   36.1420 C.ar  141  TYR141      0.1957
     71  OH       -43.3680  -18.9680   37.3250 O.3   141  TYR141     -0.2866
@<TRIPOS>BOND
     1    49    47    1
     2    47    46    1
     3    42    43    1
     4    46    43    1
     5    46    48    1
     6    43    44    1
     7    44    45    2
     8    37    36    2
     9    50    51    1
    10    36    35    1
    11    40    38    1
    12    54    51    1
    13    35    38    1
    14    35    34    1
    15    51    52    1
    16    38    39    1
    17    55    52   am
    18    55    56    1
    19    52    53    2
    20    39    41    1
    21    59    56    1
    22    56    57    1
    23    32    31    2
    24    57    58    2
    25    28    27    2
    26    31    30    1
    27    30    29    1
    28    30    33    1
    29    27    29   am
    30    27    26    1
    31    60    61    1
    32    26    25    1
    33    64    61    1
    34    64    65    1
    35    61    62    1
    36    62    63    2
    37    65    67   ar
    38    65    66   ar
    39    67    69   ar
    40    66    68   ar
    41    23    22    2
    42    69    70   ar
    43    68    70   ar
    44    15    14    2
    45    22    21    1
    46    70    71    1
    47    18    17    1
    48    21    20    1
    49    21    24    1
    50    14    20   am
    51    14    13    1
    52    17    16    1
    53    17    19    1
    54    13    16    1
    55    13    12    1
    56     8     7    2
    57     7     6    1
    58     4     3    2
    59     6     5    1
    60     6     9    1
    61     3     5   am
    62     3     2    1
    63     9    11    1
    64     9    10    1
    65     2     1    1
