@<TRIPOS>MOLECULE
tmp/3t45B01.pdb
 65 59 0 0 0
SMALL
GASTEIGER

@<TRIPOS>ATOM
      1  N        -27.4750  -27.3280   24.8470 N.3    81  LEU81      -0.1245
      2  CA       -26.7080  -26.2280   25.4370 C.3    81  LEU81       0.1561
      3  C        -27.2790  -25.7120   26.7640 C.2    81  LEU81       0.2260
      4  O        -26.5260  -25.4170   27.6760 O.2    81  LEU81      -0.2867
      5  CB       -26.5800  -25.0650   24.4550 C.3    81  LEU81       0.0270
      6  CG       -25.6680  -23.9460   24.9600 C.3    81  LEU81       0.0019
      7  CD1      -24.2200  -24.4190   25.0010 C.3    81  LEU81       0.0001
      8  CD2      -25.8250  -22.6650   24.1490 C.3    81  LEU81       0.0001
      9  N        -20.9360  -27.8460   34.6870 N.3   106  VAL106     -0.1231
     10  CA       -21.4830  -26.9040   33.7050 C.3   106  VAL106      0.1692
     11  C        -20.4390  -26.5950   32.6170 C.2   106  VAL106      0.2592
     12  O        -20.7270  -26.7540   31.4210 O.2   106  VAL106     -0.2718
     13  CB       -22.0340  -25.6370   34.3830 C.3   106  VAL106      0.0266
     14  CG1      -22.4210  -24.6020   33.3470 C.3   106  VAL106      0.0020
     15  CG2      -23.2550  -25.9920   35.2110 C.3   106  VAL106      0.0020
     16  N        -19.2330  -26.2010   33.0490 N.am  107  GLY107     -0.1957
     17  CA       -18.0740  -26.0970   32.1690 C.3   107  GLY107      0.1869
     18  C        -17.9390  -27.2780   31.2190 C.2   107  GLY107      0.2309
     19  O        -17.9230  -27.1010   29.9920 O.2   107  GLY107     -0.2863
     20  N        -20.8370  -27.5500   28.8600 N.3   110  GLY110     -0.1210
     21  CA       -20.7330  -26.5060   27.8600 C.3   110  GLY110      0.1956
     22  C        -19.8610  -27.0310   26.7560 C.2   110  GLY110      0.2611
     23  O        -20.3140  -27.1010   25.6060 O.2   110  GLY110     -0.2717
     24  N        -18.6330  -27.4380   27.1160 N.am  111  ILE111     -0.1979
     25  CA       -17.6580  -27.9750   26.1360 C.3   111  ILE111      0.1595
     26  C        -18.2270  -29.1550   25.3430 C.2   111  ILE111      0.2287
     27  O        -18.0300  -29.2390   24.1120 O.2   111  ILE111     -0.2864
     28  CB       -16.3410  -28.4590   26.7710 C.3   111  ILE111      0.0276
     29  CG1      -15.6180  -27.3250   27.4740 C.3   111  ILE111      0.0022
     30  CG2      -15.4290  -29.0540   25.7140 C.3   111  ILE111      0.0022
     31  CD1      -14.4390  -27.8040   28.2910 C.3   111  ILE111      0.0001
     32  N        -20.7700  -27.7510   23.1660 N.3   114  GLY114     -0.1210
     33  CA       -19.9140  -26.8370   22.4260 C.3   114  GLY114      0.1956
     34  C        -19.2740  -27.5300   21.2410 C.2   114  GLY114      0.2612
     35  O        -19.5390  -27.1880   20.0780 O.2   114  GLY114     -0.2717
     36  N        -18.4550  -28.5310   21.5460 N.am  115  THR115     -0.1952
     37  CA       -17.7900  -29.3480   20.5320 C.3   115  THR115      0.1897
     38  C        -18.7520  -30.1690   19.6660 C.2   115  THR115      0.2313
     39  O        -18.5280  -30.3050   18.4660 O.2   115  THR115     -0.2863
     40  CB       -16.8110  -30.3150   21.1960 C.3   115  THR115      0.1794
     41  OG1      -17.4710  -30.9260   22.3060 O.3   115  THR115     -0.2208
     42  CG2      -15.5730  -29.5700   21.6870 C.3   115  THR115      0.0378
     43  N        -21.7510  -29.4530   18.6530 N.3   117  LEU117     -0.1231
     44  CA       -22.2330  -28.5540   17.6030 C.3   117  LEU117      0.1693
     45  C        -21.1680  -28.3380   16.5570 C.2   117  LEU117      0.2591
     46  O        -21.4430  -28.4720   15.3640 O.2   117  LEU117     -0.2718
     47  CB       -22.6830  -27.2010   18.1730 C.3   117  LEU117      0.0284
     48  CG       -23.1540  -26.1680   17.1380 C.3   117  LEU117      0.0019
     49  CD1      -24.0340  -26.7760   16.0440 C.3   117  LEU117      0.0001
     50  CD2      -23.8590  -25.0440   17.8700 C.3   117  LEU117      0.0001
     51  N        -19.9600  -27.9910   17.0100 N.am  118  VAL118     -0.1980
     52  CA       -18.8500  -27.7750   16.0930 C.3   118  VAL118      0.1595
     53  C        -18.7620  -28.9860   15.1740 C.2   118  VAL118      0.2287
     54  O        -18.8140  -28.8590   13.9350 O.2   118  VAL118     -0.2864
     55  CB       -17.5170  -27.5570   16.8230 C.3   118  VAL118      0.0276
     56  CG1      -16.4040  -27.4330   15.8130 C.3   118  VAL118      0.0022
     57  CG2      -17.5530  -26.2910   17.6490 C.3   118  VAL118      0.0022
     58  N        -21.5680  -29.4910   12.3110 N.3   121  LEU121     -0.1245
     59  CA       -21.5290  -28.5810   11.1710 C.3   121  LEU121      0.1561
     60  C        -20.1630  -28.5840   10.4730 C.2   121  LEU121      0.2260
     61  O        -19.9170  -27.7760    9.5660 O.2   121  LEU121     -0.2867
     62  CB       -21.8900  -27.1500   11.6040 C.3   121  LEU121      0.0270
     63  CG       -23.0960  -26.8580   12.5110 C.3   121  LEU121      0.0019
     64  CD1      -23.1210  -25.3870   12.8940 C.3   121  LEU121      0.0001
     65  CD2      -24.4180  -27.2460   11.8700 C.3   121  LEU121      0.0001
@<TRIPOS>BOND
     1    61    60    2
     2    60    59    1
     3    59    62    1
     4    59    58    1
     5    62    63    1
     6    65    63    1
     7    63    64    1
     8    54    53    2
     9    53    52    1
    10    46    45    2
    11    56    55    1
    12    49    48    1
    13    52    55    1
    14    52    51    1
    15    45    51   am
    16    45    44    1
    17    55    57    1
    18    48    50    1
    19    48    47    1
    20    44    47    1
    21    44    43    1
    22    39    38    2
    23    38    37    1
    24    35    34    2
    25    37    40    1
    26    37    36    1
    27    40    42    1
    28    40    41    1
    29    34    36   am
    30    34    33    1
    31    33    32    1
    32    27    26    2
    33     8     6    1
    34     5     6    1
    35     5     2    1
    36     1     2    1
    37     6     7    1
    38    26    25    1
    39     2     3    1
    40    23    22    2
    41    30    28    1
    42    25    28    1
    43    25    24    1
    44    22    24   am
    45    22    21    1
    46     3     4    2
    47    28    29    1
    48    29    31    1
    49    21    20    1
    50    19    18    2
    51    18    17    1
    52    12    11    2
    53    17    16    1
    54    11    16   am
    55    11    10    1
    56    14    13    1
    57    10    13    1
    58    10     9    1
    59    13    15    1
