@<TRIPOS>MOLECULE
tmp/3t45C06.pdb
 118 112 0 0 0
SMALL
GASTEIGER

@<TRIPOS>ATOM
      1  N        -25.9940    6.1010   25.3370 N.3    15  GLY15      -0.1225
      2  CA       -24.6420    6.5670   25.6600 C.3    15  GLY15       0.1811
      3  C        -24.6110    7.4060   26.9330 C.2    15  GLY15       0.2280
      4  O        -23.9320    7.0550   27.9160 O.2    15  GLY15      -0.2866
      5  N        -25.6680    5.5150   30.0290 N.3    18  THR18      -0.1203
      6  CA       -24.5300    4.7830   30.5730 C.3    18  THR18       0.1994
      7  C        -23.5740    5.6960   31.3410 C.2    18  THR18       0.2617
      8  O        -23.2760    5.4330   32.5000 O.2    18  THR18      -0.2717
      9  CB       -23.7400    4.0460   29.4920 C.3    18  THR18       0.1784
     10  OG1      -24.6540    3.4420   28.5760 O.3    18  THR18      -0.2211
     11  CG2      -22.8750    2.9830   30.1320 C.3    18  THR18       0.0376
     12  N        -23.1280    6.7740   30.7010 N.am   19  LEU19      -0.1979
     13  CA       -22.1300    7.6620   31.2960 C.3    19  LEU19       0.1596
     14  C        -22.6360    8.3060   32.5830 C.2    19  LEU19       0.2287
     15  O        -21.9190    8.3310   33.5770 O.2    19  LEU19      -0.2864
     16  CB       -21.6670    8.7380   30.3060 C.3    19  LEU19       0.0297
     17  CG       -20.9800    8.4110   28.9700 C.3    19  LEU19       0.0022
     18  CD1      -20.3370    9.6640   28.4270 C.3    19  LEU19       0.0001
     19  CD2      -19.9090    7.3490   29.0840 C.3    19  LEU19       0.0001
     20  N        -24.8770    7.1550   34.6470 N.3    21  PHE21      -0.1227
     21  CA       -24.9390    6.0770   35.6370 C.3    21  PHE21       0.1736
     22  C        -23.5550    5.6870   36.1170 C.2    21  PHE21       0.2595
     23  O        -23.3750    5.3720   37.2920 O.2    21  PHE21      -0.2718
     24  CB       -25.6420    4.8400   35.0540 C.3    21  PHE21       0.0547
     25  CG       -27.1310    5.0060   34.8620 C.ar   21  PHE21      -0.0202
     26  CD1      -27.9210    5.5900   35.8570 C.ar   21  PHE21      -0.0042
     27  CD2      -27.7480    4.5510   33.6960 C.ar   21  PHE21      -0.0042
     28  CE1      -29.2850    5.7310   35.6670 C.ar   21  PHE21      -0.0003
     29  CE2      -29.1120    4.6880   33.5080 C.ar   21  PHE21      -0.0003
     30  CZ       -29.8810    5.2750   34.4890 C.ar   21  PHE21      -0.0000
     31  N        -22.5920    5.7030   35.1930 N.am   22  LEU22      -0.1980
     32  CA       -21.1980    5.3650   35.4850 C.3    22  LEU22       0.1596
     33  C        -20.6090    6.3420   36.4920 C.2    22  LEU22       0.2287
     34  O        -20.0180    5.9240   37.4850 O.2    22  LEU22      -0.2864
     35  CB       -20.3670    5.3550   34.1960 C.3    22  LEU22       0.0297
     36  CG       -19.1280    4.4590   34.0750 C.3    22  LEU22       0.0022
     37  CD1      -19.3970    3.0380   34.5310 C.3    22  LEU22       0.0001
     38  CD2      -18.6340    4.4210   32.6340 C.3    22  LEU22       0.0001
     39  N        -22.3170    6.4240   39.8180 N.3    25  GLY25      -0.1210
     40  CA       -21.8810    5.2080   40.5120 C.3    25  GLY25       0.1956
     41  C        -20.5510    5.3260   41.2300 C.2    25  GLY25       0.2612
     42  O        -20.2340    4.4960   42.0870 O.2    25  GLY25      -0.2717
     43  N        -19.7700    6.3460   40.8750 N.am   26  MET26      -0.1965
     44  CA       -18.5030    6.6080   41.5380 C.3    26  MET26       0.1736
     45  C        -18.7460    6.9980   42.9830 C.2    26  MET26       0.2617
     46  O        -19.5950    7.8500   43.2640 O.2    26  MET26      -0.2715
     47  CB       -17.7220    7.7300   40.8410 C.3    26  MET26       0.0427
     48  CG       -17.2740    7.4260   39.4160 C.3    26  MET26       0.0599
     49  SD       -15.5000    7.7180   39.1220 S.3    26  MET26      -0.1393
     50  CE       -14.7610    6.1490   39.6050 C.3    26  MET26       0.0692
     51  N        -18.0030    6.3660   43.8890 N.am   27  GLY27      -0.1940
     52  CA       -18.0780    6.6780   45.3100 C.3    27  GLY27       0.2014
     53  C        -19.3210    6.0860   45.9260 C.2    27  GLY27       0.2638
     54  O        -20.0340    6.7570   46.6830 O.2    27  GLY27      -0.2714
     55  N        -19.5830    4.8280   45.5710 N.am   28  VAL28      -0.1977
     56  CA       -20.6660    4.0320   46.1480 C.3    28  VAL28       0.1596
     57  C        -20.0720    2.7070   46.6230 C.2    28  VAL28       0.2287
     58  O        -19.7900    1.8240   45.8130 O.2    28  VAL28      -0.2864
     59  CB       -21.7930    3.7670   45.1280 C.3    28  VAL28       0.0276
     60  CG1      -22.8720    2.8900   45.7440 C.3    28  VAL28       0.0022
     61  CG2      -22.3920    5.0770   44.6300 C.3    28  VAL28       0.0022
     62  N        -23.9480   -1.1610   45.1750 N.3    34  LYS34      -0.1245
     63  CA       -23.0730   -1.6220   44.1000 C.3    34  LYS34       0.1561
     64  C        -23.8660   -2.4960   43.1490 C.2    34  LYS34       0.2260
     65  O        -24.0720   -2.0740   42.0050 O.2    34  LYS34      -0.2867
     66  CB       -21.8190   -2.3270   44.6090 C.3    34  LYS34       0.0271
     67  CG       -20.6460   -1.3810   44.7470 C.3    34  LYS34       0.0035
     68  CD       -19.3390   -2.0420   44.3500 C.3    34  LYS34       0.0206
     69  CE       -18.2430   -1.0060   44.1290 C.3    34  LYS34       0.1093
     70  NZ       -16.8740   -1.5750   44.2910 N.3    34  LYS34      -0.1314
     71  N        -26.2850   -0.5400   41.0310 N.3    37  TYR37      -0.1227
     72  CA       -25.5340    0.3520   40.1460 C.3    37  TYR37       0.1736
     73  C        -24.8530   -0.3790   39.0090 C.2    37  TYR37       0.2595
     74  O        -24.7630    0.1430   37.9150 O.2    37  TYR37      -0.2718
     75  CB       -24.5000    1.1660   40.9330 C.3    37  TYR37       0.0548
     76  CG       -25.0290    2.5030   41.4360 C.ar   37  TYR37      -0.0200
     77  CD1      -25.2770    3.5640   40.5540 C.ar   37  TYR37      -0.0009
     78  CD2      -25.2900    2.7060   42.7910 C.ar   37  TYR37      -0.0009
     79  CE1      -25.7600    4.7790   41.0170 C.ar   37  TYR37       0.0417
     80  CE2      -25.7680    3.9170   43.2580 C.ar   37  TYR37       0.0417
     81  CZ       -26.0010    4.9410   42.3680 C.ar   37  TYR37       0.1957
     82  OH       -26.4780    6.1340   42.8290 O.3    37  TYR37      -0.2866
     83  N        -24.3760   -1.5840   39.2830 N.am   38  ALA38      -0.1980
     84  CA       -23.6930   -2.4070   38.2970 C.3    38  ALA38       0.1597
     85  C        -24.6460   -2.8690   37.1900 C.2    38  ALA38       0.2287
     86  O        -24.3670   -2.7170   35.9730 O.2    38  ALA38      -0.2864
     87  CB       -23.0570   -3.6030   38.9850 C.3    38  ALA38       0.0319
     88  N        -26.2450   -0.0530   35.0340 N.3    41  THR41      -0.1203
     89  CA       -25.4000    0.5730   34.0390 C.3    41  THR41       0.1994
     90  C        -25.1210   -0.3380   32.8300 C.2    41  THR41       0.2617
     91  O        -24.8940    0.1390   31.7030 O.2    41  THR41      -0.2717
     92  CB       -24.0940    1.0530   34.6390 C.3    41  THR41       0.1784
     93  OG1      -24.3330    1.5100   35.9680 O.3    41  THR41      -0.2211
     94  CG2      -23.5440    2.2040   33.8200 C.3    41  THR41       0.0376
     95  N        -25.1470   -1.6460   33.0610 N.am   42  LEU42      -0.1979
     96  CA       -24.9330   -2.5710   31.9780 C.3    42  LEU42       0.1596
     97  C        -25.9970   -2.3880   30.9390 C.2    42  LEU42       0.2287
     98  O        -25.7000   -2.3030   29.7240 O.2    42  LEU42      -0.2864
     99  CB       -24.9900   -3.9980   32.4710 C.3    42  LEU42       0.0297
    100  CG       -23.6580   -4.6350   32.8260 C.3    42  LEU42       0.0022
    101  CD1      -23.8180   -6.1380   32.6550 C.3    42  LEU42       0.0001
    102  CD2      -22.5140   -4.1060   31.9670 C.3    42  LEU42       0.0001
    103  N        -25.4150    0.3920   28.5680 N.3    45  ALA45      -0.1245
    104  CA       -24.1440    0.1170   27.8490 C.3    45  ALA45       0.1562
    105  C        -24.3840   -0.8580   26.7120 C.2    45  ALA45       0.2260
    106  O        -24.0600   -0.5730   25.5570 O.2    45  ALA45      -0.2867
    107  CB       -23.0840   -0.4520   28.7850 C.3    45  ALA45       0.0290
    108  N        -26.5920    0.7380   24.3620 N.3    48  PHE48      -0.1241
    109  CA       -25.8170    1.6660   23.5580 C.3    48  PHE48       0.1605
    110  C        -25.1610    0.9670   22.3550 C.2    48  PHE48       0.2264
    111  O        -25.3480    1.4040   21.2100 O.2    48  PHE48      -0.2867
    112  CB       -24.7830    2.4080   24.3990 C.3    48  PHE48       0.0534
    113  CG       -23.6300    2.9250   23.5960 C.ar   48  PHE48      -0.0203
    114  CD1      -23.8140    3.9150   22.6360 C.ar   48  PHE48      -0.0042
    115  CD2      -22.3590    2.4030   23.7700 C.ar   48  PHE48      -0.0042
    116  CE1      -22.7480    4.3910   21.8790 C.ar   48  PHE48      -0.0003
    117  CE2      -21.2890    2.8710   23.0170 C.ar   48  PHE48      -0.0003
    118  CZ       -21.4850    3.8700   22.0720 C.ar   48  PHE48      -0.0000
@<TRIPOS>BOND
     1   111   110    2
     2   116   118   ar
     3   116   114   ar
     4   118   117   ar
     5   110   109    1
     6   114   113   ar
     7   117   115   ar
     8   109   108    1
     9   109   112    1
    10   113   115   ar
    11   113   112    1
    12     1     2    1
    13   106   105    2
    14     2     3    1
    15   105   104    1
    16     3     4    2
    17   104   103    1
    18   104   107    1
    19    18    17    1
    20    10     9    1
    21    17    19    1
    22    17    16    1
    23     9    11    1
    24     9     6    1
    25    98    97    2
    26     5     6    1
    27    16    13    1
    28     6     7    1
    29    12    13    1
    30    12     7   am
    31    97    96    1
    32    13    14    1
    33     7     8    2
    34    91    90    2
    35   102   100    1
    36    96    99    1
    37    96    95    1
    38    99   100    1
    39    14    15    2
    40    38    36    1
    41   101   100    1
    42    90    95   am
    43    90    89    1
    44    29    27   ar
    45    29    30   ar
    46    27    25   ar
    47    94    92    1
    48    89    92    1
    49    89    88    1
    50    36    35    1
    51    36    37    1
    52    35    32    1
    53    30    28   ar
    54    92    93    1
    55    20    21    1
    56    25    24    1
    57    25    26   ar
    58    24    21    1
    59    31    32    1
    60    31    22   am
    61    32    33    1
    62    21    22    1
    63    28    26   ar
    64    86    85    2
    65    22    23    2
    66    33    34    2
    67    85    84    1
    68    74    73    2
    69    84    87    1
    70    84    83    1
    71    73    83   am
    72    73    72    1
    73    49    48    1
    74    49    50    1
    75    48    47    1
    76    39    40    1
    77    72    75    1
    78    72    71    1
    79    40    41    1
    80    77    79   ar
    81    77    76   ar
    82    47    44    1
    83    43    41   am
    84    43    44    1
    85    75    76    1
    86    79    81   ar
    87    41    42    2
    88    76    78   ar
    89    44    45    1
    90    65    64    2
    91    81    82    1
    92    81    80   ar
    93    78    80   ar
    94    45    46    2
    95    45    51   am
    96    64    63    1
    97    51    52    1
    98    63    66    1
    99    63    62    1
   100    69    70    1
   101    69    68    1
   102    68    67    1
   103    66    67    1
   104    61    59    1
   105    59    60    1
   106    59    56    1
   107    52    53    1
   108    55    53   am
   109    55    56    1
   110    58    57    2
   111    53    54    2
   112    56    57    1
