@<TRIPOS>MOLECULE
tmp/3t45A03.pdb
 104 97 0 0 0
SMALL
GASTEIGER

@<TRIPOS>ATOM
      1  N        -10.8450  -24.7580   33.0730 N.3    42  LEU42      -0.1245
      2  CA       -11.7840  -24.4870   32.0130 C.3    42  LEU42       0.1561
      3  C        -11.1430  -23.6230   30.9500 C.2    42  LEU42       0.2260
      4  O        -11.2320  -23.9280   29.7460 O.2    42  LEU42      -0.2867
      5  CB       -13.0160  -23.7830   32.5470 C.3    42  LEU42       0.0270
      6  CG       -14.1980  -24.6670   32.9210 C.3    42  LEU42       0.0019
      7  CD1      -15.4630  -23.8380   32.7780 C.3    42  LEU42       0.0001
      8  CD2      -14.2740  -25.9000   32.0340 C.3    42  LEU42       0.0001
      9  N        -11.3020  -24.7520   27.0770 N.3    46  ILE46      -0.1245
     10  CA       -12.0170  -23.9250   26.1120 C.3    46  ILE46       0.1561
     11  C        -11.0100  -23.4000   25.0860 C.2    46  ILE46       0.2260
     12  O        -11.2350  -23.4640   23.8710 O.2    46  ILE46      -0.2867
     13  CB       -12.7640  -22.7650   26.8240 C.3    46  ILE46       0.0252
     14  CG1      -13.5930  -23.3190   27.9940 C.3    46  ILE46       0.0019
     15  CG2      -13.6290  -21.9780   25.8430 C.3    46  ILE46       0.0019
     16  CD1      -14.3530  -22.3020   28.8060 C.3    46  ILE46       0.0001
     17  N         -9.9640  -26.1460   22.6630 N.3    49  THR49      -0.1203
     18  CA       -10.9600  -26.4290   21.6230 C.3    49  THR49       0.1994
     19  C        -10.9830  -25.3890   20.5170 C.2    49  THR49       0.2617
     20  O        -11.2110  -25.7300   19.3480 O.2    49  THR49      -0.2717
     21  CB       -12.3720  -26.5230   22.1980 C.3    49  THR49       0.1784
     22  OG1      -12.5380  -25.5080   23.1840 O.3    49  THR49      -0.2211
     23  CG2      -12.5720  -27.8490   22.8350 C.3    49  THR49       0.0376
     24  N        -10.7630  -24.1270   20.8950 N.am   50  MET50      -0.1979
     25  CA       -10.7760  -23.0400   19.9340 C.3    50  MET50       0.1605
     26  C         -9.4760  -22.9650   19.1380 C.2    50  MET50       0.2287
     27  O         -9.4940  -22.6770   17.9200 O.2    50  MET50      -0.2864
     28  CB       -11.1240  -21.7210   20.6000 C.3    50  MET50       0.0413
     29  CG       -12.5260  -21.7060   21.2020 C.3    50  MET50       0.0598
     30  SD       -13.9470  -22.0020   20.1030 S.3    50  MET50      -0.1393
     31  CE       -14.0950  -23.7950   20.1560 C.3    50  MET50       0.0692
     32  N        -12.0000  -24.4730   11.3210 N.3    58  TYR58      -0.1241
     33  CA       -13.3940  -24.1840   11.6200 C.3    58  TYR58       0.1605
     34  C        -13.5650  -22.7960   12.2300 C.2    58  TYR58       0.2264
     35  O        -14.6100  -22.1610   12.0330 O.2    58  TYR58      -0.2867
     36  CB       -14.0400  -25.2420   12.5340 C.3    58  TYR58       0.0534
     37  CG       -15.5370  -25.0290   12.6670 C.ar   58  TYR58      -0.0201
     38  CD1      -16.4000  -25.4300   11.6540 C.ar   58  TYR58      -0.0009
     39  CD2      -16.0810  -24.3800   13.7800 C.ar   58  TYR58      -0.0009
     40  CE1      -17.7620  -25.2180   11.7410 C.ar   58  TYR58       0.0417
     41  CE2      -17.4470  -24.1630   13.8790 C.ar   58  TYR58       0.0417
     42  CZ       -18.2800  -24.5870   12.8490 C.ar   58  TYR58       0.1957
     43  OH       -19.6400  -24.3840   12.8940 O.3    58  TYR58      -0.2866
     44  N        -12.7160  -17.3660    9.0990 N.3    61  THR61      -0.1218
     45  CA       -13.6920  -16.8340    8.1570 C.3    61  THR61       0.1862
     46  C        -13.1410  -15.6650    7.3450 C.2    61  THR61       0.2287
     47  O        -12.2050  -14.9890    7.7940 O.2    61  THR61      -0.2866
     48  CB       -15.0180  -16.4570    8.8550 C.3    61  THR61       0.1770
     49  OG1      -15.9930  -16.0920    7.8740 O.3    61  THR61      -0.2211
     50  CG2      -14.8240  -15.2980    9.8210 C.3    61  THR61       0.0375
     51  N        -12.4540  -15.9640   13.9100 N.3    74  TRP74      -0.1241
     52  CA       -13.5630  -15.5470   14.7460 C.3    74  TRP74       0.1605
     53  C        -13.5600  -16.3520   16.0200 C.2    74  TRP74       0.2264
     54  O        -13.9920  -15.8680   17.0690 O.2    74  TRP74      -0.2867
     55  CB       -14.8910  -15.6070   13.9740 C.3    74  TRP74       0.0550
     56  CG       -15.3130  -16.9990   13.6390 C.ar   74  TRP74       0.0003
     57  CD1      -15.2850  -17.6270   12.4060 C.ar   74  TRP74       0.0946
     58  CD2      -15.8160  -18.0020   14.5730 C.ar   74  TRP74       0.0152
     59  NE1      -15.7330  -18.9220   12.5060 N.ar   74  TRP74      -0.2442
     60  CE2      -16.0650  -19.2090   13.7810 C.ar   74  TRP74       0.0810
     61  CE3      -16.0790  -18.0190   15.9390 C.ar   74  TRP74       0.0012
     62  CZ2      -16.5520  -20.3730   14.3580 C.ar   74  TRP74       0.0191
     63  CZ3      -16.5590  -19.1940   16.5110 C.ar   74  TRP74       0.0001
     64  CH2      -16.7860  -20.3470   15.7420 C.ar   74  TRP74       0.0015
     65  N        -15.0860  -16.2980   20.2600 N.3    78  ALA78      -0.1245
     66  CA       -15.8160  -17.3870   20.8860 C.3    78  ALA78       0.1562
     67  C        -15.0760  -17.9180   22.1410 C.2    78  ALA78       0.2260
     68  O        -15.6930  -18.2080   23.1610 O.2    78  ALA78      -0.2867
     69  CB       -16.0170  -18.4870   19.8740 C.3    78  ALA78       0.0290
     70  N        -15.5870  -16.5700   26.8520 N.3    82  PHE82      -0.1241
     71  CA       -15.7620  -17.4090   28.0220 C.3    82  PHE82       0.1605
     72  C        -14.5270  -17.4110   28.9480 C.2    82  PHE82       0.2264
     73  O        -14.6580  -17.3230   30.1850 O.2    82  PHE82      -0.2867
     74  CB       -16.0950  -18.8320   27.5760 C.3    82  PHE82       0.0534
     75  CG       -17.4600  -18.9800   26.9730 C.ar   82  PHE82      -0.0203
     76  CD1      -18.6040  -18.8690   27.7630 C.ar   82  PHE82      -0.0042
     77  CD2      -17.6030  -19.2640   25.6120 C.ar   82  PHE82      -0.0042
     78  CE1      -19.8610  -19.0140   27.2010 C.ar   82  PHE82      -0.0003
     79  CE2      -18.8580  -19.4080   25.0420 C.ar   82  PHE82      -0.0003
     80  CZ       -19.9880  -19.2850   25.8340 C.ar   82  PHE82      -0.0000
     81  N        -13.9900  -15.8450   33.1070 N.3    86  LEU86      -0.1245
     82  CA       -13.5070  -16.8550   34.0440 C.3    86  LEU86       0.1561
     83  C        -12.2030  -16.4150   34.7340 C.2    86  LEU86       0.2260
     84  O        -12.0750  -16.4750   35.9510 O.2    86  LEU86      -0.2867
     85  CB       -13.3100  -18.1770   33.3060 C.3    86  LEU86       0.0270
     86  CG       -14.5570  -19.0380   33.0800 C.3    86  LEU86       0.0019
     87  CD1      -14.1480  -20.3910   32.5260 C.3    86  LEU86       0.0001
     88  CD2      -15.3910  -19.2090   34.3490 C.3    86  LEU86       0.0001
     89  N        -15.7380   -8.6570   18.7460 N.3   117  LEU117     -0.1245
     90  CA       -16.2280   -9.5520   17.6960 C.3   117  LEU117      0.1561
     91  C        -16.9320   -8.7460   16.5900 C.2   117  LEU117      0.2260
     92  O        -16.6070   -8.8780   15.3860 O.2   117  LEU117     -0.2867
     93  CB       -17.1220  -10.6600   18.2480 C.3   117  LEU117      0.0270
     94  CG       -17.7970  -11.5740   17.2180 C.3   117  LEU117      0.0019
     95  CD1      -16.8580  -12.0400   16.1110 C.3   117  LEU117      0.0001
     96  CD2      -18.4070  -12.7540   17.9470 C.3   117  LEU117      0.0001
     97  N        -15.7140   -8.4980   12.3340 N.3   121  LEU121     -0.1245
     98  CA       -16.5120   -8.9240   11.1960 C.3   121  LEU121      0.1561
     99  C        -17.1730   -7.7630   10.4490 C.2   121  LEU121      0.2260
    100  O        -17.9190   -7.9830    9.4790 O.2   121  LEU121     -0.2867
    101  CB       -17.5700   -9.9510   11.6300 C.3   121  LEU121      0.0270
    102  CG       -17.1840  -11.1480   12.5090 C.3   121  LEU121      0.0019
    103  CD1      -18.4440  -11.8490   13.0120 C.3   121  LEU121      0.0001
    104  CD2      -16.2610  -12.1290   11.7820 C.3   121  LEU121      0.0001
@<TRIPOS>BOND
     1    46    47    2
     2    46    45    1
     3    49    48    1
     4    45    48    1
     5    45    44    1
     6    48    50    1
     7   100    99    2
     8    99    98    1
     9    98   101    1
    10    98    97    1
    11    32    33    1
    12    33    34    1
    13    33    36    1
    14   101   102    1
    15    38    40   ar
    16    38    37   ar
    17    40    42   ar
    18   104   102    1
    19    35    34    2
    20    57    59   ar
    21    57    56   ar
    22    59    60   ar
    23   102   103    1
    24    36    37    1
    25    37    39   ar
    26    42    43    1
    27    42    41   ar
    28    56    55    1
    29    56    58   ar
    30    39    41   ar
    31    60    62   ar
    32    60    58   ar
    33    51    52    1
    34    55    52    1
    35    62    64   ar
    36    58    61   ar
    37    52    53    1
    38    92    91    2
    39    64    63   ar
    40    61    63   ar
    41    53    54    2
    42    95    94    1
    43    91    90    1
    44    94    96    1
    45    94    93    1
    46    90    93    1
    47    90    89    1
    48    27    26    2
    49    26    25    1
    50    20    19    2
    51    69    66    1
    52    25    28    1
    53    25    24    1
    54    30    31    1
    55    30    29    1
    56    65    66    1
    57    19    24   am
    58    19    18    1
    59    28    29    1
    60    66    67    1
    61    18    21    1
    62    18    17    1
    63    67    68    2
    64    21    23    1
    65    21    22    1
    66    12    11    2
    67    79    77   ar
    68    79    80   ar
    69    11    10    1
    70    77    75   ar
    71    80    78   ar
    72    15    13    1
    73    10    13    1
    74    10     9    1
    75    13    14    1
    76    70    71    1
    77    75    74    1
    78    75    76   ar
    79    78    76   ar
    80    74    71    1
    81    14    16    1
    82    71    72    1
    83    72    73    2
    84     4     3    2
    85     3     2    1
    86     2     5    1
    87     2     1    1
    88     8     6    1
    89    87    86    1
    90     5     6    1
    91     7     6    1
    92    86    85    1
    93    86    88    1
    94    81    82    1
    95    85    82    1
    96    82    83    1
    97    83    84    2
