@<TRIPOS>MOLECULE
tmp/3t4eA00.pdb
 207 192 0 0 0
SMALL
GASTEIGER

@<TRIPOS>ATOM
      1  N         -0.0800   35.8090   17.9700 N.3    63  MET63      -0.1245
      2  CA        -1.2470   35.4930   18.7840 C.3    63  MET63       0.1570
      3  C         -1.5810   36.6840   19.6890 C.2    63  MET63       0.2261
      4  O         -0.6860   37.3280   20.2370 O.2    63  MET63      -0.2867
      5  CB        -1.0620   34.2320   19.6430 C.3    63  MET63       0.0387
      6  CG        -0.1690   34.3690   20.8520 C.3    63  MET63       0.0595
      7  SD        -0.5810   33.0660   22.0810 S.3    63  MET63      -0.1393
      8  CE        -0.3710   31.6080   21.0500 C.3    63  MET63       0.0692
      9  N         -3.6730   36.7270   14.6970 N.3    66  LYS66      -0.1245
     10  CA        -3.3370   36.3220   13.3130 C.3    66  LYS66       0.1561
     11  C         -4.5480   36.0370   12.4360 C.2    66  LYS66       0.2260
     12  O         -4.5520   36.3740   11.2580 O.2    66  LYS66      -0.2867
     13  CB        -2.3550   35.1630   13.3350 C.3    66  LYS66       0.0271
     14  CG        -1.0440   35.5470   14.0230 C.3    66  LYS66       0.0035
     15  CD        -0.1810   34.3530   14.3490 C.3    66  LYS66       0.0206
     16  CE         0.2630   33.5890   13.1410 C.3    66  LYS66       0.1093
     17  NZ         1.0620   32.3630   13.5630 N.3    66  LYS66      -0.1314
     18  N          5.6230   32.6760    7.9480 N.3   102  ASP102     -0.1239
     19  CA         5.9940   31.4050    8.5730 C.3   102  ASP102      0.1674
     20  C          6.0420   30.2880    7.5440 C.2   102  ASP102      0.2266
     21  O          6.9080   29.4220    7.5920 O.2   102  ASP102     -0.2867
     22  CB         5.0360   31.0530    9.7150 C.3   102  ASP102      0.1410
     23  CG         5.2510   31.9260   10.9520 C.2   102  ASP102      0.3668
     24  OD1        6.3470   32.5040   11.1300 O.co2 102  ASP102     -0.2456
     25  OD2        4.3270   32.0140   11.7660 O.co2 102  ASP102     -0.2456
     26  N          0.4840   18.2480   13.2740 N.3   126  GLY126     -0.1210
     27  CA        -0.1310   19.4610   13.7550 C.3   126  GLY126      0.1956
     28  C         -1.0160   20.1040   12.7250 C.2   126  GLY126      0.2612
     29  O         -0.9750   19.7470   11.5420 O.2   126  GLY126     -0.2717
     30  N         -1.8200   21.0510   13.1950 N.am  127  ALA127     -0.1965
     31  CA        -2.7990   21.7520   12.3730 C.3   127  ALA127      0.1728
     32  C         -3.1350   23.1210   12.9700 C.2   127  ALA127      0.2617
     33  O         -4.2530   23.6440   12.7910 O.2   127  ALA127     -0.2715
     34  CB        -4.0880   20.9090   12.2390 C.3   127  ALA127      0.0334
     35  N         -2.1680   23.7000   13.6670 N.am  128  GLY128     -0.1940
     36  CA        -2.3110   25.0240   14.2190 C.3   128  GLY128      0.2014
     37  C         -1.7270   26.0380   13.2440 C.2   128  GLY128      0.2639
     38  O         -1.6340   25.7970   12.0290 O.2   128  GLY128     -0.2714
     39  N         -1.2740   27.1660   13.7720 N.am  129  GLY129     -0.1939
     40  CA        -0.7530   28.2330   12.9290 C.3   129  GLY129      0.2014
     41  C          0.4650   27.8490   12.1120 C.2   129  GLY129      0.2638
     42  O          0.5190   28.1250   10.8980 O.2   129  GLY129     -0.2714
     43  N          1.4400   27.2100   12.7650 N.am  130  ALA130     -0.1977
     44  CA         2.6740   26.7780   12.0980 C.3   130  ALA130      0.1597
     45  C          2.4330   25.7080   11.0310 C.2   130  ALA130      0.2287
     46  O          2.8920   25.8390    9.8980 O.2   130  ALA130     -0.2864
     47  CB         3.7080   26.2610   13.1390 C.3   130  ALA130      0.0319
     48  N         -2.9410   14.8080   13.3700 N.3   150  ASN150     -0.1225
     49  CA        -3.2390   15.6620   14.5020 C.3   150  ASN150      0.1785
     50  C         -4.0430   14.8350   15.4670 C.2   150  ASN150      0.2597
     51  O         -4.8090   13.9520   15.0560 O.2   150  ASN150     -0.2718
     52  CB        -4.0430   16.8930   14.0340 C.3   150  ASN150      0.1169
     53  CG        -4.0720   18.0160   15.0450 C.2   150  ASN150      0.2627
     54  OD1       -3.3090   18.9680   14.9380 O.2   150  ASN150     -0.2716
     55  ND2       -4.9490   17.9160   16.0380 N.am  150  ASN150     -0.0877
     56  N         -3.8580   15.0980   16.7540 N.am  151  ARG151     -0.1979
     57  CA        -4.5750   14.3760   17.7720 C.3   151  ARG151      0.1597
     58  C         -6.0300   14.8380   17.8090 C.2   151  ARG151      0.2287
     59  O         -6.3800   15.8410   17.2110 O.2   151  ARG151     -0.2864
     60  CB        -3.9070   14.5750   19.1360 C.3   151  ARG151      0.0334
     61  CG        -3.9270   16.0140   19.6480 C.3   151  ARG151      0.0492
     62  CD        -3.3810   16.0740   21.0510 C.3   151  ARG151      0.2205
     63  NE        -3.4930   17.3920   21.6290 N.pl3 151  ARG151     -0.0865
     64  CZ        -3.2490   17.6710   22.9030 C.cat 151  ARG151      0.5346
     65  NH1       -2.8830   16.7130   23.7400 N.pl3 151  ARG151      0.1354
     66  NH2       -3.3850   18.9100   23.3480 N.pl3 151  ARG151      0.1354
     67  N         -8.1340   16.7760   19.3240 N.3   153  ASP153     -0.1239
     68  CA        -8.3250   17.9560   20.1470 C.3   153  ASP153      0.1674
     69  C         -9.0980   18.9870   19.3090 C.2   153  ASP153      0.2266
     70  O         -9.6880   18.6260   18.2780 O.2   153  ASP153     -0.2867
     71  CB        -6.9780   18.4970   20.6770 C.3   153  ASP153      0.1410
     72  CG        -6.0210   18.9680   19.5800 C.2   153  ASP153      0.3668
     73  OD1       -4.8310   19.2030   19.9250 O.co2 153  ASP153     -0.2456
     74  OD2       -6.4230   19.1050   18.3970 O.co2 153  ASP153     -0.2456
     75  N         -8.0870   21.1780   17.3060 N.3   155  PHE155     -0.1241
     76  CA        -7.4700   21.4180   16.0000 C.3   155  PHE155      0.1605
     77  C         -7.8130   20.3520   14.9690 C.2   155  PHE155      0.2264
     78  O         -7.5640   20.5440   13.7860 O.2   155  PHE155     -0.2867
     79  CB        -5.9440   21.5280   16.1580 C.3   155  PHE155      0.0534
     80  CG        -5.5060   22.7520   16.9390 C.ar  155  PHE155     -0.0203
     81  CD1       -5.2940   23.9650   16.2880 C.ar  155  PHE155     -0.0042
     82  CD2       -5.3130   22.6990   18.3000 C.ar  155  PHE155     -0.0042
     83  CE1       -4.8980   25.1130   16.9950 C.ar  155  PHE155     -0.0003
     84  CE2       -4.9300   23.8570   19.0310 C.ar  155  PHE155     -0.0003
     85  CZ        -4.7050   25.0490   18.3610 C.ar  155  PHE155     -0.0000
     86  N         -3.6430   11.1970   15.0020 N.3   179  LEU179     -0.1245
     87  CA        -2.3210   10.7700   15.4960 C.3   179  LEU179      0.1561
     88  C         -2.3350    9.4470   16.2340 C.2   179  LEU179      0.2260
     89  O         -1.2910    8.8200   16.3590 O.2   179  LEU179     -0.2867
     90  CB        -1.6750   11.7910   16.4600 C.3   179  LEU179      0.0270
     91  CG        -0.5380   12.6760   16.0030 C.3   179  LEU179      0.0019
     92  CD1        0.0230   13.3520   17.2280 C.3   179  LEU179      0.0001
     93  CD2        0.5740   11.8690   15.3240 C.3   179  LEU179      0.0001
     94  N          4.9720   20.4620   13.4150 N.3   198  GLY198     -0.1210
     95  CA         4.3090   21.7350   13.6050 C.3   198  GLY198      0.1956
     96  C          3.5210   21.7690   14.9120 C.2   198  GLY198      0.2613
     97  O          2.7100   22.6650   15.1060 O.2   198  GLY198     -0.2717
     98  N          3.7450   20.8040   15.8120 N.am  199  THR199     -0.1938
     99  CA         3.0280   20.7740   17.0910 C.3   199  THR199      0.2028
    100  C          3.8610   21.4160   18.1820 C.2   199  THR199      0.2642
    101  O          5.0390   21.7130   17.9770 O.2   199  THR199     -0.2714
    102  CB         2.6980   19.3320   17.5700 C.3   199  THR199      0.1808
    103  OG1        3.9030   18.6530   17.9420 O.3   199  THR199     -0.2208
    104  CG2        1.9220   18.5300   16.4700 C.3   199  THR199      0.0379
    105  N          3.2360   21.6190   19.3500 N.am  200  LYS200     -0.1963
    106  CA         3.9470   22.1290   20.5210 C.3   200  LYS200      0.1728
    107  C          4.7540   21.0280   21.2050 C.2   200  LYS200      0.2616
    108  O          5.4340   21.3020   22.1890 O.2   200  LYS200     -0.2715
    109  CB         2.9980   22.7790   21.5220 C.3   200  LYS200      0.0311
    110  CG         2.3880   24.0620   20.9780 C.3   200  LYS200      0.0038
    111  CD         1.5430   24.7870   22.0010 C.3   200  LYS200      0.0206
    112  CE         1.2320   26.2020   21.4790 C.3   200  LYS200      0.1093
    113  NZ         0.4350   27.0660   22.4050 N.3   200  LYS200     -0.1314
    114  N          4.6790   19.7870   20.7040 N.am  201  VAL201     -0.1977
    115  CA         5.4580   18.7090   21.2960 C.3   201  VAL201      0.1596
    116  C          6.9130   19.0280   20.9840 C.2   201  VAL201      0.2287
    117  O          7.2590   19.3260   19.8590 O.2   201  VAL201     -0.2864
    118  CB         5.0710   17.3200   20.7760 C.3   201  VAL201      0.0276
    119  CG1        6.0380   16.2580   21.3280 C.3   201  VAL201      0.0022
    120  CG2        3.6090   16.9870   21.1280 C.3   201  VAL201      0.0022
    121  N          8.4010   21.4670   22.7300 N.3   203  MET203     -0.1245
    122  CA         8.5330   22.7330   23.4870 C.3   203  MET203      0.1570
    123  C          8.0190   22.5670   24.9120 C.2   203  MET203      0.2261
    124  O          7.0430   21.8570   25.1150 O.2   203  MET203     -0.2867
    125  CB         7.7040   23.8430   22.8100 C.3   203  MET203      0.0387
    126  CG         7.9200   25.2450   23.3700 C.3   203  MET203      0.0595
    127  SD         6.9080   26.5240   22.5560 S.3   203  MET203     -0.1393
    128  CE         5.2660   26.1050   23.0870 C.3   203  MET203      0.0692
    129  N          6.4070   20.2490   27.1760 N.3   206  LEU206     -0.1245
    130  CA         6.5670   18.9890   26.4530 C.3   206  LEU206      0.1561
    131  C          7.9720   18.8400   25.9010 C.2   206  LEU206      0.2260
    132  O          8.1580   18.1720   24.8890 O.2   206  LEU206     -0.2867
    133  CB         5.5920   18.9230   25.2770 C.3   206  LEU206      0.0270
    134  CG         4.1350   19.1860   25.6740 C.3   206  LEU206      0.0019
    135  CD1        3.2420   19.1380   24.4580 C.3   206  LEU206      0.0001
    136  CD2        3.6790   18.1910   26.7230 C.3   206  LEU206      0.0001
    137  N          9.4430   15.2160   25.1860 N.3   209  GLU209     -0.1245
    138  CA         8.5760   14.3610   24.4200 C.3   209  GLU209      0.1567
    139  C          8.8100   14.5660   22.9550 C.2   209  GLU209      0.2260
    140  O          9.2110   15.6530   22.5120 O.2   209  GLU209     -0.2867
    141  CB         7.1060   14.6830   24.7050 C.3   209  GLU209      0.0388
    142  CG         6.7400   14.6120   26.1670 C.3   209  GLU209      0.1160
    143  CD         5.2450   14.8090   26.4050 C.2   209  GLU209      0.3649
    144  OE1        4.4810   14.9480   25.4150 O.co2 209  GLU209     -0.2457
    145  OE2        4.8450   14.8220   27.5810 O.co2 209  GLU209     -0.2457
    146  N          6.9070   13.0690   19.1090 N.3   211  LEU211     -0.1245
    147  CA         5.8200   12.3050   18.4930 C.3   211  LEU211      0.1561
    148  C          6.3160   11.0350   17.7740 C.2   211  LEU211      0.2260
    149  O          5.5170   10.2650   17.2410 O.2   211  LEU211     -0.2867
    150  CB         4.9820   13.1910   17.5760 C.3   211  LEU211      0.0270
    151  CG         4.1410   14.1750   18.3810 C.3   211  LEU211      0.0019
    152  CD1        3.3490   15.0970   17.4550 C.3   211  LEU211      0.0001
    153  CD2        3.2140   13.4270   19.3000 C.3   211  LEU211      0.0001
    154  N          9.5280   23.0560   13.9190 N.3   227  CYS227     -0.1221
    155  CA         9.1150   24.4240   14.1050 C.3   227  CYS227      0.1808
    156  C          9.5410   24.9090   15.4780 C.2   227  CYS227      0.2601
    157  O          9.7830   26.0900   15.6640 O.2   227  CYS227     -0.2717
    158  CB         7.6160   24.5530   13.9760 C.3   227  CYS227      0.0970
    159  SG         7.0960   24.3130   12.3200 S.3   227  CYS227     -0.0800
    160  N          9.6400   24.0050   16.4480 N.am  228  VAL228     -0.1965
    161  CA        10.0090   24.4230   17.8000 C.3   228  VAL228      0.1727
    162  C         11.4580   24.9380   17.7840 C.2   228  VAL228      0.2616
    163  O         12.3240   24.2780   17.2090 O.2   228  VAL228     -0.2715
    164  CB         9.8670   23.2570   18.8130 C.3   228  VAL228      0.0290
    165  CG1       10.4190   23.6640   20.1870 C.3   228  VAL228      0.0023
    166  CG2        8.4070   22.7660   18.9040 C.3   228  VAL228      0.0023
    167  N         11.7120   26.1020   18.3950 N.am  229  TYR229     -0.1974
    168  CA        13.0910   26.6550   18.4730 C.3   229  TYR229      0.1639
    169  C         13.6580   26.8120   19.8970 C.2   229  TYR229      0.2290
    170  O         14.8250   27.1890   20.0660 O.2   229  TYR229     -0.2864
    171  CB        13.2300   27.9560   17.6940 C.3   229  TYR229      0.0560
    172  CG        12.3390   29.0810   18.1310 C.ar  229  TYR229     -0.0198
    173  CD1       12.7410   29.9790   19.1150 C.ar  229  TYR229     -0.0009
    174  CD2       11.1040   29.2740   17.5310 C.ar  229  TYR229     -0.0009
    175  CE1       11.9120   31.0270   19.5030 C.ar  229  TYR229      0.0417
    176  CE2       10.2920   30.2980   17.9080 C.ar  229  TYR229      0.0417
    177  CZ        10.6940   31.1780   18.8770 C.ar  229  TYR229      0.1957
    178  OH         9.8400   32.2050   19.2170 O.3   229  TYR229     -0.2866
    179  N         14.3170   24.8640   14.2020 N.3   250  GLY250     -0.1225
    180  CA        13.3820   25.9910   14.3330 C.3   250  GLY250      0.1811
    181  C         13.9440   27.3610   13.9920 C.2   250  GLY250      0.2280
    182  O         13.1940   28.2350   13.5040 O.2   250  GLY250     -0.2866
    183  N         13.5620   28.3890   10.2160 N.3   253  MET253     -0.1230
    184  CA        12.2860   28.9800    9.9050 C.3   253  MET253      0.1702
    185  C         12.1870   30.3890   10.4920 C.2   253  MET253      0.2592
    186  O         11.6760   31.3090    9.8550 O.2   253  MET253     -0.2718
    187  CB        11.1950   28.1040   10.5160 C.3   253  MET253      0.0401
    188  CG         9.7850   28.5990   10.4010 C.3   253  MET253      0.0596
    189  SD         8.6470   27.4630   11.2980 S.3   253  MET253     -0.1393
    190  CE         7.0940   28.2450   10.8720 C.3   253  MET253      0.0692
    191  N         12.6630   30.5430   11.7170 N.am  254  LEU254     -0.1980
    192  CA        12.5730   31.8130   12.4030 C.3   254  LEU254      0.1596
    193  C         13.3790   32.8900   11.6760 C.2   254  LEU254      0.2287
    194  O         12.8860   34.0040   11.4760 O.2   254  LEU254     -0.2864
    195  CB        13.0030   31.6650   13.8590 C.3   254  LEU254      0.0297
    196  CG        12.8620   32.8310   14.8510 C.3   254  LEU254      0.0022
    197  CD1       11.4120   33.2600   15.0430 C.3   254  LEU254      0.0001
    198  CD2       13.4340   32.4070   16.1760 C.3   254  LEU254      0.0001
    199  N         11.7470   33.4960    8.1050 N.3   257  GLN257     -0.1245
    200  CA        10.4690   34.1490    8.3850 C.3   257  GLN257      0.1566
    201  C         10.7250   35.6550    8.5710 C.2   257  GLN257      0.2260
    202  O         10.0200   36.5310    8.0310 O.2   257  GLN257     -0.2867
    203  CB         9.9710   33.4830    9.7000 C.3   257  GLN257      0.0367
    204  CG         8.9000   34.0500   10.4430 C.3   257  GLN257      0.0905
    205  CD         9.1670   35.4240   10.9590 C.2   257  GLN257      0.2608
    206  OE1        8.4260   36.3120   10.6220 O.2   257  GLN257     -0.2717
    207  NE2       10.2370   35.6170   11.7620 N.am  257  GLN257     -0.0878
@<TRIPOS>BOND
     1    20    21    2
     2    20    19    1
     3    18    19    1
     4   202   201    2
     5   199   200    1
     6   200   201    1
     7   200   203    1
     8    19    22    1
     9   203   204    1
    10    22    23    1
    11   186   185    2
    12    46    45    2
    13   184   183    1
    14   184   185    1
    15   184   187    1
    16   188   187    1
    17   188   189    1
    18   204   205    1
    19   185   191   am
    20   206   205    2
    21   190   189    1
    22    42    41    2
    23    23    24   ar
    24    23    25   ar
    25   205   207   am
    26    45    44    1
    27    12    11    2
    28   194   193    2
    29    29    28    2
    30   193   192    1
    31   191   192    1
    32    38    37    2
    33    44    43    1
    34    44    47    1
    35    41    43   am
    36    41    40    1
    37    34    31    1
    38   159   158    1
    39    31    32    1
    40    31    30    1
    41   192   195    1
    42    11    10    1
    43    28    30   am
    44    28    27    1
    45    33    32    2
    46    40    39    1
    47    32    35   am
    48    16    17    1
    49    16    15    1
    50    37    39   am
    51    37    36    1
    52    26    27    1
    53    10    13    1
    54    10     9    1
    55    13    14    1
    56    48    49    1
    57    94    95    1
    58   182   181    2
    59    95    96    1
    60    35    36    1
    61    78    77    2
    62   195   196    1
    63   154   155    1
    64   158   155    1
    65   181   180    1
    66    14    15    1
    67    52    49    1
    68    52    53    1
    69   155   156    1
    70   179   180    1
    71    49    50    1
    72   196   197    1
    73   196   198    1
    74    96    97    2
    75    96    98   am
    76    54    53    2
    77    77    76    1
    78    86    87    1
    79    53    55   am
    80    51    50    2
    81    93    91    1
    82    50    56   am
    83   156   157    2
    84   156   160   am
    85    87    88    1
    86    87    90    1
    87    98    99    1
    88    76    79    1
    89    76    75    1
    90    91    90    1
    91    91    92    1
    92    79    80    1
    93    88    89    2
    94    81    80   ar
    95    81    83   ar
    96   160   161    1
    97   104   102    1
    98    56    57    1
    99    80    82   ar
   100    83    85   ar
   101    99   102    1
   102    99   100    1
   103   163   162    2
   104    59    58    2
   105   149   148    2
   106   152   151    1
   107   174   176   ar
   108   174   172   ar
   109   102   103    1
   110   150   151    1
   111   150   147    1
   112   171   172    1
   113   171   168    1
   114    57    58    1
   115    57    60    1
   116   148   147    1
   117   162   161    1
   118   162   167   am
   119   161   164    1
   120   176   177   ar
   121     1     2    1
   122   101   100    2
   123   172   173   ar
   124   100   105   am
   125    70    69    2
   126    82    84   ar
   127    85    84   ar
   128   151   153    1
   129   167   168    1
   130    74    72   ar
   131   168   169    1
   132   147   146    1
   133     2     5    1
   134     2     3    1
   135   164   166    1
   136   164   165    1
   137   177   178    1
   138   177   175   ar
   139   173   175   ar
   140    60    61    1
   141    69    68    1
   142    67    68    1
   143   105   106    1
   144    72    73   ar
   145    72    71    1
   146     5     6    1
   147    61    62    1
   148     3     4    2
   149   117   116    2
   150   169   170    2
   151    68    71    1
   152   106   107    1
   153   106   109    1
   154   114   107   am
   155   114   115    1
   156   118   120    1
   157   118   115    1
   158   118   119    1
   159     6     7    1
   160   110   109    1
   161   110   111    1
   162   116   115    1
   163     8     7    1
   164    62    63    1
   165   107   108    2
   166   112   111    1
   167   112   113    1
   168    63    64    2
   169   140   139    2
   170   127   128    1
   171   127   126    1
   172   121   122    1
   173   125   126    1
   174   125   122    1
   175    64    66    1
   176    64    65    1
   177   139   138    1
   178   122   123    1
   179   138   141    1
   180   138   137    1
   181   135   134    1
   182   141   142    1
   183   132   131    2
   184   123   124    2
   185   133   134    1
   186   133   130    1
   187   144   143   ar
   188   134   136    1
   189   131   130    1
   190   142   143    1
   191   143   145   ar
   192   130   129    1
