@<TRIPOS>MOLECULE
tmp/3t4hA00.pdb
 161 154 0 0 0
SMALL
GASTEIGER

@<TRIPOS>ATOM
      1  N         -8.6050  -13.4560    4.1470 N.3    38  THR38      -0.1218
      2  CA        -8.4510  -12.8580    5.4610 C.3    38  THR38       0.1862
      3  C         -8.5300  -13.9300    6.5350 C.2    38  THR38       0.2287
      4  O         -9.0920  -15.0040    6.3150 O.2    38  THR38      -0.2866
      5  CB        -9.5390  -11.7850    5.7230 C.3    38  THR38       0.1770
      6  OG1      -10.8190  -12.4160    5.8370 O.3    38  THR38      -0.2211
      7  CG2       -9.5690  -10.7870    4.5870 C.3    38  THR38       0.0375
      8  N        -10.1610  -11.3970   -0.2760 N.3    44  MET44      -0.1230
      9  CA       -10.0080   -9.9490   -0.4750 C.3    44  MET44       0.1702
     10  C        -10.3790   -9.6160   -1.9120 C.2    44  MET44       0.2593
     11  O        -10.1250  -10.4080   -2.8120 O.2    44  MET44      -0.2718
     12  CB        -8.5800   -9.5020   -0.1960 C.3    44  MET44       0.0401
     13  CG        -8.1810   -9.7330    1.2570 C.3    44  MET44       0.0596
     14  SD        -6.4690   -9.1460    1.4710 S.3    44  MET44      -0.1393
     15  CE        -5.9450  -10.0610    2.9110 C.3    44  MET44       0.0692
     16  N        -11.0020   -8.4510   -2.1080 N.am   45  SER45      -0.1952
     17  CA       -11.3150   -7.9970   -3.4630 C.3    45  SER45       0.1924
     18  C        -10.0970   -7.3500   -4.1050 C.2    45  SER45       0.2314
     19  O         -9.9510   -7.3580   -5.3350 O.2    45  SER45      -0.2863
     20  CB       -12.4990   -7.0360   -3.4610 C.3    45  SER45       0.2116
     21  OG       -12.2400   -5.9250   -2.6340 O.3    45  SER45      -0.2180
     22  N         -3.0240   -8.7660   -4.6150 N.3    48  MET48      -0.1245
     23  CA        -1.7720   -8.2680   -4.0500 C.3    48  MET48       0.1570
     24  C         -0.5610   -9.0670   -4.5240 C.2    48  MET48       0.2261
     25  O         -0.6670  -10.2460   -4.8940 O.2    48  MET48      -0.2867
     26  CB        -1.8110   -8.3260   -2.5140 C.3    48  MET48       0.0387
     27  CG        -2.7910   -7.3240   -1.8700 C.3    48  MET48       0.0595
     28  SD        -3.0030   -7.7640   -0.1220 S.3    48  MET48      -0.1393
     29  CE        -3.9720   -6.3610    0.4290 C.3    48  MET48       0.0692
     30  N          4.2880   -8.7450    2.6200 N.3    56  TRP56      -0.1241
     31  CA         3.1450   -8.9650    3.4930 C.3    56  TRP56       0.1605
     32  C          2.2790  -10.0780    2.9530 C.2    56  TRP56       0.2264
     33  O          1.9240  -10.0690    1.7720 O.2    56  TRP56      -0.2867
     34  CB         2.3260   -7.6820    3.6050 C.3    56  TRP56       0.0550
     35  CG         1.2480   -7.7560    4.6320 C.ar   56  TRP56       0.0003
     36  CD1        1.3760   -7.4670    5.9590 C.ar   56  TRP56       0.0946
     37  CD2       -0.1250   -8.1360    4.4320 C.ar   56  TRP56       0.0152
     38  NE1        0.1730   -7.6390    6.5960 N.ar   56  TRP56      -0.2442
     39  CE2       -0.7590   -8.0470    5.6870 C.ar   56  TRP56       0.0810
     40  CE3       -0.8740   -8.5370    3.3210 C.ar   56  TRP56       0.0012
     41  CZ2       -2.1110   -8.3410    5.8580 C.ar   56  TRP56       0.0191
     42  CZ3       -2.2190   -8.8310    3.4980 C.ar   56  TRP56       0.0001
     43  CH2       -2.8250   -8.7310    4.7570 C.ar   56  TRP56       0.0015
     44  N         -1.4010  -12.7450    9.9170 N.3    63  TYR63      -0.1241
     45  CA        -0.6480  -11.9990    8.9150 C.3    63  TYR63       0.1605
     46  C          0.8020  -12.0650    9.2850 C.2    63  TYR63       0.2264
     47  O          1.1470  -12.1900   10.4610 O.2    63  TYR63      -0.2867
     48  CB        -0.9740  -10.5110    8.9730 C.3    63  TYR63       0.0534
     49  CG        -2.4080  -10.1210    8.8240 C.ar   63  TYR63      -0.0201
     50  CD1       -3.1800  -10.5860    7.7650 C.ar   63  TYR63      -0.0009
     51  CD2       -2.9930   -9.2520    9.7420 C.ar   63  TYR63      -0.0009
     52  CE1       -4.4980  -10.2000    7.6330 C.ar   63  TYR63       0.0417
     53  CE2       -4.3020   -8.8650    9.6180 C.ar   63  TYR63       0.0417
     54  CZ        -5.0510   -9.3380    8.5640 C.ar   63  TYR63       0.1957
     55  OH        -6.3630   -8.9460    8.4450 O.3    63  TYR63      -0.2866
     56  N          5.0610  -10.7350    7.7750 N.3    65  TYR65      -0.1241
     57  CA         6.0050  -10.4310    6.7240 C.3    65  TYR65       0.1605
     58  C          6.9390  -11.6060    6.5620 C.2    65  TYR65       0.2264
     59  O          7.5030  -12.1020    7.5440 O.2    65  TYR65      -0.2867
     60  CB         6.8100   -9.1970    7.0680 C.3    65  TYR65       0.0534
     61  CG         6.0480   -7.9250    6.8940 C.ar   65  TYR65      -0.0201
     62  CD1        5.4070   -7.3260    7.9680 C.ar   65  TYR65      -0.0009
     63  CD2        5.9590   -7.3260    5.6430 C.ar   65  TYR65      -0.0009
     64  CE1        4.7120   -6.1450    7.8140 C.ar   65  TYR65       0.0417
     65  CE2        5.2730   -6.1440    5.4810 C.ar   65  TYR65       0.0417
     66  CZ         4.6520   -5.5620    6.5600 C.ar   65  TYR65       0.1957
     67  OH         3.9590   -4.3850    6.4080 O.3    65  TYR65      -0.2866
     68  N          4.3500   -3.5540   -0.6700 N.3   105  LEU105     -0.1245
     69  CA         3.1250   -4.2690   -1.0130 C.3   105  LEU105      0.1561
     70  C          2.4710   -3.5950   -2.2030 C.2   105  LEU105      0.2260
     71  O          2.2800   -2.3880   -2.2200 O.2   105  LEU105     -0.2867
     72  CB         2.1550   -4.2620    0.1820 C.3   105  LEU105      0.0270
     73  CG         0.7600   -4.8770   -0.0310 C.3   105  LEU105      0.0019
     74  CD1        0.8370   -6.3390   -0.3160 C.3   105  LEU105      0.0001
     75  CD2       -0.0480   -4.6370    1.2420 C.3   105  LEU105      0.0001
     76  N         -0.8170   -3.3670   -4.4110 N.3   107  ASN107     -0.1240
     77  CA        -2.2690   -3.6250   -4.3860 C.3   107  ASN107      0.1653
     78  C         -2.8500   -3.2880   -5.7510 C.2   107  ASN107      0.2266
     79  O         -2.5740   -2.2140   -6.2870 O.2   107  ASN107     -0.2867
     80  CB        -2.9350   -2.7280   -3.3260 C.3   107  ASN107      0.1155
     81  CG        -2.6980   -3.2100   -1.8940 C.2   107  ASN107      0.2627
     82  OD1       -3.0680   -2.5300   -0.9280 O.2   107  ASN107     -0.2716
     83  ND2       -2.0940   -4.3610   -1.7460 N.am  107  ASN107     -0.0877
     84  N        -12.1240   -2.9120   -2.8720 N.3   114  LYS114     -0.1231
     85  CA       -12.0770   -1.9510   -1.7650 C.3   114  LYS114      0.1693
     86  C        -11.1960   -2.4970   -0.6700 C.2   114  LYS114      0.2592
     87  O        -10.8900   -3.6870   -0.6570 O.2   114  LYS114     -0.2718
     88  CB       -13.4870   -1.7190   -1.2050 C.3   114  LYS114      0.0285
     89  CG       -14.2100   -2.9800   -0.7420 C.3   114  LYS114      0.0035
     90  CD       -15.5550   -2.6250   -0.1130 C.3   114  LYS114      0.0206
     91  CE       -15.9790   -3.6710    0.9130 C.3   114  LYS114      0.1093
     92  NZ       -17.2330   -4.3740    0.5250 N.3   114  LYS114     -0.1314
     93  N        -10.8100   -1.6260    0.2590 N.am  115  LEU115     -0.1966
     94  CA       -10.1810   -2.0640    1.5060 C.3   115  LEU115      0.1728
     95  C        -11.0690   -1.6330    2.6450 C.2   115  LEU115      0.2616
     96  O        -11.4860   -0.4800    2.7200 O.2   115  LEU115     -0.2715
     97  CB        -8.8090   -1.4270    1.6960 C.3   115  LEU115      0.0311
     98  CG        -7.6450   -1.8870    0.8430 C.3   115  LEU115      0.0022
     99  CD1       -6.3660   -1.2890    1.4010 C.3   115  LEU115      0.0001
    100  CD2       -7.5570   -3.4160    0.8170 C.3   115  LEU115      0.0001
    101  N        -11.3640   -2.5510    3.5470 N.am  116  SER116     -0.1950
    102  CA       -12.1590   -2.2220    4.7200 C.3   116  SER116      0.1924
    103  C        -11.3250   -1.4200    5.7070 C.2   116  SER116      0.2314
    104  O        -10.0890   -1.4380    5.6510 O.2   116  SER116     -0.2863
    105  CB       -12.6760   -3.4910    5.3970 C.3   116  SER116      0.2116
    106  OG       -11.6150   -4.1970    6.0170 O.3   116  SER116     -0.2180
    107  N         -9.1450   -0.2000    8.5830 N.3   118  HIS118     -0.1226
    108  CA        -8.1410   -0.9440    9.3370 C.3   118  HIS118      0.1752
    109  C         -6.9590   -0.0750    9.7180 C.2   118  HIS118      0.2596
    110  O         -6.7710    1.0000    9.1680 O.2   118  HIS118     -0.2718
    111  CB        -7.6010   -2.0920    8.4740 C.3   118  HIS118      0.0759
    112  CG        -6.8070   -1.6230    7.3010 C.ar  118  HIS118      0.0818
    113  ND1       -7.3940   -1.2100    6.1240 N.ar  118  HIS118     -0.2268
    114  CD2       -5.4710   -1.4470    7.1300 C.ar  118  HIS118      0.1154
    115  CE1       -6.4600   -0.8140    5.2800 C.ar  118  HIS118      0.1986
    116  NE2       -5.2830   -0.9530    5.8670 N.ar  118  HIS118     -0.2212
    117  N         -6.1530   -0.5610   10.6630 N.am  119  GLN119     -0.1965
    118  CA        -4.8580    0.0640   10.9350 C.3   119  GLN119      0.1733
    119  C         -3.7050   -0.8010   10.4050 C.2   119  GLN119      0.2616
    120  O         -3.8190   -2.0300   10.3340 O.2   119  GLN119     -0.2715
    121  CB        -4.6540    0.2070   12.4330 C.3   119  GLN119      0.0408
    122  CG        -5.5230    1.2210   13.1060 C.3   119  GLN119      0.0908
    123  CD        -5.2830    1.2000   14.6030 C.2   119  GLN119      0.2608
    124  OE1       -5.5000    0.1760   15.2750 O.2   119  GLN119     -0.2717
    125  NE2       -4.8320    2.3240   15.1430 N.am  119  GLN119     -0.0878
    126  N         -2.6040   -0.1510   10.0310 N.am  120  ASP120     -0.1971
    127  CA        -1.3750   -0.8430    9.6630 C.3   120  ASP120      0.1709
    128  C         -0.4930   -0.9480   10.8950 C.2   120  ASP120      0.2293
    129  O          0.2650   -0.0340   11.1880 O.2   120  ASP120     -0.2864
    130  CB        -0.6370   -0.0510    8.5720 C.3   120  ASP120      0.1436
    131  CG        -1.2910   -0.1610    7.2030 C.2   120  ASP120      0.3671
    132  OD1       -2.5090   -0.4240    7.1060 O.co2 120  ASP120     -0.2456
    133  OD2       -0.5500    0.0090    6.2120 O.co2 120  ASP120     -0.2456
    134  N          1.3260   -4.0100   11.6790 N.3   122  ASP122     -0.1225
    135  CA         2.0490   -5.2870   11.5900 C.3   122  ASP122      0.1805
    136  C          3.5650   -5.1210   11.6460 C.2   122  ASP122      0.2597
    137  O          4.2950   -6.1050   11.7790 O.2   122  ASP122     -0.2718
    138  CB         1.6580   -6.0450   10.3130 C.3   122  ASP122      0.1424
    139  CG         0.2370   -6.5910   10.3670 C.2   122  ASP122      0.3668
    140  OD1       -0.3780   -6.7500    9.2920 O.co2 122  ASP122     -0.2456
    141  OD2       -0.2640   -6.8610   11.4850 O.co2 122  ASP122     -0.2456
    142  N          4.0360   -3.8790   11.5510 N.am  123  GLU123     -0.1979
    143  CA         5.4720   -3.5880   11.4700 C.3   123  GLU123      0.1602
    144  C          6.0450   -3.4670   12.8770 C.2   123  GLU123      0.2287
    145  O          5.3240   -3.0830   13.7970 O.2   123  GLU123     -0.2864
    146  CB         5.6870   -2.2930   10.6690 C.3   123  GLU123      0.0415
    147  CG         5.1270   -2.3250    9.2260 C.3   123  GLU123      0.1163
    148  CD         3.5930   -2.3970    9.1550 C.2   123  GLU123      0.3649
    149  OE1        3.0570   -3.1170    8.2890 O.co2 123  GLU123     -0.2457
    150  OE2        2.9170   -1.7350    9.9640 O.co2 123  GLU123     -0.2457
    151  N          7.2160   -0.1120    3.2120 N.3   197  ARG197     -0.1245
    152  CA         7.2450   -0.3120    4.6560 C.3   197  ARG197      0.1563
    153  C          8.6290   -0.7250    5.1160 C.2   197  ARG197      0.2260
    154  O          9.3810   -1.3730    4.3750 O.2   197  ARG197     -0.2867
    155  CB         6.2320   -1.3990    5.0270 C.3   197  ARG197      0.0307
    156  CG         4.8130   -1.0930    4.5420 C.3   197  ARG197      0.0489
    157  CD         4.1640   -2.2880    3.8030 C.3   197  ARG197      0.2205
    158  NE         2.8040   -1.9410    3.3510 N.pl3 197  ARG197     -0.0865
    159  CZ         1.7450   -1.8460    4.1580 C.cat 197  ARG197      0.5346
    160  NH1        1.8690   -2.0850    5.4510 N.pl3 197  ARG197      0.1354
    161  NH2        0.5470   -1.5090    3.6790 N.pl3 197  ARG197      0.1354
@<TRIPOS>BOND
     1    79    78    2
     2    78    77    1
     3    19    18    2
     4    25    24    2
     5    22    23    1
     6    24    23    1
     7    76    77    1
     8    77    80    1
     9    18    17    1
    10    23    26    1
    11    17    20    1
    12    17    16    1
    13    20    21    1
    14    80    81    1
    15    84    85    1
    16    11    10    2
    17    26    27    1
    18    71    70    2
    19    70    69    1
    20    16    10   am
    21    10     9    1
    22    81    83   am
    23    81    82    2
    24    27    28    1
    25    85    88    1
    26    85    86    1
    27    88    89    1
    28    69    68    1
    29    69    72    1
    30    89    90    1
    31    86    87    2
    32    86    93   am
    33     9     8    1
    34     9    12    1
    35    74    73    1
    36    12    13    1
    37    28    29    1
    38    90    91    1
    39    73    72    1
    40    73    75    1
    41    93    94    1
    42    92    91    1
    43   100    98    1
    44    98    99    1
    45    98    97    1
    46    13    14    1
    47    14    15    1
    48    94    97    1
    49    94    95    1
    50    33    32    2
    51    30    31    1
    52    95    96    2
    53    95   101   am
    54    32    31    1
    55   151   152    1
    56    40    42   ar
    57    40    37   ar
    58   158   157    1
    59   158   159    2
    60    31    34    1
    61    42    43   ar
    62   101   102    1
    63    34    35    1
    64   161   159    1
    65   157   156    1
    66     1     2    1
    67   159   160    1
    68   154   153    2
    69    37    35   ar
    70    37    39   ar
    71   156   155    1
    72     7     5    1
    73    35    36   ar
    74   152   155    1
    75   152   153    1
    76   102   105    1
    77   102   103    1
    78    43    41   ar
    79   115   116   ar
    80   115   113   ar
    81   105   106    1
    82     2     5    1
    83     2     3    1
    84    65    63   ar
    85    65    66   ar
    86    63    61   ar
    87   104   103    2
    88    39    41   ar
    89    39    38   ar
    90     5     6    1
    91   116   114   ar
    92    36    38   ar
    93   113   112   ar
    94   133   131   ar
    95     4     3    2
    96    67    66    1
    97    66    64   ar
    98    58    57    1
    99    58    59    2
   100    57    60    1
   101    57    56    1
   102    61    60    1
   103    61    62   ar
   104   132   131   ar
   105   114   112   ar
   106   131   130    1
   107   112   111    1
   108    52    50   ar
   109    52    54   ar
   110    50    49   ar
   111    64    62   ar
   112   149   148   ar
   113    55    54    1
   114   111   108    1
   115    54    53   ar
   116   130   127    1
   117   107   108    1
   118    49    48    1
   119    49    51   ar
   120    45    48    1
   121    45    46    1
   122    45    44    1
   123   148   147    1
   124   148   150   ar
   125   110   109    2
   126   147   146    1
   127    46    47    2
   128   140   139   ar
   129   108   109    1
   130    53    51   ar
   131   127   126    1
   132   127   128    1
   133   109   117   am
   134   126   119   am
   135   138   139    1
   136   138   135    1
   137   120   119    2
   138   139   141   ar
   139   119   118    1
   140   117   118    1
   141   146   143    1
   142   128   129    2
   143   118   121    1
   144   143   142    1
   145   143   144    1
   146   142   136   am
   147   135   136    1
   148   135   134    1
   149   136   137    2
   150   121   122    1
   151   144   145    2
   152   122   123    1
   153   123   125   am
   154   123   124    2
