@<TRIPOS>MOLECULE
tmp/3t4hA01.pdb
 203 190 0 0 0
SMALL
GASTEIGER

@<TRIPOS>ATOM
      1  N         -3.0240   -8.7660   -4.6150 N.3    48  MET48      -0.1245
      2  CA        -1.7720   -8.2680   -4.0500 C.3    48  MET48       0.1570
      3  C         -0.5610   -9.0670   -4.5240 C.2    48  MET48       0.2261
      4  O         -0.6670  -10.2460   -4.8940 O.2    48  MET48      -0.2867
      5  CB        -1.8110   -8.3260   -2.5140 C.3    48  MET48       0.0387
      6  CG        -2.7910   -7.3240   -1.8700 C.3    48  MET48       0.0595
      7  SD        -3.0030   -7.7640   -0.1220 S.3    48  MET48      -0.1393
      8  CE        -3.9720   -6.3610    0.4290 C.3    48  MET48       0.0692
      9  N          4.3500   -3.5540   -0.6700 N.3   105  LEU105     -0.1245
     10  CA         3.1250   -4.2690   -1.0130 C.3   105  LEU105      0.1561
     11  C          2.4710   -3.5950   -2.2030 C.2   105  LEU105      0.2260
     12  O          2.2800   -2.3880   -2.2200 O.2   105  LEU105     -0.2867
     13  CB         2.1550   -4.2620    0.1820 C.3   105  LEU105      0.0270
     14  CG         0.7600   -4.8770   -0.0310 C.3   105  LEU105      0.0019
     15  CD1        0.8370   -6.3390   -0.3160 C.3   105  LEU105      0.0001
     16  CD2       -0.0480   -4.6370    1.2420 C.3   105  LEU105      0.0001
     17  N         -0.8170   -3.3670   -4.4110 N.3   107  ASN107     -0.1240
     18  CA        -2.2690   -3.6250   -4.3860 C.3   107  ASN107      0.1653
     19  C         -2.8500   -3.2880   -5.7510 C.2   107  ASN107      0.2266
     20  O         -2.5740   -2.2140   -6.2870 O.2   107  ASN107     -0.2867
     21  CB        -2.9350   -2.7280   -3.3260 C.3   107  ASN107      0.1155
     22  CG        -2.6980   -3.2100   -1.8940 C.2   107  ASN107      0.2627
     23  OD1       -3.0680   -2.5300   -0.9280 O.2   107  ASN107     -0.2716
     24  ND2       -2.0940   -4.3610   -1.7460 N.am  107  ASN107     -0.0877
     25  N         -6.4840   -2.8800   -7.8280 N.3   109  TYR109     -0.1241
     26  CA        -7.9250   -2.7130   -7.6720 C.3   109  TYR109      0.1605
     27  C         -8.5810   -2.8140   -9.0380 C.2   109  TYR109      0.2264
     28  O         -8.3370   -1.9890   -9.8970 O.2   109  TYR109     -0.2867
     29  CB        -8.2380   -1.3150   -7.1090 C.3   109  TYR109      0.0534
     30  CG        -7.7500   -1.1170   -5.6900 C.ar  109  TYR109     -0.0201
     31  CD1       -6.4160   -0.8840   -5.4370 C.ar  109  TYR109     -0.0009
     32  CD2       -8.6380   -1.1720   -4.6190 C.ar  109  TYR109     -0.0009
     33  CE1       -5.9530   -0.7200   -4.1310 C.ar  109  TYR109      0.0417
     34  CE2       -8.1820   -1.0010   -3.3190 C.ar  109  TYR109      0.0417
     35  CZ        -6.8520   -0.7780   -3.0820 C.ar  109  TYR109      0.1957
     36  OH        -6.4070   -0.6090   -1.7830 O.3   109  TYR109     -0.2866
     37  N        -10.8100   -1.6260    0.2590 N.3   115  LEU115     -0.1245
     38  CA       -10.1810   -2.0640    1.5060 C.3   115  LEU115      0.1561
     39  C        -11.0690   -1.6330    2.6450 C.2   115  LEU115      0.2260
     40  O        -11.4860   -0.4800    2.7200 O.2   115  LEU115     -0.2867
     41  CB        -8.8090   -1.4270    1.6960 C.3   115  LEU115      0.0270
     42  CG        -7.6450   -1.8870    0.8430 C.3   115  LEU115      0.0019
     43  CD1       -6.3660   -1.2890    1.4010 C.3   115  LEU115      0.0001
     44  CD2       -7.5570   -3.4160    0.8170 C.3   115  LEU115      0.0001
     45  N         -9.1450   -0.2000    8.5830 N.3   118  HIS118     -0.1241
     46  CA        -8.1410   -0.9440    9.3370 C.3   118  HIS118      0.1621
     47  C         -6.9590   -0.0750    9.7180 C.2   118  HIS118      0.2264
     48  O         -6.7710    1.0000    9.1680 O.2   118  HIS118     -0.2867
     49  CB        -7.6010   -2.0920    8.4740 C.3   118  HIS118      0.0745
     50  CG        -6.8070   -1.6230    7.3010 C.ar  118  HIS118      0.0817
     51  ND1       -7.3940   -1.2100    6.1240 N.ar  118  HIS118     -0.2268
     52  CD2       -5.4710   -1.4470    7.1300 C.ar  118  HIS118      0.1154
     53  CE1       -6.4600   -0.8140    5.2800 C.ar  118  HIS118      0.1986
     54  NE2       -5.2830   -0.9530    5.8670 N.ar  118  HIS118     -0.2212
     55  N         -2.6040   -0.1510   10.0310 N.3   120  ASP120     -0.1239
     56  CA        -1.3750   -0.8430    9.6630 C.3   120  ASP120      0.1674
     57  C         -0.4930   -0.9480   10.8950 C.2   120  ASP120      0.2266
     58  O          0.2650   -0.0340   11.1880 O.2   120  ASP120     -0.2867
     59  CB        -0.6370   -0.0510    8.5720 C.3   120  ASP120      0.1410
     60  CG        -1.2910   -0.1610    7.2030 C.2   120  ASP120      0.3668
     61  OD1       -2.5090   -0.4240    7.1060 O.co2 120  ASP120     -0.2456
     62  OD2       -0.5500    0.0090    6.2120 O.co2 120  ASP120     -0.2456
     63  N          4.9170    5.0530    6.3630 N.3   130  ILE130     -0.1245
     64  CA         4.6360    4.2700    5.1750 C.3   130  ILE130      0.1561
     65  C          4.5210    5.2400    4.0160 C.2   130  ILE130      0.2260
     66  O          3.9680    6.3200    4.1730 O.2   130  ILE130     -0.2867
     67  CB         3.3400    3.4320    5.3610 C.3   130  ILE130      0.0252
     68  CG1        3.6200    2.3050    6.3500 C.3   130  ILE130      0.0019
     69  CG2        2.8140    2.8910    4.0160 C.3   130  ILE130      0.0019
     70  CD1        2.4030    1.4900    6.7220 C.3   130  ILE130      0.0001
     71  N          3.0060    5.7690    0.3110 N.3   132  SER132     -0.1217
     72  CA         1.9350    5.2230   -0.5150 C.3   132  SER132      0.1889
     73  C          1.9080    5.9140   -1.8790 C.2   132  SER132      0.2288
     74  O          1.8930    7.1430   -1.9550 O.2   132  SER132     -0.2866
     75  CB         0.6080    5.4450    0.2080 C.3   132  SER132      0.2089
     76  OG        -0.4900    5.1600   -0.6420 O.3   132  SER132     -0.2183
     77  N        -10.0250    7.6090   -0.7660 N.3   141  PHE141     -0.1241
     78  CA        -9.3720    7.1530    0.4530 C.3   141  PHE141      0.1605
     79  C        -10.1210    7.7170    1.6570 C.2   141  PHE141      0.2264
     80  O        -10.4940    8.8950    1.6810 O.2   141  PHE141     -0.2867
     81  CB        -7.9410    7.6730    0.4400 C.3   141  PHE141      0.0534
     82  CG        -7.1240    7.2750    1.6250 C.ar  141  PHE141     -0.0203
     83  CD1       -6.6700    5.9800    1.7550 C.ar  141  PHE141     -0.0042
     84  CD2       -6.7730    8.2100    2.5840 C.ar  141  PHE141     -0.0042
     85  CE1       -5.8960    5.6100    2.8410 C.ar  141  PHE141     -0.0003
     86  CE2       -5.9970    7.8410    3.6780 C.ar  141  PHE141     -0.0003
     87  CZ        -5.5640    6.5440    3.8010 C.ar  141  PHE141     -0.0000
     88  N         -9.9940    8.1200    5.9340 N.3   143  PHE143     -0.1241
     89  CA        -9.1620    7.9040    7.1060 C.3   143  PHE143      0.1605
     90  C         -9.7840    8.6070    8.2740 C.2   143  PHE143      0.2264
     91  O        -10.4060    9.6640    8.1250 O.2   143  PHE143     -0.2867
     92  CB        -7.7370    8.4040    6.8770 C.3   143  PHE143      0.0534
     93  CG        -7.6640    9.8500    6.4740 C.ar  143  PHE143     -0.0203
     94  CD1       -7.3640   10.8240    7.4000 C.ar  143  PHE143     -0.0042
     95  CD2       -7.9130   10.2320    5.1530 C.ar  143  PHE143     -0.0042
     96  CE1       -7.3050   12.1540    7.0360 C.ar  143  PHE143     -0.0003
     97  CE2       -7.8570   11.5580    4.7860 C.ar  143  PHE143     -0.0003
     98  CZ        -7.5480   12.5220    5.7330 C.ar  143  PHE143     -0.0000
     99  N         -7.5000   10.0970   -4.2460 N.3   157  LEU157     -0.1245
    100  CA        -6.1010    9.8710   -4.6120 C.3   157  LEU157      0.1561
    101  C         -6.0850    9.5660   -6.0910 C.2   157  LEU157      0.2260
    102  O         -6.8200    8.6980   -6.5740 O.2   157  LEU157     -0.2867
    103  CB        -5.5210    8.7190   -3.7910 C.3   157  LEU157      0.0270
    104  CG        -5.3990    9.0050   -2.3110 C.3   157  LEU157      0.0019
    105  CD1       -4.7960    7.7870   -1.5980 C.3   157  LEU157      0.0001
    106  CD2       -4.5630   10.2650   -2.0860 C.3   157  LEU157      0.0001
    107  N          2.8240    8.7440    5.1430 N.3   165  TRP165     -0.1241
    108  CA         2.0490    8.6080    6.3720 C.3   165  TRP165      0.1605
    109  C          3.0170    8.4390    7.5260 C.2   165  TRP165      0.2264
    110  O          3.5050    7.3470    7.7690 O.2   165  TRP165     -0.2867
    111  CB         1.1550    7.3730    6.2640 C.3   165  TRP165      0.0550
    112  CG         0.1450    7.4570    5.1440 C.ar  165  TRP165      0.0003
    113  CD1        0.1710    6.8020    3.9250 C.ar  165  TRP165      0.0946
    114  CD2       -1.0290    8.2610    5.1380 C.ar  165  TRP165      0.0152
    115  NE1       -0.9310    7.1570    3.1790 N.ar  165  TRP165     -0.2442
    116  CE2       -1.6790    8.0560    3.9030 C.ar  165  TRP165      0.0810
    117  CE3       -1.6040    9.1390    6.0630 C.ar  165  TRP165      0.0012
    118  CZ2       -2.8780    8.6930    3.5830 C.ar  165  TRP165      0.0191
    119  CZ3       -2.7790    9.7730    5.7460 C.ar  165  TRP165      0.0001
    120  CH2       -3.4030    9.5530    4.5130 C.ar  165  TRP165      0.0015
    121  N         -0.4860   10.1130   11.9820 N.3   169  SER169     -0.1202
    122  CA        -1.2980    9.5730   10.9100 C.3   169  SER169      0.2020
    123  C         -0.9080    8.1290   10.5860 C.2   169  SER169      0.2618
    124  O         -1.7110    7.3660   10.0580 O.2   169  SER169     -0.2717
    125  CB        -1.1860   10.4440    9.6570 C.3   169  SER169      0.2103
    126  OG         0.0400   10.1800    8.9840 O.3   169  SER169     -0.2182
    127  N          0.3260    7.7480   10.9210 N.am  170  ARG170     -0.1979
    128  CA         0.8120    6.4110   10.6620 C.3   170  ARG170      0.1597
    129  C         -0.0950    5.3610   11.3100 C.2   170  ARG170      0.2287
    130  O         -0.1400    4.2160   10.8660 O.2   170  ARG170     -0.2864
    131  CB         2.2350    6.2800   11.2300 C.3   170  ARG170      0.0334
    132  CG         2.8360    4.8910   11.1530 C.3   170  ARG170      0.0492
    133  CD         3.1600    4.4430    9.7260 C.3   170  ARG170      0.2205
    134  NE         3.8130    3.1400    9.8490 N.pl3 170  ARG170     -0.0865
    135  CZ         3.1510    2.0210   10.1260 C.cat 170  ARG170      0.5346
    136  NH1        1.8340    2.0620   10.3020 N.pl3 170  ARG170      0.1354
    137  NH2        3.7910    0.8730   10.2300 N.pl3 170  ARG170      0.1354
    138  N         -3.5260    5.8520   11.9820 N.3   172  PHE172     -0.1241
    139  CA        -4.9520    6.1200   11.7800 C.3   172  PHE172      0.1605
    140  C         -5.6200    4.9090   11.1430 C.2   172  PHE172      0.2264
    141  O         -5.0110    4.2250   10.3220 O.2   172  PHE172     -0.2867
    142  CB        -5.1450    7.2790   10.8010 C.3   172  PHE172      0.0534
    143  CG        -4.9560    8.6540   11.3910 C.ar  172  PHE172     -0.0203
    144  CD1       -5.0730    9.7650   10.5590 C.ar  172  PHE172     -0.0042
    145  CD2       -4.6470    8.8480   12.7210 C.ar  172  PHE172     -0.0042
    146  CE1       -4.9090   11.0480   11.0640 C.ar  172  PHE172     -0.0003
    147  CE2       -4.4760   10.1350   13.2320 C.ar  172  PHE172     -0.0003
    148  CZ        -4.6040   11.2260   12.3880 C.ar  172  PHE172     -0.0000
    149  N         -7.9460    3.5080    8.3320 N.3   174  HIS174     -0.1241
    150  CA        -8.1220    3.9850    6.9650 C.3   174  HIS174      0.1621
    151  C         -8.6470    2.8730    6.0750 C.2   174  HIS174      0.2264
    152  O         -8.6300    1.6900    6.4420 O.2   174  HIS174     -0.2867
    153  CB        -6.7910    4.5050    6.4090 C.3   174  HIS174      0.0745
    154  CG        -5.6950    3.4850    6.4460 C.ar  174  HIS174      0.0817
    155  ND1       -4.9530    3.2270    7.5840 N.ar  174  HIS174     -0.2268
    156  CD2       -5.2270    2.6420    5.4940 C.ar  174  HIS174      0.1154
    157  CE1       -4.0780    2.2740    7.3310 C.ar  174  HIS174      0.1986
    158  NE2       -4.2290    1.8950    6.0760 N.ar  174  HIS174     -0.2212
    159  N        -10.2490    2.1290    1.6340 N.3   176  ILE176     -0.1245
    160  CA       -10.4440    2.6080    0.2670 C.3   176  ILE176      0.1561
    161  C        -11.8480    2.1970   -0.1320 C.2   176  ILE176      0.2260
    162  O        -12.2480    1.0400    0.0380 O.2   176  ILE176     -0.2867
    163  CB        -9.4320    1.9580   -0.7090 C.3   176  ILE176      0.0252
    164  CG1       -7.9680    2.2530   -0.3220 C.3   176  ILE176      0.0019
    165  CG2       -9.7260    2.3630   -2.1820 C.3   176  ILE176      0.0019
    166  CD1       -7.5180    3.6830   -0.6040 C.3   176  ILE176      0.0001
    167  N         -6.5520    0.3720  -10.6970 N.3   191  ARG191     -0.1245
    168  CA        -5.6800    1.2190   -9.8850 C.3   191  ARG191      0.1563
    169  C         -4.6210    0.3320   -9.2270 C.2   191  ARG191      0.2260
    170  O         -4.9110   -0.7840   -8.8070 O.2   191  ARG191     -0.2867
    171  CB        -6.4950    1.9670   -8.8140 C.3   191  ARG191      0.0307
    172  CG        -5.6280    2.7240   -7.8210 C.3   191  ARG191      0.0489
    173  CD        -6.4780    3.3430   -6.7380 C.3   191  ARG191      0.2205
    174  NE        -5.6760    4.0970   -5.7820 N.pl3 191  ARG191     -0.0865
    175  CZ        -5.3660    3.6850   -4.5560 C.cat 191  ARG191      0.5346
    176  NH1       -5.8000    2.5200   -4.0780 N.pl3 191  ARG191      0.1354
    177  NH2       -4.6340    4.4780   -3.7820 N.pl3 191  ARG191      0.1354
    178  N         -1.6340    0.4760   -6.0920 N.3   193  ASN193     -0.1240
    179  CA        -1.0800    1.2820   -5.0250 C.3   193  ASN193      0.1653
    180  C          0.1400    0.5630   -4.5060 C.2   193  ASN193      0.2266
    181  O          0.1000   -0.6470   -4.2970 O.2   193  ASN193     -0.2867
    182  CB        -2.0970    1.4870   -3.8970 C.3   193  ASN193      0.1155
    183  CG        -1.5110    2.2600   -2.7610 C.2   193  ASN193      0.2627
    184  OD1       -0.9650    1.6700   -1.8280 O.2   193  ASN193     -0.2716
    185  ND2       -1.5620    3.5870   -2.8550 N.am  193  ASN193     -0.0877
    186  N          2.7430    0.3740   -1.3610 N.3   195  THR195     -0.1218
    187  CA         3.0020    0.8610   -0.0090 C.3   195  THR195      0.1862
    188  C          4.3310    0.3250    0.4590 C.2   195  THR195      0.2287
    189  O          4.5110   -0.8850    0.6180 O.2   195  THR195     -0.2866
    190  CB         1.9070    0.5060    1.0540 C.3   195  THR195      0.1770
    191  OG1        1.4000   -0.8030    0.8360 O.3   195  THR195     -0.2211
    192  CG2        0.7690    1.4970    0.9740 C.3   195  THR195      0.0375
    193  N          7.2160   -0.1120    3.2120 N.3   197  ARG197     -0.1245
    194  CA         7.2450   -0.3120    4.6560 C.3   197  ARG197      0.1563
    195  C          8.6290   -0.7250    5.1160 C.2   197  ARG197      0.2260
    196  O          9.3810   -1.3730    4.3750 O.2   197  ARG197     -0.2867
    197  CB         6.2320   -1.3990    5.0270 C.3   197  ARG197      0.0307
    198  CG         4.8130   -1.0930    4.5420 C.3   197  ARG197      0.0489
    199  CD         4.1640   -2.2880    3.8030 C.3   197  ARG197      0.2205
    200  NE         2.8040   -1.9410    3.3510 N.pl3 197  ARG197     -0.0865
    201  CZ         1.7450   -1.8460    4.1580 C.cat 197  ARG197      0.5346
    202  NH1        1.8690   -2.0850    5.4510 N.pl3 197  ARG197      0.1354
    203  NH2        0.5470   -1.5090    3.6790 N.pl3 197  ARG197      0.1354
@<TRIPOS>BOND
     1   167   168    1
     2    28    27    2
     3   168   169    1
     4   168   171    1
     5   169   170    2
     6    27    26    1
     7   171   172    1
     8    25    26    1
     9   172   173    1
    10    26    29    1
    11    29    30    1
    12   173   174    1
    13   102   101    2
    14    20    19    2
    15   178   179    1
    16   101   100    1
    17   174   175    2
    18    19    18    1
    19    30    31   ar
    20    30    32   ar
    21    31    33   ar
    22   179   180    1
    23   179   182    1
    24     4     3    2
    25    32    34   ar
    26     1     2    1
    27   100    99    1
    28   100   103    1
    29   175   176    1
    30   175   177    1
    31     3     2    1
    32   180   181    2
    33    17    18    1
    34    18    21    1
    35    33    35   ar
    36     2     5    1
    37   182   183    1
    38   103   104    1
    39    21    22    1
    40    34    35   ar
    41    35    36    1
    42   185   183   am
    43   183   184    2
    44     5     6    1
    45   104   106    1
    46   104   105    1
    47    12    11    2
    48    11    10    1
    49   165   163    1
    50    74    73    2
    51    22    24   am
    52    22    23    2
    53    73    72    1
    54     6     7    1
    55   186   187    1
    56    10     9    1
    57    10    13    1
    58    77    78    1
    59   163   164    1
    60   163   160    1
    61    76    75    1
    62   166   164    1
    63    72    75    1
    64    72    71    1
    65    15    14    1
    66   161   162    2
    67   161   160    1
    68     7     8    1
    69    14    13    1
    70    14    16    1
    71   187   188    1
    72   187   190    1
    73    37    38    1
    74   160   159    1
    75    81    78    1
    76    81    82    1
    77    78    79    1
    78   188   189    2
    79    44    42    1
    80   191   190    1
    81    42    43    1
    82    42    41    1
    83   192   190    1
    84    38    41    1
    85    38    39    1
    86    82    83   ar
    87    82    84   ar
    88    79    80    2
    89    83    85   ar
    90    84    86   ar
    91    39    40    2
    92    85    87   ar
    93   115   116   ar
    94   115   113   ar
    95   193   194    1
    96   200   199    1
    97   200   201    2
    98   118   116   ar
    99   118   120   ar
   100    86    87   ar
   101   203   201    1
   102   199   198    1
   103   116   114   ar
   104   113   112   ar
   105    69    67    1
   106    65    66    2
   107    65    64    1
   108   201   202    1
   109   196   195    2
   110   120   119   ar
   111   198   197    1
   112   194   197    1
   113   194   195    1
   114    97    95   ar
   115    97    98   ar
   116   114   112   ar
   117   114   117   ar
   118   107   108    1
   119   112   111    1
   120    95    93   ar
   121    64    67    1
   122    64    63    1
   123    53    54   ar
   124    53    51   ar
   125    67    68    1
   126   156   158   ar
   127   156   154   ar
   128    98    96   ar
   129   119   117   ar
   130    54    52   ar
   131    88    89    1
   132   151   152    2
   133   151   150    1
   134   158   157   ar
   135    51    50   ar
   136    62    60   ar
   137   111   108    1
   138    68    70    1
   139   108   109    1
   140   153   154    1
   141   153   150    1
   142   154   155   ar
   143    93    92    1
   144    93    94   ar
   145    92    89    1
   146   150   149    1
   147    96    94   ar
   148    89    90    1
   149    61    60   ar
   150    52    50   ar
   151    60    59    1
   152    50    49    1
   153   157   155   ar
   154   109   110    2
   155    91    90    2
   156    49    46    1
   157    59    56    1
   158    45    46    1
   159   126   125    1
   160    48    47    2
   161    46    47    1
   162   125   122    1
   163    56    55    1
   164    56    57    1
   165   133   134    1
   166   133   132    1
   167   134   135    2
   168   124   123    2
   169   135   137    1
   170   135   136    1
   171   141   140    2
   172   144   146   ar
   173   144   143   ar
   174   123   122    1
   175   123   127   am
   176   128   127    1
   177   128   131    1
   178   128   129    1
   179   142   143    1
   180   142   139    1
   181   130   129    2
   182    57    58    2
   183   122   121    1
   184   146   148   ar
   185   140   139    1
   186   132   131    1
   187   143   145   ar
   188   139   138    1
   189   148   147   ar
   190   145   147   ar
