@<TRIPOS>MOLECULE
tmp/3t4kA00.pdb
 146 133 0 0 0
SMALL
GASTEIGER

@<TRIPOS>ATOM
      1  N         -2.7140   23.0160   28.1220 N.3    75  GLY75      -0.1225
      2  CA        -2.7800   23.2290   26.6820 C.3    75  GLY75       0.1811
      3  C         -2.0780   22.1190   25.9220 C.2    75  GLY75       0.2280
      4  O         -1.2450   21.4260   26.5100 O.2    75  GLY75      -0.2866
      5  N         -0.3960   21.2830   21.7740 N.3    77  ALA77      -0.1245
      6  CA         0.0940   21.8550   20.5170 C.3    77  ALA77       0.1562
      7  C          0.7450   20.7540   19.6730 C.2    77  ALA77       0.2260
      8  O          1.1860   19.7130   20.1950 O.2    77  ALA77      -0.2867
      9  CB         1.1070   22.9550   20.7980 C.3    77  ALA77       0.0290
     10  N          3.9260   20.2450   16.9310 N.3    79  ALA79      -0.1245
     11  CA         5.1890   20.8000   16.3500 C.3    79  ALA79       0.1562
     12  C          5.6050   19.8990   15.1940 C.2    79  ALA79       0.2260
     13  O          5.5940   18.6870   15.3310 O.2    79  ALA79      -0.2867
     14  CB         6.3050   20.8710   17.4240 C.3    79  ALA79       0.0290
     15  N         12.6750   29.6520   21.9830 N.3   101  MET101     -0.1245
     16  CA        11.7340   29.7950   23.0950 C.3   101  MET101      0.1570
     17  C         12.1930   30.7440   24.1790 C.2   101  MET101      0.2261
     18  O         11.3630   31.2920   24.9120 O.2   101  MET101     -0.2867
     19  CB        11.3480   28.4430   23.6890 C.3   101  MET101      0.0387
     20  CG        12.3500   27.7570   24.5140 C.3   101  MET101      0.0595
     21  SD        11.4780   26.4110   25.3640 S.3   101  MET101     -0.1393
     22  CE        10.9770   25.4750   23.9080 C.3   101  MET101      0.0692
     23  N          6.1990   24.8610   16.4280 N.3   116  VAL116     -0.1245
     24  CA         4.7720   24.6720   16.6480 C.3   116  VAL116      0.1561
     25  C          3.9980   25.3060   15.4950 C.2   116  VAL116      0.2260
     26  O          4.1280   26.5230   15.1900 O.2   116  VAL116     -0.2867
     27  CB         4.3180   25.2220   17.9850 C.3   116  VAL116      0.0252
     28  CG1        2.7570   25.2270   18.0620 C.3   116  VAL116      0.0019
     29  CG2        4.8900   24.3930   19.1460 C.3   116  VAL116      0.0019
     30  N         -2.3400   28.0260   24.9140 N.3   123  VAL123     -0.1245
     31  CA        -0.8790   28.0560   24.7590 C.3   123  VAL123      0.1561
     32  C         -0.4740   28.6490   23.4090 C.2   123  VAL123      0.2260
     33  O          0.4640   28.1710   22.7630 O.2   123  VAL123     -0.2867
     34  CB        -0.2460   26.6540   24.9380 C.3   123  VAL123      0.0252
     35  CG1       -0.4180   26.1670   26.3870 C.3   123  VAL123      0.0019
     36  CG2       -0.7940   25.6350   23.9300 C.3   123  VAL123      0.0019
     37  N          0.9840   31.3960   22.5820 N.3   125  TYR125     -0.1227
     38  CA         2.3930   31.8590   22.5980 C.3   125  TYR125      0.1736
     39  C          3.4370   30.8100   22.1530 C.2   125  TYR125      0.2595
     40  O          4.5820   31.1820   21.8910 O.2   125  TYR125     -0.2718
     41  CB         2.7670   32.4120   23.9790 C.3   125  TYR125      0.0548
     42  CG         2.4530   31.4690   25.1170 C.ar  125  TYR125     -0.0200
     43  CD1        3.3060   30.3960   25.4440 C.ar  125  TYR125     -0.0009
     44  CD2        1.2610   31.6100   25.8320 C.ar  125  TYR125     -0.0009
     45  CE1        3.0010   29.5310   26.4810 C.ar  125  TYR125      0.0417
     46  CE2        0.9330   30.7370   26.8550 C.ar  125  TYR125      0.0417
     47  CZ         1.7880   29.7060   27.1840 C.ar  125  TYR125      0.1957
     48  OH         1.4220   28.8770   28.2380 O.3   125  TYR125     -0.2866
     49  N          3.0730   29.5240   22.0590 N.am  126  LEU126     -0.1980
     50  CA         3.9720   28.5140   21.4880 C.3   126  LEU126      0.1596
     51  C          4.0870   28.5900   19.9680 C.2   126  LEU126      0.2287
     52  O          5.0740   28.0720   19.4040 O.2   126  LEU126     -0.2864
     53  CB         3.5700   27.0840   21.8770 C.3   126  LEU126      0.0297
     54  CG         3.5290   26.7320   23.3760 C.3   126  LEU126      0.0022
     55  CD1        2.9240   25.3280   23.6140 C.3   126  LEU126      0.0001
     56  CD2        4.9200   26.8400   24.0150 C.3   126  LEU126      0.0001
     57  N         10.4630   23.9240   19.5550 N.3   131  MET131     -0.1245
     58  CA        10.3840   23.1890   20.8190 C.3   131  MET131      0.1570
     59  C         11.7100   22.5050   21.1650 C.2   131  MET131      0.2261
     60  O         11.9320   22.1080   22.3010 O.2   131  MET131     -0.2867
     61  CB         9.2620   22.1530   20.7740 C.3   131  MET131      0.0387
     62  CG         7.8810   22.7520   20.5760 C.3   131  MET131      0.0595
     63  SD         7.4650   23.9820   21.8160 S.3   131  MET131     -0.1393
     64  CE         8.8030   25.1630   21.6550 C.3   131  MET131      0.0692
     65  N         12.2020   20.0410   26.7130 N.3   137  ASP137     -0.1239
     66  CA        11.3820   19.7100   25.5530 C.3   137  ASP137      0.1674
     67  C         12.1990   18.9720   24.4880 C.2   137  ASP137      0.2266
     68  O         11.6980   17.9950   23.8950 O.2   137  ASP137     -0.2867
     69  CB        10.7700   20.9600   24.9670 C.3   137  ASP137      0.1410
     70  CG         9.5330   21.4300   25.7370 C.2   137  ASP137      0.3668
     71  OD1        8.4740   20.8250   25.5250 O.co2 137  ASP137     -0.2456
     72  OD2        9.6370   22.4350   26.4910 O.co2 137  ASP137     -0.2456
     73  N         11.3670   15.2600   23.0710 N.3   141  ILE141     -0.1245
     74  CA        11.1460   15.0180   21.6310 C.3   141  ILE141      0.1561
     75  C         11.9590   13.8370   21.1220 C.2   141  ILE141      0.2260
     76  O         11.4370   12.9610   20.4180 O.2   141  ILE141     -0.2867
     77  CB        11.4090   16.3170   20.8110 C.3   141  ILE141      0.0252
     78  CG1       10.1660   17.2410   20.9060 C.3   141  ILE141      0.0019
     79  CG2       11.6710   16.0000   19.3510 C.3   141  ILE141      0.0019
     80  CD1       10.4550   18.7470   20.6750 C.3   141  ILE141      0.0001
     81  N          9.8910   21.2660   35.6060 N.3   156  PHE156     -0.1241
     82  CA        10.5380   22.5490   35.3440 C.3   156  PHE156      0.1605
     83  C          9.5030   23.6540   35.1990 C.2   156  PHE156      0.2264
     84  O          8.3010   23.3730   35.0640 O.2   156  PHE156     -0.2867
     85  CB        11.4540   22.4610   34.0970 C.3   156  PHE156      0.0534
     86  CG        10.7180   22.3360   32.7810 C.ar  156  PHE156     -0.0203
     87  CD1       10.1070   21.1530   32.4090 C.ar  156  PHE156     -0.0042
     88  CD2       10.6740   23.4080   31.9040 C.ar  156  PHE156     -0.0042
     89  CE1        9.4610   21.0300   31.2060 C.ar  156  PHE156     -0.0003
     90  CE2       10.0290   23.3010   30.6860 C.ar  156  PHE156     -0.0003
     91  CZ         9.4190   22.1110   30.3330 C.ar  156  PHE156     -0.0000
     92  N          7.3870   26.2960   33.3720 N.3   158  LEU158     -0.1231
     93  CA         6.8520   26.3790   32.0270 C.3   158  LEU158      0.1693
     94  C          6.9030   27.8160   31.5040 C.2   158  LEU158      0.2591
     95  O          7.0110   28.7810   32.2450 O.2   158  LEU158     -0.2718
     96  CB         5.3970   25.8460   32.0100 C.3   158  LEU158      0.0284
     97  CG         5.1760   24.4120   32.5410 C.3   158  LEU158      0.0019
     98  CD1        3.6870   24.0480   32.5470 C.3   158  LEU158      0.0001
     99  CD2        5.9870   23.3830   31.7330 C.3   158  LEU158      0.0001
    100  N          6.8680   27.9380   30.1920 N.am  159  LEU159     -0.1980
    101  CA         6.8860   29.2180   29.5320 C.3   159  LEU159      0.1596
    102  C          5.6520   30.0320   29.9150 C.2   159  LEU159      0.2287
    103  O          4.5730   29.4600   30.1810 O.2   159  LEU159     -0.2864
    104  CB         6.9080   29.0110   28.0170 C.3   159  LEU159      0.0297
    105  CG         8.2300   28.6440   27.3700 C.3   159  LEU159      0.0022
    106  CD1        7.9480   28.3060   25.9070 C.3   159  LEU159      0.0001
    107  CD2        9.2470   29.7900   27.5010 C.3   159  LEU159      0.0001
    108  N          6.1500   18.1680   30.9790 N.3   167  VAL167     -0.1245
    109  CA         5.6600   18.1510   29.6100 C.3   167  VAL167      0.1561
    110  C          5.5290   16.7050   29.1430 C.2   167  VAL167      0.2260
    111  O          6.3900   15.8650   29.4420 O.2   167  VAL167     -0.2867
    112  CB         6.5540   18.9660   28.6800 C.3   167  VAL167      0.0252
    113  CG1        6.4080   18.5300   27.2470 C.3   167  VAL167      0.0019
    114  CG2        6.2230   20.4520   28.8330 C.3   167  VAL167      0.0019
    115  N          5.0150   14.4180   25.6770 N.3   169  THR169     -0.1218
    116  CA         5.2240   14.4630   24.2160 C.3   169  THR169      0.1862
    117  C          4.9910   13.0790   23.6020 C.2   169  THR169      0.2287
    118  O          5.4390   12.0530   24.1500 O.2   169  THR169     -0.2866
    119  CB         6.6310   14.9640   23.8830 C.3   169  THR169      0.1770
    120  OG1        6.8530   16.2160   24.5530 O.3   169  THR169     -0.2211
    121  CG2        6.8280   15.1270   22.3020 C.3   169  THR169      0.0375
    122  N          5.5400   16.0970   16.5230 N.3   193  TYR193     -0.1241
    123  CA         5.3630   15.8260   17.9470 C.3   193  TYR193      0.1605
    124  C          4.1170   16.5130   18.4980 C.2   193  TYR193      0.2264
    125  O          3.9060   17.7310   18.2840 O.2   193  TYR193     -0.2867
    126  CB         6.5910   16.3530   18.6750 C.3   193  TYR193      0.0534
    127  CG         7.8850   16.1470   17.8720 C.ar  193  TYR193     -0.0201
    128  CD1        8.5010   14.8910   17.8260 C.ar  193  TYR193     -0.0009
    129  CD2        8.4380   17.1760   17.1390 C.ar  193  TYR193     -0.0009
    130  CE1        9.6480   14.6720   17.0450 C.ar  193  TYR193      0.0417
    131  CE2        9.5770   16.9860   16.3780 C.ar  193  TYR193      0.0417
    132  CZ        10.1920   15.7160   16.3530 C.ar  193  TYR193      0.1957
    133  OH        11.3280   15.5610   15.5920 O.3   193  TYR193     -0.2866
    134  N          2.3230   17.5760   21.7840 N.3   195  GLY195     -0.1210
    135  CA         2.6990   17.8520   23.1660 C.3   195  GLY195      0.1956
    136  C          1.6470   18.5310   23.9890 C.2   195  GLY195      0.2612
    137  O          0.7640   19.2140   23.4700 O.2   195  GLY195     -0.2717
    138  N          1.7580   18.3220   25.2990 N.am  196  GLY196     -0.1942
    139  CA         0.9020   18.9310   26.2600 C.3   196  GLY196      0.2014
    140  C          1.6440   19.2660   27.5210 C.2   196  GLY196      0.2638
    141  O          2.6490   18.6200   27.8680 O.2   196  GLY196     -0.2714
    142  N          1.1550   20.3040   28.1870 N.am  197  ALA197     -0.1977
    143  CA         1.7710   20.8230   29.3930 C.3   197  ALA197      0.1597
    144  C          0.9110   20.4420   30.6080 C.2   197  ALA197      0.2287
    145  O         -0.2560   20.8390   30.7070 O.2   197  ALA197     -0.2864
    146  CB         1.8860   22.3230   29.2930 C.3   197  ALA197      0.0319
@<TRIPOS>BOND
     1    26    25    2
     2    12    13    2
     3    12    11    1
     4    25    24    1
     5   133   132    1
     6    11    10    1
     7    11    14    1
     8   132   131   ar
     9   132   130   ar
    10   131   129   ar
    11    23    24    1
    12   122   123    1
    13    24    27    1
    14   130   128   ar
    15   129   127   ar
    16   128   127   ar
    17   127   126    1
    18   123   124    1
    19   123   126    1
    20    27    28    1
    21    27    29    1
    22   125   124    2
    23    79    77    1
    24    52    51    2
    25    57    58    1
    26     7     8    2
    27     7     6    1
    28    51    50    1
    29    76    75    2
    30     6     9    1
    31     6     5    1
    32    62    61    1
    33    62    63    1
    34    80    78    1
    35    61    58    1
    36    77    78    1
    37    77    74    1
    38    58    59    1
    39    75    74    1
    40    59    60    2
    41    50    53    1
    42    50    49    1
    43    74    73    1
    44    64    63    1
    45   134   135    1
    46    53    54    1
    47    40    39    2
    48    15    16    1
    49    49    39   am
    50    39    38    1
    51   121   119    1
    52    37    38    1
    53    38    41    1
    54    33    32    2
    55    16    19    1
    56    16    17    1
    57   135   136    1
    58    54    55    1
    59    54    56    1
    60    32    31    1
    61   137   136    2
    62   117   118    2
    63   117   116    1
    64    19    20    1
    65   119   116    1
    66   119   120    1
    67    68    67    2
    68    22    21    1
    69    36    34    1
    70    41    42    1
    71   136   138   am
    72    17    18    2
    73   116   115    1
    74    67    66    1
    75    20    21    1
    76    31    30    1
    77    31    34    1
    78    34    35    1
    79    69    66    1
    80    69    70    1
    81    42    43   ar
    82    42    44   ar
    83   138   139    1
    84    43    45   ar
    85    71    70   ar
    86    66    65    1
    87    70    72   ar
    88    44    46   ar
    89   106   105    1
    90     3     4    2
    91     3     2    1
    92   139   140    1
    93    45    47   ar
    94     2     1    1
    95    46    47   ar
    96    47    48    1
    97   113   112    1
    98   105   107    1
    99   105   104    1
   100   140   141    2
   101   140   142   am
   102   104   101    1
   103   142   143    1
   104   112   114    1
   105   112   109    1
   106   110   111    2
   107   110   109    1
   108   146   143    1
   109   143   144    1
   110   101   102    1
   111   101   100    1
   112   109   108    1
   113   102   103    2
   114   100    94   am
   115    91    90   ar
   116    91    89   ar
   117   144   145    2
   118    90    88   ar
   119    89    87   ar
   120    94    93    1
   121    94    95    2
   122    99    97    1
   123    88    86   ar
   124    96    93    1
   125    96    97    1
   126    93    92    1
   127    87    86   ar
   128    97    98    1
   129    86    85    1
   130    85    82    1
   131    84    83    2
   132    83    82    1
   133    82    81    1
