@<TRIPOS>MOLECULE
tmp/3t4nC00.pdb
 182 176 0 0 0
SMALL
GASTEIGER

@<TRIPOS>ATOM
      1  N        -23.8940   61.7550    5.4250 N.3   133  ARG133     -0.1231
      2  CA       -24.1170   62.4240    4.1400 C.3   133  ARG133      0.1694
      3  C        -24.7420   61.4680    3.1130 C.2   133  ARG133      0.2593
      4  O        -24.3690   61.4620    1.9370 O.2   133  ARG133     -0.2718
      5  CB       -22.8060   63.0330    3.6220 C.3   133  ARG133      0.0321
      6  CG       -22.9600   64.3390    2.8660 C.3   133  ARG133      0.0489
      7  CD       -21.6620   65.1480    2.8830 C.3   133  ARG133      0.2205
      8  NE       -21.5370   65.9930    4.0730 N.pl3 133  ARG133     -0.0865
      9  CZ       -20.8070   65.6910    5.1460 C.cat 133  ARG133      0.5346
     10  NH1      -20.1220   64.5530    5.1990 N.pl3 133  ARG133      0.1354
     11  NH2      -20.7570   66.5340    6.1730 N.pl3 133  ARG133      0.1354
     12  N        -25.6790   60.6490    3.5860 N.am  134  SER134     -0.1938
     13  CA       -26.4310   59.7270    2.7420 C.3   134  SER134      0.2055
     14  C        -27.9250   59.9480    2.9420 C.2   134  SER134      0.2643
     15  O        -28.3470   60.4610    3.9790 O.2   134  SER134     -0.2714
     16  CB       -26.0740   58.2770    3.0700 C.3   134  SER134      0.2130
     17  OG       -26.3240   58.0020    4.4390 O.3   134  SER134     -0.2179
     18  N        -28.7190   59.5710    1.9470 N.am  135  GLY135     -0.1954
     19  CA       -30.1620   59.7310    2.0300 C.3   135  GLY135      0.1869
     20  C        -30.8720   58.5160    2.6020 C.2   135  GLY135      0.2309
     21  O        -32.0970   58.4910    2.6640 O.2   135  GLY135     -0.2863
     22  N        -34.3490   59.4970    3.9080 N.3   157  GLN157     -0.1245
     23  CA       -34.7820   60.8590    4.2000 C.3   157  GLN157      0.1566
     24  C        -36.1830   61.1400    3.6700 C.2   157  GLN157      0.2260
     25  O        -36.9630   61.8300    4.3290 O.2   157  GLN157     -0.2867
     26  CB       -33.8260   61.8650    3.5890 C.3   157  GLN157      0.0367
     27  CG       -32.5200   61.9550    4.3150 C.3   157  GLN157      0.0905
     28  CD       -31.5720   62.8860    3.6420 C.2   157  GLN157      0.2608
     29  OE1      -31.4940   62.9330    2.4060 O.2   157  GLN157     -0.2717
     30  NE2      -30.8260   63.6350    4.4400 N.am  157  GLN157     -0.0878
     31  N        -28.7610   75.6850   -1.1570 N.3   185  THR185     -0.1218
     32  CA       -27.3710   75.7050   -1.5750 C.3   185  THR185      0.1862
     33  C        -27.3070   76.3980   -2.9300 C.2   185  THR185      0.2287
     34  O        -27.9170   75.9450   -3.8990 O.2   185  THR185     -0.2866
     35  CB       -26.7250   74.3090   -1.5870 C.3   185  THR185      0.1770
     36  OG1      -27.3030   73.5230   -2.6220 O.3   185  THR185     -0.2211
     37  CG2      -26.9510   73.6160   -0.2640 C.3   185  THR185      0.0375
     38  N        -24.1130   78.2380   -3.7820 N.3   187  ASP187     -0.1225
     39  CA       -22.7060   78.4080   -4.1160 C.3   187  ASP187      0.1805
     40  C        -22.1030   77.1470   -4.7060 C.2   187  ASP187      0.2598
     41  O        -22.4590   76.0330   -4.3160 O.2   187  ASP187     -0.2718
     42  CB       -21.9060   78.8450   -2.8830 C.3   187  ASP187      0.1424
     43  CG       -22.2120   80.2720   -2.4620 C.2   187  ASP187      0.3668
     44  OD1      -22.7140   81.0530   -3.3040 O.co2 187  ASP187     -0.2456
     45  OD2      -21.9420   80.6150   -1.2870 O.co2 187  ASP187     -0.2456
     46  N        -21.1830   77.3460   -5.6480 N.am  188  ASN188     -0.1960
     47  CA       -20.4480   76.2590   -6.2980 C.3   188  ASN188      0.1819
     48  C        -21.3440   75.1250   -6.7960 C.2   188  ASN188      0.2621
     49  O        -21.1060   73.9450   -6.5180 O.2   188  ASN188     -0.2715
     50  CB       -19.3170   75.7540   -5.3920 C.3   188  ASN188      0.1195
     51  CG       -18.3560   76.8660   -4.9850 C.2   188  ASN188      0.2630
     52  OD1      -18.1550   77.1220   -3.7980 O.2   188  ASN188     -0.2716
     53  ND2      -17.7840   77.5510   -5.9750 N.am  188  ASN188     -0.0877
     54  N        -22.3860   75.5040   -7.5300 N.am  189  MET189     -0.1963
     55  CA       -23.2760   74.5380   -8.1530 C.3   189  MET189      0.1736
     56  C        -22.4890   73.7640   -9.2010 C.2   189  MET189      0.2616
     57  O        -21.8230   74.3550  -10.0510 O.2   189  MET189     -0.2715
     58  CB       -24.4690   75.2390   -8.8090 C.3   189  MET189      0.0427
     59  CG       -25.5070   75.8170   -7.8360 C.3   189  MET189      0.0599
     60  SD       -26.5030   74.5830   -6.9470 S.3   189  MET189     -0.1393
     61  CE       -27.1840   73.6240   -8.3030 C.3   189  MET189      0.0692
     62  N        -22.5370   72.4420   -9.1180 N.am  190  LYS190     -0.1977
     63  CA       -22.0360   71.6160  -10.2000 C.3   190  LYS190      0.1596
     64  C        -23.1430   71.5510  -11.2460 C.2   190  LYS190      0.2287
     65  O        -24.2610   71.1450  -10.9280 O.2   190  LYS190     -0.2864
     66  CB       -21.6960   70.2170   -9.6900 C.3   190  LYS190      0.0298
     67  CG       -20.4520   70.1270   -8.8120 C.3   190  LYS190      0.0038
     68  CD       -19.2100   70.5490   -9.5900 C.3   190  LYS190      0.0206
     69  CE       -17.9390   69.8500   -9.0980 C.3   190  LYS190      0.1093
     70  NZ       -17.6110   70.1580   -7.6700 N.3   190  LYS190     -0.1314
     71  N        -19.7730   64.5390   -5.1090 N.3   209  ARG209     -0.1231
     72  CA       -20.5940   63.7540   -4.1830 C.3   209  ARG209      0.1694
     73  C        -22.0270   64.3050   -4.0900 C.2   209  ARG209      0.2592
     74  O        -22.5160   64.6660   -3.0160 O.2   209  ARG209     -0.2718
     75  CB       -19.9330   63.6270   -2.8080 C.3   209  ARG209      0.0321
     76  CG       -20.1740   62.2720   -2.1630 C.3   209  ARG209      0.0489
     77  CD       -19.3580   62.1020   -0.8940 C.3   209  ARG209      0.2205
     78  NE       -17.9150   62.1240   -1.1490 N.pl3 209  ARG209     -0.0865
     79  CZ       -17.1190   61.0610   -1.0610 C.cat 209  ARG209      0.5346
     80  NH1      -17.6150   59.8730   -0.7220 N.pl3 209  ARG209      0.1354
     81  NH2      -15.8200   61.1850   -1.3090 N.pl3 209  ARG209      0.1354
     82  N        -22.6800   64.3860   -5.2430 N.am  210  VAL210     -0.1966
     83  CA       -24.0850   64.7630   -5.3180 C.3   210  VAL210      0.1727
     84  C        -24.8880   63.6800   -6.0320 C.2   210  VAL210      0.2617
     85  O        -24.3270   62.8320   -6.7300 O.2   210  VAL210     -0.2715
     86  CB       -24.2950   66.1530   -5.9890 C.3   210  VAL210      0.0290
     87  CG1      -23.7210   67.2550   -5.1060 C.3   210  VAL210      0.0023
     88  CG2      -23.6750   66.1910   -7.3900 C.3   210  VAL210      0.0023
     89  N        -26.2010   63.7170   -5.8350 N.am  211  SER211     -0.1936
     90  CA       -27.1120   62.7470   -6.4170 C.3   211  SER211      0.2055
     91  C        -27.5640   63.1480   -7.8140 C.2   211  SER211      0.2644
     92  O        -28.1180   62.3310   -8.5410 O.2   211  SER211     -0.2714
     93  CB       -28.3380   62.5790   -5.5130 C.3   211  SER211      0.2130
     94  OG       -27.9490   62.0850   -4.2460 O.3   211  SER211     -0.2179
     95  N        -27.3450   64.4040   -8.1830 N.am  212  SER212     -0.1935
     96  CA       -27.8100   64.8960   -9.4700 C.3   212  SER212      0.2055
     97  C        -27.0330   66.1200   -9.9310 C.2   212  SER212      0.2643
     98  O        -26.4840   66.8750   -9.1120 O.2   212  SER212     -0.2714
     99  CB       -29.3020   65.2350   -9.4000 C.3   212  SER212      0.2130
    100  OG       -29.4840   66.5000   -8.8100 O.3   212  SER212     -0.2179
    101  N        -27.0150   66.3070  -11.2480 N.am  213  VAL213     -0.1963
    102  CA       -26.3500   67.4230  -11.8980 C.3   213  VAL213      0.1712
    103  C        -27.3720   68.1370  -12.7900 C.2   213  VAL213      0.2458
    104  O        -27.8860   67.5480  -13.7450 O.2   213  VAL213     -0.2730
    105  CB       -25.1250   66.9300  -12.7280 C.3   213  VAL213      0.0289
    106  CG1      -24.5150   68.0390  -13.5810 C.3   213  VAL213      0.0023
    107  CG2      -24.0710   66.3330  -11.8070 C.3   213  VAL213      0.0023
    108  N        -27.6860   69.4020  -12.4670 N.am  214  PRO214     -0.2727
    109  CA       -28.6040   70.1830  -13.2920 C.3   214  PRO214      0.1402
    110  C        -28.0140   70.4950  -14.6620 C.2   214  PRO214      0.2269
    111  O        -26.8280   70.8240  -14.7700 O.2   214  PRO214     -0.2865
    112  CB       -28.7690   71.4810  -12.4970 C.3   214  PRO214      0.0296
    113  CG       -27.5570   71.5570  -11.6220 C.3   214  PRO214      0.0237
    114  CD       -27.2980   70.1340  -11.2480 C.3   214  PRO214      0.0939
    115  N        -37.2840   64.2470   -4.5940 N.3   283  HIS283     -0.1226
    116  CA       -36.0260   64.1570   -3.8540 C.3   283  HIS283      0.1752
    117  C        -35.2600   65.4590   -3.7590 C.2   283  HIS283      0.2595
    118  O        -34.3500   65.5910   -2.9480 O.2   283  HIS283     -0.2718
    119  CB       -35.1590   63.0330   -4.4060 C.3   283  HIS283      0.0759
    120  CG       -35.6670   61.6760   -4.0440 C.ar  283  HIS283      0.0818
    121  ND1      -36.4820   60.9410   -4.8770 N.ar  283  HIS283     -0.2268
    122  CD2      -35.5130   60.9390   -2.9190 C.ar  283  HIS283      0.1154
    123  CE1      -36.7930   59.8000   -4.2880 C.ar  283  HIS283      0.1986
    124  NE2      -36.2200   59.7750   -3.0980 N.ar  283  HIS283     -0.2212
    125  N        -35.6410   66.4300   -4.5760 N.am  284  ARG284     -0.1980
    126  CA       -35.0140   67.7400   -4.5320 C.3   284  ARG284      0.1597
    127  C        -35.8420   68.7180   -5.3360 C.2   284  ARG284      0.2287
    128  O        -36.6210   68.3270   -6.2020 O.2   284  ARG284     -0.2864
    129  CB       -33.5850   67.6820   -5.0830 C.3   284  ARG284      0.0334
    130  CG       -33.5080   67.3720   -6.5650 C.3   284  ARG284      0.0492
    131  CD       -32.1080   66.9380   -6.9740 C.3   284  ARG284      0.2205
    132  NE       -31.7930   65.5870   -6.5220 N.pl3 284  ARG284     -0.0865
    133  CZ       -32.0830   64.4750   -7.1960 C.cat 284  ARG284      0.5346
    134  NH1      -32.7110   64.5390   -8.3600 N.pl3 284  ARG284      0.1354
    135  NH2      -31.7470   63.2940   -6.6990 N.pl3 284  ARG284      0.1354
    136  N        -35.1450   72.1190   -7.5520 N.3   286  PHE286     -0.1241
    137  CA       -34.2190   73.1060   -8.0930 C.3   286  PHE286      0.1605
    138  C        -34.8070   74.5020   -8.0280 C.2   286  PHE286      0.2264
    139  O        -35.9130   74.7570   -8.5060 O.2   286  PHE286     -0.2867
    140  CB       -33.7620   72.7310   -9.5060 C.3   286  PHE286      0.0534
    141  CG       -32.7910   71.6060   -9.5190 C.ar  286  PHE286     -0.0203
    142  CD1      -31.4380   71.8390   -9.2640 C.ar  286  PHE286     -0.0042
    143  CD2      -33.2270   70.3040   -9.7060 C.ar  286  PHE286     -0.0042
    144  CE1      -30.5310   70.7910   -9.2340 C.ar  286  PHE286     -0.0003
    145  CE2      -32.3360   69.2440   -9.6700 C.ar  286  PHE286     -0.0003
    146  CZ       -30.9790   69.4800   -9.4440 C.ar  286  PHE286     -0.0000
    147  N        -30.3030   74.7240   -5.4170 N.3   297  VAL297     -0.1245
    148  CA       -31.0090   73.4770   -5.2060 C.3   297  VAL297      0.1561
    149  C        -31.3510   73.3470   -3.7120 C.2   297  VAL297      0.2260
    150  O        -30.5820   73.7780   -2.8440 O.2   297  VAL297     -0.2867
    151  CB       -30.1870   72.2620   -5.7380 C.3   297  VAL297      0.0252
    152  CG1      -28.7920   72.2170   -5.1310 C.3   297  VAL297      0.0019
    153  CG2      -30.9220   70.9400   -5.5020 C.3   297  VAL297      0.0019
    154  N        -32.4310   70.2360   -1.3430 N.3   299  THR299     -0.1203
    155  CA       -32.5750   68.7820   -1.2760 C.3   299  THR299      0.1994
    156  C        -33.2100   68.3450    0.0390 C.2   299  THR299      0.2618
    157  O        -33.3970   69.1500    0.9550 O.2   299  THR299     -0.2717
    158  CB       -31.2160   68.0390   -1.4330 C.3   299  THR299      0.1784
    159  OG1      -30.3610   68.3880   -0.3440 O.3   299  THR299     -0.2211
    160  CG2      -30.5370   68.3940   -2.7590 C.3   299  THR299      0.0376
    161  N        -33.5420   67.0630    0.1210 N.am  300  LEU300     -0.1965
    162  CA       -34.1360   66.5160    1.3270 C.3   300  LEU300      0.1728
    163  C        -33.2330   66.7200    2.5510 C.2   300  LEU300      0.2617
    164  O        -33.7250   67.0830    3.6150 O.2   300  LEU300     -0.2715
    165  CB       -34.5520   65.0540    1.1220 C.3   300  LEU300      0.0311
    166  CG       -35.5900   64.8570   -0.0070 C.3   300  LEU300      0.0022
    167  CD1      -36.0750   63.4430   -0.0670 C.3   300  LEU300      0.0001
    168  CD2      -36.7920   65.8190    0.0970 C.3   300  LEU300      0.0001
    169  N        -31.9170   66.5480    2.3840 N.am  301  SER301     -0.1936
    170  CA       -30.9610   66.8470    3.4660 C.3   301  SER301      0.2055
    171  C        -30.9580   68.3140    3.8970 C.2   301  SER301      0.2643
    172  O        -30.8280   68.6120    5.0850 O.2   301  SER301     -0.2714
    173  CB       -29.5340   66.3530    3.1400 C.3   301  SER301      0.2130
    174  OG       -29.1080   66.7620    1.8480 O.3   301  SER301     -0.2179
    175  N        -31.1210   69.2320    2.9540 N.am  302  ASP302     -0.1971
    176  CA       -31.2370   70.6430    3.3130 C.3   302  ASP302      0.1709
    177  C        -32.4920   70.9070    4.1650 C.2   302  ASP302      0.2293
    178  O        -32.4420   71.6640    5.1390 O.2   302  ASP302     -0.2864
    179  CB       -31.2220   71.5390    2.0700 C.3   302  ASP302      0.1436
    180  CG       -29.9380   71.3970    1.2500 C.2   302  ASP302      0.3671
    181  OD1      -28.8330   71.2680    1.8370 O.co2 302  ASP302     -0.2456
    182  OD2      -30.0360   71.4140    0.0040 O.co2 302  ASP302     -0.2456
@<TRIPOS>BOND
     1   111   110    2
     2   110   109    1
     3   104   103    2
     4   106   105    1
     5   109   112    1
     6   109   108    1
     7   103   108   am
     8   103   102    1
     9   105   102    1
    10   105   107    1
    11   112   113    1
    12   108   114    1
    13   102   101    1
    14   113   114    1
    15   101    97   am
    16    64    65    2
    17    64    63    1
    18    63    66    1
    19    63    62    1
    20    57    56    2
    21    97    96    1
    22    97    98    2
    23   143   145   ar
    24   143   141   ar
    25    66    67    1
    26   145   146   ar
    27    68    69    1
    28    68    67    1
    29   141   140    1
    30   141   142   ar
    31   140   137    1
    32    96    99    1
    33    96    95    1
    34   146   144   ar
    35    99   100    1
    36   142   144   ar
    37    56    62   am
    38    56    55    1
    39    69    70    1
    40    58    55    1
    41    58    59    1
    42    92    91    2
    43   139   138    2
    44   134   133    1
    45    61    60    1
    46    95    91   am
    47    55    54    1
    48   137   138    1
    49   137   136    1
    50    59    60    1
    51    91    90    1
    52    54    48   am
    53    88    86    1
    54   133   135    1
    55   133   132    2
    56   131   130    1
    57   131   132    1
    58    48    49    2
    59    48    47    1
    60    85    84    2
    61   130   129    1
    62    90    89    1
    63    90    93    1
    64    47    46    1
    65    47    50    1
    66   128   127    2
    67    84    89   am
    68    84    83    1
    69    86    83    1
    70    86    87    1
    71    53    51   am
    72   151   153    1
    73   151   148    1
    74   151   152    1
    75    46    40   am
    76    93    94    1
    77   147   148    1
    78    50    51    1
    79   127   126    1
    80    83    82    1
    81    82    73   am
    82   148   149    1
    83    71    72    1
    84   129   126    1
    85    51    52    2
    86   121   123   ar
    87   121   120   ar
    88    40    41    2
    89    40    39    1
    90   115   116    1
    91   125   126    1
    92   125   117   am
    93   119   120    1
    94   119   116    1
    95   123   124   ar
    96    72    73    1
    97    72    75    1
    98    39    38    1
    99    39    42    1
   100    73    74    2
   101   120   122   ar
   102    34    33    2
   103   116   117    1
   104   117   118    2
   105   149   150    2
   106    44    43   ar
   107   124   122   ar
   108    33    32    1
   109    42    43    1
   110    75    76    1
   111   160   158    1
   112    36    35    1
   113    43    45   ar
   114    76    77    1
   115    35    32    1
   116    35    37    1
   117    32    31    1
   118   158   155    1
   119   158   159    1
   120   154   155    1
   121    81    79    1
   122   155   156    1
   123    78    79    2
   124    78    77    1
   125    79    80    1
   126   167   166    1
   127   166   168    1
   128   166   165    1
   129   182   180   ar
   130   156   161   am
   131   156   157    2
   132   161   162    1
   133   165   162    1
   134   180   181   ar
   135   180   179    1
   136   162   163    1
   137   174   173    1
   138     4     3    2
   139    18    19    1
   140    18    14   am
   141    19    20    1
   142   179   176    1
   143   169   163   am
   144   169   170    1
   145    29    28    2
   146   163   164    2
   147    20    21    2
   148    13    14    1
   149    13    16    1
   150    13    12    1
   151     6     7    1
   152     6     5    1
   153     7     8    1
   154    14    15    2
   155   175   176    1
   156   175   171   am
   157    16    17    1
   158     3    12   am
   159     3     2    1
   160   173   170    1
   161   176   177    1
   162   170   171    1
   163    26    23    1
   164    26    27    1
   165     5     2    1
   166    28    27    1
   167    28    30   am
   168    24    23    1
   169    24    25    2
   170   171   172    2
   171    22    23    1
   172     8     9    2
   173     2     1    1
   174   177   178    2
   175     9    10    1
   176     9    11    1
