@<TRIPOS>MOLECULE
tmp/3t4oA00.pdb
 146 133 0 0 0
SMALL
GASTEIGER

@<TRIPOS>ATOM
      1  N         -2.9160   22.9160   28.0420 N.3    75  GLY75      -0.1225
      2  CA        -2.9820   23.1330   26.6040 C.3    75  GLY75       0.1811
      3  C         -2.2670   22.0330   25.8550 C.2    75  GLY75       0.2280
      4  O         -1.4680   21.3290   26.4370 O.2    75  GLY75      -0.2866
      5  N         -0.5500   21.1680   21.7410 N.3    77  ALA77      -0.1245
      6  CA        -0.0780   21.7420   20.5020 C.3    77  ALA77       0.1562
      7  C          0.6160   20.6480   19.6620 C.2    77  ALA77       0.2260
      8  O          1.0440   19.6040   20.1870 O.2    77  ALA77      -0.2867
      9  CB         0.8810   22.8600   20.8050 C.3    77  ALA77       0.0290
     10  N          3.8110   20.1540   17.0190 N.3    79  ALA79      -0.1245
     11  CA         5.0720   20.6450   16.4490 C.3    79  ALA79       0.1562
     12  C          5.4820   19.7500   15.2920 C.2    79  ALA79       0.2260
     13  O          5.4680   18.5280   15.4100 O.2    79  ALA79      -0.2867
     14  CB         6.1630   20.6580   17.5180 C.3    79  ALA79       0.0290
     15  N         12.5950   29.5230   21.9250 N.3   101  MET101     -0.1245
     16  CA        11.6270   29.6510   23.0140 C.3   101  MET101      0.1570
     17  C         12.0770   30.5990   24.1110 C.2   101  MET101      0.2261
     18  O         11.2460   31.1660   24.8060 O.2   101  MET101     -0.2867
     19  CB        11.2370   28.2970   23.5950 C.3   101  MET101      0.0387
     20  CG        12.2340   27.6420   24.4640 C.3   101  MET101      0.0595
     21  SD        11.4060   26.2700   25.3100 S.3   101  MET101     -0.1393
     22  CE        10.9240   25.3190   23.8790 C.3   101  MET101      0.0692
     23  N          6.0630   24.7280   16.4640 N.3   116  VAL116     -0.1245
     24  CA         4.6460   24.5230   16.6840 C.3   116  VAL116      0.1561
     25  C          3.8550   25.1650   15.5300 C.2   116  VAL116      0.2260
     26  O          3.9730   26.3780   15.2410 O.2   116  VAL116     -0.2867
     27  CB         4.2040   25.0570   18.0320 C.3   116  VAL116      0.0252
     28  CG1        2.6350   25.0190   18.1590 C.3   116  VAL116      0.0019
     29  CG2        4.8640   24.2330   19.1700 C.3   116  VAL116      0.0019
     30  N         -2.5180   27.8880   24.8030 N.3   123  VAL123     -0.1245
     31  CA        -1.0710   27.9340   24.6420 C.3   123  VAL123      0.1561
     32  C         -0.6590   28.5230   23.2860 C.2   123  VAL123      0.2260
     33  O          0.3200   28.0660   22.6630 O.2   123  VAL123     -0.2867
     34  CB        -0.4490   26.5500   24.8670 C.3   123  VAL123      0.0252
     35  CG1       -0.6060   26.1030   26.3190 C.3   123  VAL123      0.0019
     36  CG2       -1.0330   25.4910   23.9110 C.3   123  VAL123      0.0019
     37  N          0.8260   31.1900   22.5460 N.3   125  TYR125     -0.1227
     38  CA         2.2060   31.7200   22.5710 C.3   125  TYR125      0.1736
     39  C          3.2630   30.7040   22.0890 C.2   125  TYR125      0.2595
     40  O          4.3960   31.0860   21.7640 O.2   125  TYR125     -0.2718
     41  CB         2.5810   32.2300   23.9660 C.3   125  TYR125      0.0548
     42  CG         2.2340   31.2710   25.0760 C.ar  125  TYR125     -0.0200
     43  CD1        3.0830   30.2190   25.4200 C.ar  125  TYR125     -0.0009
     44  CD2        1.0410   31.4160   25.7860 C.ar  125  TYR125     -0.0009
     45  CE1        2.7570   29.3340   26.4410 C.ar  125  TYR125      0.0417
     46  CE2        0.7010   30.5300   26.8020 C.ar  125  TYR125      0.0417
     47  CZ         1.5620   29.5010   27.1350 C.ar  125  TYR125      0.1957
     48  OH         1.2100   28.6470   28.1590 O.3   125  TYR125     -0.2866
     49  N          2.9020   29.4230   22.0040 N.am  126  LEU126     -0.1980
     50  CA         3.8220   28.4200   21.4420 C.3   126  LEU126      0.1596
     51  C          3.9380   28.4970   19.9240 C.2   126  LEU126      0.2287
     52  O          4.9240   28.0260   19.3670 O.2   126  LEU126     -0.2864
     53  CB         3.3880   27.0110   21.8160 C.3   126  LEU126      0.0297
     54  CG         3.3050   26.6250   23.2990 C.3   126  LEU126      0.0022
     55  CD1        2.6510   25.2170   23.3980 C.3   126  LEU126      0.0001
     56  CD2        4.7000   26.6550   24.0060 C.3   126  LEU126      0.0001
     57  N         10.3620   23.8100   19.5690 N.3   131  MET131     -0.1245
     58  CA        10.2890   23.0750   20.8230 C.3   131  MET131      0.1570
     59  C         11.6100   22.3610   21.1350 C.2   131  MET131      0.2261
     60  O         11.8400   21.9380   22.2600 O.2   131  MET131     -0.2867
     61  CB         9.1270   22.0790   20.7990 C.3   131  MET131      0.0387
     62  CG         7.7270   22.7330   20.7710 C.3   131  MET131      0.0595
     63  SD         7.2720   23.5350   22.3170 S.3   131  MET131     -0.1393
     64  CE         7.7150   25.2470   22.0020 C.3   131  MET131      0.0692
     65  N         12.0950   19.9370   26.6960 N.3   137  ASP137     -0.1239
     66  CA        11.2920   19.6590   25.5110 C.3   137  ASP137      0.1674
     67  C         12.0840   18.8800   24.4590 C.2   137  ASP137      0.2266
     68  O         11.5370   17.9710   23.8510 O.2   137  ASP137     -0.2867
     69  CB        10.7400   20.9460   24.9310 C.3   137  ASP137      0.1410
     70  CG         9.4720   21.4170   25.6690 C.2   137  ASP137      0.3668
     71  OD1        8.4090   20.8070   25.4320 O.co2 137  ASP137     -0.2456
     72  OD2        9.5410   22.3810   26.4520 O.co2 137  ASP137     -0.2456
     73  N         11.1680   15.1370   23.0400 N.3   141  ILE141     -0.1245
     74  CA        10.9350   14.9230   21.6090 C.3   141  ILE141      0.1561
     75  C         11.7500   13.7510   21.1050 C.2   141  ILE141      0.2260
     76  O         11.2410   12.8550   20.4140 O.2   141  ILE141     -0.2867
     77  CB        11.2350   16.2150   20.8270 C.3   141  ILE141      0.0252
     78  CG1        9.9990   17.1270   20.9400 C.3   141  ILE141      0.0019
     79  CG2       11.5480   15.9170   19.3390 C.3   141  ILE141      0.0019
     80  CD1       10.2430   18.6340   20.5650 C.3   141  ILE141      0.0001
     81  N          9.7070   21.1540   35.5270 N.3   156  PHE156     -0.1241
     82  CA        10.3440   22.4490   35.2980 C.3   156  PHE156      0.1605
     83  C          9.3150   23.5640   35.1480 C.2   156  PHE156      0.2264
     84  O          8.1160   23.2900   35.0330 O.2   156  PHE156     -0.2867
     85  CB        11.2590   22.3830   34.0640 C.3   156  PHE156      0.0534
     86  CG        10.5430   22.2440   32.7580 C.ar  156  PHE156     -0.0203
     87  CD1        9.9520   21.0470   32.3890 C.ar  156  PHE156     -0.0042
     88  CD2       10.5080   23.3040   31.8570 C.ar  156  PHE156     -0.0042
     89  CE1        9.2990   20.9290   31.1720 C.ar  156  PHE156     -0.0003
     90  CE2        9.9010   23.1700   30.6330 C.ar  156  PHE156     -0.0003
     91  CZ         9.2810   22.0000   30.3000 C.ar  156  PHE156     -0.0000
     92  N          7.2280   26.1550   33.2660 N.3   158  LEU158     -0.1231
     93  CA         6.6810   26.2180   31.9220 C.3   158  LEU158      0.1693
     94  C          6.7300   27.6250   31.3690 C.2   158  LEU158      0.2591
     95  O          6.8160   28.5830   32.1000 O.2   158  LEU158     -0.2718
     96  CB         5.2210   25.7280   31.9600 C.3   158  LEU158      0.0284
     97  CG         5.0610   24.2880   32.4440 C.3   158  LEU158      0.0019
     98  CD1        3.5760   23.9100   32.5180 C.3   158  LEU158      0.0001
     99  CD2        5.8380   23.3330   31.5190 C.3   158  LEU158      0.0001
    100  N          6.6700   27.7340   30.0520 N.am  159  LEU159     -0.1980
    101  CA         6.6300   29.0150   29.3760 C.3   159  LEU159      0.1596
    102  C          5.4110   29.8500   29.7520 C.2   159  LEU159      0.2287
    103  O          4.3200   29.3000   30.0020 O.2   159  LEU159     -0.2864
    104  CB         6.6170   28.8110   27.8470 C.3   159  LEU159      0.0297
    105  CG         7.8890   28.2920   27.1950 C.3   159  LEU159      0.0022
    106  CD1        7.5980   27.9960   25.7070 C.3   159  LEU159      0.0001
    107  CD2        9.0350   29.2900   27.3550 C.3   159  LEU159      0.0001
    108  N          5.9570   18.1940   30.8480 N.3   167  VAL167     -0.1245
    109  CA         5.4280   18.1500   29.4910 C.3   167  VAL167      0.1561
    110  C          5.3000   16.6910   29.0700 C.2   167  VAL167      0.2260
    111  O          6.1540   15.8660   29.3870 O.2   167  VAL167     -0.2867
    112  CB         6.3360   18.9160   28.5200 C.3   167  VAL167      0.0252
    113  CG1        6.0010   18.5410   27.0810 C.3   167  VAL167      0.0019
    114  CG2        6.2000   20.4100   28.7620 C.3   167  VAL167      0.0019
    115  N          4.7390   14.3310   25.6300 N.3   169  THR169     -0.1218
    116  CA         4.9560   14.3770   24.1790 C.3   169  THR169      0.1862
    117  C          4.7080   12.9770   23.5840 C.2   169  THR169      0.2287
    118  O          5.1730   11.9630   24.1440 O.2   169  THR169     -0.2866
    119  CB         6.3970   14.8230   23.8680 C.3   169  THR169      0.1770
    120  OG1        6.6830   16.0630   24.5340 O.3   169  THR169     -0.2211
    121  CG2        6.6150   14.9420   22.3230 C.3   169  THR169      0.0375
    122  N          5.3580   15.9240   16.5860 N.3   193  TYR193     -0.1241
    123  CA         5.2410   15.6990   18.0090 C.3   193  TYR193      0.1605
    124  C          3.9850   16.3920   18.5430 C.2   193  TYR193      0.2264
    125  O          3.7870   17.5890   18.3260 O.2   193  TYR193     -0.2867
    126  CB         6.5080   16.2300   18.7060 C.3   193  TYR193      0.0534
    127  CG         7.7550   16.0080   17.8910 C.ar  193  TYR193     -0.0201
    128  CD1        8.3490   14.7410   17.8350 C.ar  193  TYR193     -0.0009
    129  CD2        8.3120   17.0310   17.1500 C.ar  193  TYR193     -0.0009
    130  CE1        9.4590   14.5170   17.0390 C.ar  193  TYR193      0.0417
    131  CE2        9.4210   16.8320   16.3840 C.ar  193  TYR193      0.0417
    132  CZ        10.0080   15.5550   16.3480 C.ar  193  TYR193      0.1957
    133  OH        11.1150   15.3730   15.5650 O.3   193  TYR193     -0.2866
    134  N          2.0860   17.4400   21.8530 N.3   195  GLY195     -0.1210
    135  CA         2.4890   17.6190   23.2470 C.3   195  GLY195      0.1956
    136  C          1.4880   18.4130   24.0310 C.2   195  GLY195      0.2612
    137  O          0.6910   19.1500   23.4720 O.2   195  GLY195     -0.2717
    138  N          1.6070   18.2850   25.3360 N.am  196  GLY196     -0.1942
    139  CA         0.7130   18.9230   26.2570 C.3   196  GLY196      0.2014
    140  C          1.4650   19.2460   27.5280 C.2   196  GLY196      0.2638
    141  O          2.3960   18.5110   27.8990 O.2   196  GLY196     -0.2714
    142  N          1.0600   20.3460   28.1690 N.am  197  ALA197     -0.1977
    143  CA         1.6850   20.8260   29.3920 C.3   197  ALA197      0.1597
    144  C          0.8200   20.3990   30.5590 C.2   197  ALA197      0.2287
    145  O         -0.3260   20.8420   30.6500 O.2   197  ALA197     -0.2864
    146  CB         1.7750   22.3240   29.3690 C.3   197  ALA197      0.0319
@<TRIPOS>BOND
     1    26    25    2
     2    12    13    2
     3    12    11    1
     4    25    24    1
     5   133   132    1
     6   132   131   ar
     7   132   130   ar
     8   131   129   ar
     9    11    10    1
    10    11    14    1
    11    23    24    1
    12   122   123    1
    13    24    27    1
    14   130   128   ar
    15   129   127   ar
    16   128   127   ar
    17   127   126    1
    18   123   124    1
    19   123   126    1
    20    27    28    1
    21    27    29    1
    22   125   124    2
    23    79    77    1
    24    52    51    2
    25    57    58    1
    26     7     8    2
    27     7     6    1
    28    51    50    1
    29    76    75    2
    30     6     9    1
    31     6     5    1
    32    80    78    1
    33    62    61    1
    34    62    63    1
    35    61    58    1
    36    58    59    1
    37    77    78    1
    38    77    74    1
    39    75    74    1
    40    59    60    2
    41    50    53    1
    42    50    49    1
    43    74    73    1
    44    40    39    2
    45    53    54    1
    46   134   135    1
    47    15    16    1
    48    64    63    1
    49    49    39   am
    50    39    38    1
    51   121   119    1
    52    37    38    1
    53    38    41    1
    54    33    32    2
    55    16    19    1
    56    16    17    1
    57   135   136    1
    58    32    31    1
    59    54    55    1
    60    54    56    1
    61   137   136    2
    62   117   118    2
    63   117   116    1
    64    19    20    1
    65    68    67    2
    66   119   116    1
    67   119   120    1
    68    22    21    1
    69    36    34    1
    70    41    42    1
    71   136   138   am
    72    17    18    2
    73   116   115    1
    74    67    66    1
    75    20    21    1
    76    31    30    1
    77    31    34    1
    78    34    35    1
    79    69    66    1
    80    69    70    1
    81    42    43   ar
    82    42    44   ar
    83   138   139    1
    84    43    45   ar
    85    71    70   ar
    86    66    65    1
    87    70    72   ar
    88   106   105    1
    89    44    46   ar
    90     3     4    2
    91     3     2    1
    92   139   140    1
    93    45    47   ar
    94     2     1    1
    95    46    47   ar
    96   113   112    1
    97    47    48    1
    98   105   107    1
    99   105   104    1
   100   140   141    2
   101   140   142   am
   102   104   101    1
   103   142   143    1
   104   112   114    1
   105   112   109    1
   106   110   111    2
   107   110   109    1
   108   146   143    1
   109   101   102    1
   110   101   100    1
   111   143   144    1
   112   109   108    1
   113   102   103    2
   114   100    94   am
   115    91    90   ar
   116    91    89   ar
   117   144   145    2
   118    90    88   ar
   119    89    87   ar
   120    94    93    1
   121    94    95    2
   122    99    97    1
   123    88    86   ar
   124    93    96    1
   125    93    92    1
   126    96    97    1
   127    87    86   ar
   128    97    98    1
   129    86    85    1
   130    85    82    1
   131    84    83    2
   132    83    82    1
   133    82    81    1
