@<TRIPOS>MOLECULE
tmp/3t4pA00.pdb
 184 181 0 0 0
SMALL
GASTEIGER

@<TRIPOS>ATOM
      1  N        -17.5920   13.3320    5.8190 N.3    76  SER76      -0.1202
      2  CA       -17.5590   12.4860    6.9800 C.3    76  SER76       0.2020
      3  C        -17.0810   11.1000    6.4810 C.2    76  SER76       0.2619
      4  O        -17.7800   10.4660    5.7140 O.2    76  SER76      -0.2717
      5  CB       -18.9250   12.3340    7.6680 C.3    76  SER76       0.2103
      6  OG       -19.9330   11.8970    6.7260 O.3    76  SER76      -0.2182
      7  N        -15.9280   10.6350    6.9610 N.am   77  SER77      -0.1937
      8  CA       -15.4100    9.3400    6.4890 C.3    77  SER77       0.2055
      9  C        -14.3770    8.8510    7.4310 C.2    77  SER77       0.2644
     10  O        -13.3630    9.5650    7.6630 O.2    77  SER77      -0.2714
     11  CB       -14.6540    9.5050    5.1420 C.3    77  SER77       0.2130
     12  OG       -14.2160    8.1510    4.7080 O.3    77  SER77      -0.2179
     13  N        -14.5670    7.6420    7.9180 N.am   78  SER78      -0.1935
     14  CA       -13.4790    6.9860    8.6780 C.3    78  SER78       0.2055
     15  C        -12.8180    5.9460    7.7670 C.2    78  SER78       0.2644
     16  O        -12.0010    5.1300    8.2710 O.2    78  SER78      -0.2714
     17  CB       -14.0360    6.2800    9.9130 C.3    78  SER78       0.2130
     18  OG       -15.0090    5.2990    9.4870 O.3    78  SER78      -0.2179
     19  N        -13.0680    5.9980    6.4610 N.am   79  GLY79      -0.1939
     20  CA       -12.3750    5.0140    5.5370 C.3    79  GLY79       0.2014
     21  C        -11.7220    5.6660    4.3450 C.2    79  GLY79       0.2639
     22  O        -11.1970    6.7910    4.4410 O.2    79  GLY79      -0.2714
     23  N        -11.7750    4.9900    3.2070 N.am   80  ASN80      -0.1958
     24  CA       -10.9270    5.3700    2.1060 C.3    80  ASN80       0.1819
     25  C        -11.2960    6.6660    1.3710 C.2    80  ASN80       0.2621
     26  O        -10.4780    7.2930    0.7510 O.2    80  ASN80      -0.2715
     27  CB       -10.9140    4.2140    1.0790 C.3    80  ASN80       0.1195
     28  CG       -10.2400    2.9900    1.6000 C.2    80  ASN80       0.2630
     29  OD1       -9.2600    3.1130    2.2900 O.2    80  ASN80      -0.2716
     30  ND2      -10.7330    1.7700    1.2420 N.am   80  ASN80      -0.0877
     31  N        -12.5690    7.0380    1.4310 N.am   81  THR81      -0.1951
     32  CA       -12.9370    8.3080    0.8030 C.3    81  THR81       0.1897
     33  C        -12.2190    9.4920    1.4150 C.2    81  THR81       0.2313
     34  O        -11.7280   10.3460    0.7220 O.2    81  THR81      -0.2863
     35  CB       -14.4770    8.4940    0.9050 C.3    81  THR81       0.1794
     36  OG1      -15.0650    7.5710   -0.0100 O.3    81  THR81      -0.2208
     37  CG2      -14.8050    9.9160    0.4960 C.3    81  THR81       0.0378
     38  N         -5.8940    5.9040   11.2400 N.3   108  ARG108     -0.1245
     39  CA        -6.8850    6.5750   10.3440 C.3   108  ARG108      0.1563
     40  C         -6.6810    8.0700   10.4660 C.2   108  ARG108      0.2260
     41  O         -6.6040    8.7830    9.4460 O.2   108  ARG108     -0.2867
     42  CB        -8.3210    6.2030   10.6850 C.3   108  ARG108      0.0307
     43  CG        -8.5430    4.6560   10.7720 C.3   108  ARG108      0.0489
     44  CD        -8.9640    3.9070    9.4640 C.3   108  ARG108      0.2205
     45  NE       -10.4070    3.5950    9.6130 N.pl3 108  ARG108     -0.0865
     46  CZ       -10.9770    2.5090   10.1810 C.cat 108  ARG108      0.5346
     47  NH1      -10.2740    1.4560   10.6370 N.pl3 108  ARG108      0.1354
     48  NH2      -12.3000    2.4690   10.2330 N.pl3 108  ARG108      0.1354
     49  N        -20.7420    7.2680   13.8910 N.3   128  MET128     -0.1230
     50  CA       -20.6810    7.8520   12.5420 C.3   128  MET128      0.1702
     51  C        -21.8000    8.9010   12.3720 C.2   128  MET128      0.2589
     52  O        -21.6010    9.8680   11.6550 O.2   128  MET128     -0.2718
     53  CB       -20.8060    6.7940   11.4660 C.3   128  MET128      0.0401
     54  CG       -19.5220    6.2200   10.9880 C.3   128  MET128      0.0596
     55  SD       -18.2440    7.4240   10.4560 S.3   128  MET128     -0.1393
     56  CE       -19.0590    8.3520    9.1440 C.3   128  MET128      0.0692
     57  N        -22.9840    8.7000   12.9840 N.am  129  LYS129     -0.2033
     58  CA       -24.0570    9.7700   12.9390 C.3   129  LYS129      0.1282
     59  C        -23.5380   11.1100   13.3770 C.3   129  LYS129      0.2036
     60  O        -23.9040   12.1690   12.7410 O.3   129  LYS129     -0.2185
     61  CB       -25.3320    9.3530   13.7210 C.3   129  LYS129      0.0244
     62  CG       -25.9160    8.1510   12.9680 C.3   129  LYS129      0.0034
     63  CD       -27.3870    7.7490   13.2030 C.3   129  LYS129      0.0206
     64  CE       -27.8460    6.9360   11.9050 C.3   129  LYS129      0.1093
     65  NZ       -29.2710    6.4330   11.9420 N.3   129  LYS129     -0.1314
     66  N        -21.2490   12.5990   10.6820 N.3   132  VAL132     -0.1245
     67  CA       -22.0670   13.0890    9.6010 C.3   132  VAL132      0.1561
     68  C        -22.6910   14.4520    9.9770 C.2   132  VAL132      0.2260
     69  O        -22.7280   15.4220    9.1720 O.2   132  VAL132     -0.2867
     70  CB       -23.2040   12.0680    9.2210 C.3   132  VAL132      0.0252
     71  CG1      -24.3020   12.7120    8.2980 C.3   132  VAL132      0.0019
     72  CG2      -22.6320   10.7740    8.5210 C.3   132  VAL132      0.0019
     73  N        -20.3000   11.9320   -1.1070 N.3   150  GLN150     -0.1231
     74  CA       -19.9580   10.7050   -1.7920 C.3   150  GLN150      0.1698
     75  C        -21.1870    9.8220   -2.0520 C.2   150  GLN150      0.2592
     76  O        -21.1560    9.0260   -3.0130 O.2   150  GLN150     -0.2718
     77  CB       -18.9120    9.8860   -1.0220 C.3   150  GLN150      0.0381
     78  CG       -19.3660    9.3900    0.3760 C.3   150  GLN150      0.0905
     79  CD       -18.3080    8.4710    0.9820 C.2   150  GLN150      0.2608
     80  OE1      -17.5650    7.7490    0.2380 O.2   150  GLN150     -0.2717
     81  NE2      -18.1830    8.5340    2.3060 N.am  150  GLN150     -0.0878
     82  N        -22.2370    9.9970   -1.2570 N.am  151  PHE151     -0.1976
     83  CA       -23.3490    9.0430   -1.3930 C.3   151  PHE151      0.1639
     84  C        -24.4000    9.5110   -2.3850 C.2   151  PHE151      0.2290
     85  O        -25.3070    8.7380   -2.6650 O.2   151  PHE151     -0.2864
     86  CB       -24.0070    8.7570   -0.0500 C.3   151  PHE151      0.0560
     87  CG       -23.1680    7.9270    0.8430 C.ar  151  PHE151     -0.0200
     88  CD1      -22.9770    6.5250    0.6160 C.ar  151  PHE151     -0.0042
     89  CD2      -22.5820    8.5250    1.9730 C.ar  151  PHE151     -0.0042
     90  CE1      -22.1770    5.7260    1.5180 C.ar  151  PHE151     -0.0003
     91  CE2      -21.7750    7.7830    2.8050 C.ar  151  PHE151     -0.0003
     92  CZ       -21.5470    6.3730    2.5860 C.ar  151  PHE151     -0.0000
     93  N        -20.9060    0.2660   -1.4420 N.3   184  GLY184     -0.1210
     94  CA       -20.6900    1.2310   -0.3660 C.3   184  GLY184      0.1956
     95  C        -21.5310    2.4510   -0.7010 C.2   184  GLY184      0.2612
     96  O        -22.6400    2.6400   -0.1740 O.2   184  GLY184     -0.2717
     97  N        -20.9900    3.3070   -1.5460 N.am  185  THR185     -0.1952
     98  CA       -21.7650    4.3680   -2.1820 C.3   185  THR185      0.1897
     99  C        -22.6150    3.8640   -3.3690 C.2   185  THR185      0.2313
    100  O        -23.6350    4.5400   -3.7590 O.2   185  THR185     -0.2863
    101  CB       -20.8220    5.4800   -2.7730 C.3   185  THR185      0.1794
    102  OG1      -20.0220    4.9180   -3.8540 O.3   185  THR185     -0.2208
    103  CG2      -19.9210    6.0910   -1.6420 C.3   185  THR185      0.0378
    104  N        -26.2110   -6.3740    7.8820 N.3   213  SER213     -0.1217
    105  CA       -26.8370   -5.0660    7.5950 C.3   213  SER213      0.1889
    106  C        -27.4920   -5.0930    6.1730 C.2   213  SER213      0.2288
    107  O        -27.0820   -4.3880    5.2070 O.2   213  SER213     -0.2866
    108  CB       -25.7940   -3.9450    7.7040 C.3   213  SER213      0.2089
    109  OG       -26.4680   -2.6390    7.6590 O.3   213  SER213     -0.2183
    110  N        -30.8080   -1.9850    9.1790 N.3   221  PRO221     -0.2102
    111  CA       -29.3830   -1.6760    9.2370 C.3   221  PRO221      0.1504
    112  C        -28.7850   -2.1150   10.5610 C.2   221  PRO221      0.2576
    113  O        -29.4900   -2.1510   11.6050 O.2   221  PRO221     -0.2718
    114  CB       -29.3300   -0.1450    9.1520 C.3   221  PRO221      0.0282
    115  CG       -30.7470    0.3100    9.4020 C.3   221  PRO221      0.0208
    116  CD       -31.6400   -0.7920    8.9210 C.3   221  PRO221      0.0893
    117  N        -27.5070   -2.4570   10.5420 N.am  222  GLY222     -0.1943
    118  CA       -26.8890   -2.7240   11.8200 C.3   222  GLY222      0.1998
    119  C        -25.4040   -2.6630   11.6430 C.2   222  GLY222      0.2481
    120  O        -24.8820   -2.6000   10.5220 O.2   222  GLY222     -0.2729
    121  N        -24.6810   -2.6860   12.7650 N.am  223  PRO223     -0.2715
    122  CA       -23.2050   -2.6080   12.7600 C.3   223  PRO223      0.1536
    123  C        -22.6920   -3.9020   12.0800 C.2   223  PRO223      0.2598
    124  O        -23.3110   -5.0000   12.2060 O.2   223  PRO223     -0.2715
    125  CB       -22.8630   -2.6040   14.3040 C.3   223  PRO223      0.0310
    126  CG       -24.1530   -2.2830   14.9730 C.3   223  PRO223      0.0237
    127  CD       -25.2420   -2.9320   14.1190 C.3   223  PRO223      0.0939
    128  N        -21.6290   -3.8050   11.2780 N.am  224  HIS224     -0.1974
    129  CA       -21.0950   -5.0390   10.6830 C.3   224  HIS224      0.1656
    130  C        -19.6020   -4.8170   10.4770 C.2   224  HIS224      0.2291
    131  O        -19.1290   -3.7040   10.6490 O.2   224  HIS224     -0.2864
    132  CB       -21.7610   -5.3410    9.3370 C.3   224  HIS224      0.0771
    133  CG       -21.5060   -4.2650    8.3070 C.ar  224  HIS224      0.0820
    134  ND1      -20.4030   -4.2560    7.4550 N.ar  224  HIS224     -0.2267
    135  CD2      -22.2000   -3.1300    8.0320 C.ar  224  HIS224      0.1154
    136  CE1      -20.4360   -3.1650    6.7100 C.ar  224  HIS224      0.1986
    137  NE2      -21.5370   -2.4870    7.0070 N.ar  224  HIS224     -0.2212
    138  N        -15.7070   -3.4930    6.2150 N.3   227  GLN227     -0.1231
    139  CA       -15.3700   -2.1110    6.0120 C.3   227  GLN227      0.1698
    140  C        -15.4060   -1.7580    4.5390 C.2   227  GLN227      0.2593
    141  O        -14.8500   -2.5300    3.6810 O.2   227  GLN227     -0.2718
    142  CB       -13.9460   -1.8060    6.5550 C.3   227  GLN227      0.0381
    143  CG       -14.0220   -1.8020    8.1020 C.3   227  GLN227      0.0905
    144  CD       -12.6710   -1.5080    8.8080 C.2   227  GLN227      0.2608
    145  OE1      -12.4800   -1.9780    9.9580 O.2   227  GLN227     -0.2717
    146  NE2      -11.7780   -0.7440    8.1750 N.am  227  GLN227     -0.0878
    147  N        -15.9820   -0.5880    4.2260 N.am  228  GLY228     -0.1942
    148  CA       -16.0050   -0.1270    2.8090 C.3   228  GLY228      0.2014
    149  C        -17.4130   -0.3030    2.2070 C.2   228  GLY228      0.2639
    150  O        -17.7480    0.3830    1.2550 O.2   228  GLY228     -0.2714
    151  N        -18.2470   -1.2310    2.7350 N.am  229  ILE229     -0.1963
    152  CA       -19.5870   -1.4110    2.1600 C.3   229  ILE229      0.1727
    153  C        -20.6260   -1.3190    3.2590 C.2   229  ILE229      0.2617
    154  O        -20.2760   -1.1310    4.4440 O.2   229  ILE229     -0.2715
    155  CB       -19.7080   -2.7320    1.3690 C.3   229  ILE229      0.0290
    156  CG1      -19.6540   -3.9520    2.3390 C.3   229  ILE229      0.0022
    157  CG2      -18.5950   -2.7670    0.2360 C.3   229  ILE229      0.0023
    158  CD1      -20.0790   -5.2720    1.6290 C.3   229  ILE229      0.0001
    159  N        -21.8950   -1.3850    2.9040 N.am  230  GLY230     -0.1941
    160  CA       -22.9870   -1.4990    3.8920 C.3   230  GLY230      0.1998
    161  C        -23.1920   -0.2320    4.7310 C.2   230  GLY230      0.2481
    162  O        -22.9870   -0.2380    5.9710 O.2   230  GLY230     -0.2729
    163  N        -23.5870    0.8820    4.0830 N.am  231  PRO231     -0.2715
    164  CA       -23.7840    2.1360    4.8370 C.3   231  PRO231      0.1536
    165  C        -25.0360    2.1480    5.7650 C.2   231  PRO231      0.2599
    166  O        -25.1970    3.0590    6.6290 O.2   231  PRO231     -0.2715
    167  CB       -23.9320    3.1960    3.7220 C.3   231  PRO231      0.0310
    168  CG       -24.5460    2.4040    2.6650 C.3   231  PRO231      0.0237
    169  CD       -23.8540    1.0290    2.6390 C.3   231  PRO231      0.0939
    170  N        -25.9520    1.2260    5.5240 N.am  232  GLY232     -0.1941
    171  CA       -27.1300    1.1480    6.4070 C.3   232  GLY232      0.2014
    172  C        -28.2440    2.0650    5.9120 C.2   232  GLY232      0.2638
    173  O        -29.2270    2.2870    6.6450 O.2   232  GLY232     -0.2714
    174  N        -28.1720    2.4390    4.6170 N.am  233  PHE233     -0.1973
    175  CA       -29.2820    3.1090    3.9040 C.3   233  PHE233      0.1639
    176  C        -28.9840    2.8470    2.4530 C.2   233  PHE233      0.2290
    177  O        -27.9270    2.3440    2.1370 O.2   233  PHE233     -0.2864
    178  CB       -29.2890    4.6410    4.1930 C.3   233  PHE233      0.0560
    179  CG       -27.9730    5.3250    3.9720 C.ar  233  PHE233     -0.0200
    180  CD1      -27.6290    5.7670    2.7160 C.ar  233  PHE233     -0.0042
    181  CD2      -27.0810    5.5670    5.0640 C.ar  233  PHE233     -0.0042
    182  CE1      -26.4000    6.4460    2.4780 C.ar  233  PHE233     -0.0003
    183  CE2      -25.8440    6.2150    4.8470 C.ar  233  PHE233     -0.0003
    184  CZ       -25.5030    6.6420    3.5200 C.ar  233  PHE233     -0.0000
@<TRIPOS>BOND
     1   102   101    1
     2   100    99    2
     3    99    98    1
     4    76    75    2
     5   101    98    1
     6   101   103    1
     7    85    84    2
     8    84    83    1
     9    98    97    1
    10    75    74    1
    11    75    82   am
    12    74    73    1
    13    74    77    1
    14    97    95   am
    15    93    94    1
    16    83    82    1
    17    83    86    1
    18    77    78    1
    19    95    94    1
    20    95    96    2
    21    86    87    1
    22    36    35    1
    23   157   155    1
    24    80    79    2
    25    78    79    1
    26    37    35    1
    27    88    87   ar
    28    88    90   ar
    29    34    33    2
    30    26    25    2
    31    32    35    1
    32    32    33    1
    33    32    31    1
    34    87    89   ar
    35    79    81   am
    36    27    28    1
    37    27    24    1
    38    30    28   am
    39   150   149    2
    40   155   152    1
    41   155   156    1
    42    25    31   am
    43    25    24    1
    44    90    92   ar
    45    28    29    2
    46   158   156    1
    47    89    91   ar
    48    24    23    1
    49   177   176    2
    50   152   151    1
    51   152   153    1
    52   149   151   am
    53   149   148    1
    54   176   175    1
    55   182   180   ar
    56   182   184   ar
    57    92    91   ar
    58   169   168    1
    59   169   163    1
    60   168   167    1
    61   180   179   ar
    62   148   147    1
    63   159   153   am
    64   159   160    1
    65    23    21   am
    66   153   154    2
    67   184   183   ar
    68   141   140    2
    69   167   164    1
    70   160   161    1
    71   175   178    1
    72   175   174    1
    73   179   178    1
    74   179   181   ar
    75   163   161   am
    76   163   164    1
    77   147   140   am
    78    21    22    2
    79    21    20    1
    80   140   139    1
    81   174   172   am
    82    12    11    1
    83   161   162    2
    84   164   165    1
    85   183   181   ar
    86    11     8    1
    87   107   106    2
    88   170   165   am
    89   170   171    1
    90    20    19    1
    91     4     3    2
    92   165   166    2
    93     1     2    1
    94   172   171    1
    95   172   173    2
    96   139   138    1
    97   139   142    1
    98   106   105    1
    99    19    15   am
   100     3     7   am
   101     3     2    1
   102     8     7    1
   103     8     9    1
   104   142   143    1
   105   136   137   ar
   106   136   134   ar
   107     6     5    1
   108     2     5    1
   109   137   135   ar
   110     9    10    2
   111     9    13   am
   112   134   133   ar
   113   105   108    1
   114   105   104    1
   115   109   108    1
   116    15    16    2
   117    15    14    1
   118    13    14    1
   119   135   133   ar
   120   143   144    1
   121   146   144   am
   122    71    70    1
   123   133   132    1
   124    72    70    1
   125    14    17    1
   126   144   145    2
   127   116   110    1
   128   116   115    1
   129    56    55    1
   130   114   111    1
   131   114   115    1
   132    69    68    2
   133   110   111    1
   134    70    67    1
   135   111   112    1
   136   132   129    1
   137    41    40    2
   138    44    45    1
   139    44    43    1
   140    18    17    1
   141    67    68    1
   142    67    66    1
   143    45    46    2
   144    46    48    1
   145    46    47    1
   146    39    40    1
   147    39    42    1
   148    39    38    1
   149    55    54    1
   150   130   131    2
   151   130   129    1
   152   120   119    2
   153   117   112   am
   154   117   118    1
   155   112   113    2
   156   129   128    1
   157    42    43    1
   158    54    53    1
   159   128   123   am
   160    53    50    1
   161   119   118    1
   162   119   121   am
   163    52    51    2
   164    64    65    1
   165    64    63    1
   166   123   124    2
   167   123   122    1
   168    51    50    1
   169    51    57   am
   170    50    49    1
   171    60    59    1
   172   122   121    1
   173   122   125    1
   174   121   127    1
   175    58    57    1
   176    58    59    1
   177    58    61    1
   178    62    63    1
   179    62    61    1
   180   127   126    1
   181   125   126    1
