@<TRIPOS>MOLECULE
tmp/3t4sA00.pdb
 146 133 0 0 0
SMALL
GASTEIGER

@<TRIPOS>ATOM
      1  N         -2.8500   22.7720   28.0190 N.3    74  GLY74      -0.1225
      2  CA        -2.9230   22.9940   26.5920 C.3    74  GLY74       0.1811
      3  C         -2.1960   21.8910   25.8440 C.2    74  GLY74       0.2280
      4  O         -1.4000   21.1770   26.4310 O.2    74  GLY74      -0.2866
      5  N         -0.4230   21.0260   21.7130 N.3    76  ALA76      -0.1245
      6  CA         0.0240   21.6250   20.4810 C.3    76  ALA76       0.1562
      7  C          0.6910   20.5600   19.6280 C.2    76  ALA76       0.2260
      8  O          1.1880   19.5470   20.1500 O.2    76  ALA76      -0.2867
      9  CB         1.0370   22.7500   20.7590 C.3    76  ALA76       0.0290
     10  N          3.8210   20.0340   16.9120 N.3    78  ALA78      -0.1245
     11  CA         5.0840   20.5390   16.3690 C.3    78  ALA78       0.1562
     12  C          5.5140   19.6540   15.2190 C.2    78  ALA78       0.2260
     13  O          5.5050   18.4370   15.3490 O.2    78  ALA78      -0.2867
     14  CB         6.1530   20.5830   17.4490 C.3    78  ALA78       0.0290
     15  N         12.5670   29.3720   21.9040 N.3   100  MET100     -0.1245
     16  CA        11.5980   29.4920   22.9840 C.3   100  MET100      0.1570
     17  C         12.0600   30.4480   24.0740 C.2   100  MET100      0.2261
     18  O         11.2290   31.0440   24.7590 O.2   100  MET100     -0.2867
     19  CB        11.2330   28.1340   23.5590 C.3   100  MET100      0.0387
     20  CG        12.2250   27.5470   24.4320 C.3   100  MET100      0.0595
     21  SD        11.4520   26.1830   25.3050 S.3   100  MET100     -0.1393
     22  CE        10.9160   25.1880   23.9120 C.3   100  MET100      0.0692
     23  N          6.0860   24.6240   16.4110 N.3   115  VAL115     -0.1245
     24  CA         4.6650   24.4270   16.6260 C.3   115  VAL115      0.1561
     25  C          3.8780   25.0640   15.4850 C.2   115  VAL115      0.2260
     26  O          4.0200   26.2800   15.2120 O.2   115  VAL115     -0.2867
     27  CB         4.2210   24.9840   17.9750 C.3   115  VAL115      0.0252
     28  CG1        2.6790   24.9040   18.0990 C.3   115  VAL115      0.0019
     29  CG2        4.8430   24.1670   19.1160 C.3   115  VAL115      0.0019
     30  N         -2.4540   27.7690   24.7820 N.3   122  VAL122     -0.1245
     31  CA        -1.0020   27.8190   24.6350 C.3   122  VAL122      0.1561
     32  C         -0.6220   28.4070   23.2680 C.2   122  VAL122      0.2260
     33  O          0.3320   27.9730   22.6240 O.2   122  VAL122     -0.2867
     34  CB        -0.3510   26.4360   24.8510 C.3   122  VAL122      0.0252
     35  CG1       -0.5070   25.9990   26.2960 C.3   122  VAL122      0.0019
     36  CG2       -0.9380   25.3800   23.9130 C.3   122  VAL122      0.0019
     37  N          0.8750   31.0500   22.4860 N.3   124  TYR124     -0.1227
     38  CA         2.2410   31.6230   22.4860 C.3   124  TYR124      0.1736
     39  C          3.2710   30.6030   22.0220 C.2   124  TYR124      0.2595
     40  O          4.3980   30.9800   21.7030 O.2   124  TYR124     -0.2718
     41  CB         2.6520   32.1480   23.8720 C.3   124  TYR124      0.0548
     42  CG         2.3080   31.1970   24.9940 C.ar  124  TYR124     -0.0200
     43  CD1        3.1280   30.1090   25.3070 C.ar  124  TYR124     -0.0009
     44  CD2        1.1390   31.3700   25.7300 C.ar  124  TYR124     -0.0009
     45  CE1        2.7930   29.2180   26.3460 C.ar  124  TYR124      0.0417
     46  CE2        0.8010   30.5040   26.7550 C.ar  124  TYR124      0.0417
     47  CZ         1.6220   29.4360   27.0650 C.ar  124  TYR124      0.1957
     48  OH         1.2370   28.6200   28.0930 O.3   124  TYR124     -0.2866
     49  N          2.9040   29.3250   21.9380 N.am  125  LEU125     -0.1980
     50  CA         3.8220   28.3360   21.3700 C.3   125  LEU125      0.1596
     51  C          3.9400   28.4020   19.8490 C.2   125  LEU125      0.2287
     52  O          4.8960   27.8790   19.2930 O.2   125  LEU125     -0.2864
     53  CB         3.3900   26.9260   21.7320 C.3   125  LEU125      0.0297
     54  CG         3.3470   26.5240   23.1980 C.3   125  LEU125      0.0022
     55  CD1        2.7750   25.0800   23.3460 C.3   125  LEU125      0.0001
     56  CD2        4.7380   26.6470   23.8790 C.3   125  LEU125      0.0001
     57  N         10.3360   23.6510   19.4790 N.3   130  MET130     -0.1245
     58  CA        10.2720   22.9260   20.7430 C.3   130  MET130      0.1570
     59  C         11.5970   22.2310   21.0780 C.2   130  MET130      0.2261
     60  O         11.8400   21.8430   22.2220 O.2   130  MET130     -0.2867
     61  CB         9.1170   21.9250   20.7260 C.3   130  MET130      0.0387
     62  CG         7.7450   22.6020   20.6890 C.3   130  MET130      0.0595
     63  SD         7.3470   23.4520   22.2190 S.3   130  MET130     -0.1393
     64  CE         7.9920   25.1050   21.9540 C.3   130  MET130      0.0692
     65  N         12.0200   19.8070   26.6030 N.3   136  ASP136     -0.1239
     66  CA        11.2220   19.4740   25.4310 C.3   136  ASP136      0.1674
     67  C         12.0390   18.6980   24.4080 C.2   136  ASP136      0.2266
     68  O         11.5500   17.7410   23.8160 O.2   136  ASP136     -0.2867
     69  CB        10.6270   20.7370   24.8300 C.3   136  ASP136      0.1410
     70  CG         9.3740   21.1900   25.5660 C.2   136  ASP136      0.3668
     71  OD1        8.3010   20.5800   25.3170 O.co2 136  ASP136     -0.2456
     72  OD2        9.4660   22.1480   26.3430 O.co2 136  ASP136     -0.2456
     73  N         11.2000   15.0130   22.9600 N.3   140  ILE140     -0.1245
     74  CA        10.9650   14.7930   21.5370 C.3   140  ILE140      0.1561
     75  C         11.7870   13.6100   21.0360 C.2   140  ILE140      0.2260
     76  O         11.2620   12.7230   20.3650 O.2   140  ILE140     -0.2867
     77  CB        11.2620   16.0900   20.7640 C.3   140  ILE140      0.0252
     78  CG1       10.0360   17.0090   20.9150 C.3   140  ILE140      0.0019
     79  CG2       11.5840   15.7960   19.2900 C.3   140  ILE140      0.0019
     80  CD1       10.2970   18.4700   20.5520 C.3   140  ILE140      0.0001
     81  N          9.7240   21.0120   35.5080 N.3   155  PHE155     -0.1241
     82  CA        10.3630   22.2920   35.2170 C.3   155  PHE155      0.1605
     83  C          9.3280   23.3990   35.0660 C.2   155  PHE155      0.2264
     84  O          8.1180   23.1210   34.9860 O.2   155  PHE155     -0.2867
     85  CB        11.2530   22.1810   33.9540 C.3   155  PHE155      0.0534
     86  CG        10.5050   22.0600   32.6530 C.ar  155  PHE155     -0.0203
     87  CD1        9.8610   20.8830   32.2910 C.ar  155  PHE155     -0.0042
     88  CD2       10.5040   23.1100   31.7520 C.ar  155  PHE155     -0.0042
     89  CE1        9.2000   20.7740   31.0950 C.ar  155  PHE155     -0.0003
     90  CE2        9.8570   22.9870   30.5580 C.ar  155  PHE155     -0.0003
     91  CZ         9.2120   21.8420   30.2280 C.ar  155  PHE155     -0.0000
     92  N          7.2250   25.9460   33.1840 N.3   157  LEU157     -0.1231
     93  CA         6.6700   26.0590   31.8570 C.3   157  LEU157      0.1693
     94  C          6.7320   27.4790   31.3030 C.2   157  LEU157      0.2591
     95  O          6.8120   28.4590   32.0310 O.2   157  LEU157     -0.2718
     96  CB         5.2230   25.5440   31.8640 C.3   157  LEU157      0.0284
     97  CG         5.0510   24.0940   32.3140 C.3   157  LEU157      0.0019
     98  CD1        3.5430   23.7950   32.5100 C.3   157  LEU157      0.0001
     99  CD2        5.7050   23.0880   31.3530 C.3   157  LEU157      0.0001
    100  N          6.7240   27.5830   29.9860 N.am  158  LEU158     -0.1980
    101  CA         6.7010   28.8600   29.3080 C.3   158  LEU158      0.1596
    102  C          5.4990   29.6890   29.6950 C.2   158  LEU158      0.2287
    103  O          4.4100   29.1440   29.9180 O.2   158  LEU158     -0.2864
    104  CB         6.6890   28.6640   27.7860 C.3   158  LEU158      0.0297
    105  CG         7.9700   28.1380   27.1760 C.3   158  LEU158      0.0022
    106  CD1        7.6630   27.6920   25.7440 C.3   158  LEU158      0.0001
    107  CD2        9.0740   29.1960   27.2290 C.3   158  LEU158      0.0001
    108  N          6.0090   18.0600   30.8430 N.3   166  VAL166     -0.1245
    109  CA         5.4940   17.9700   29.4870 C.3   166  VAL166      0.1561
    110  C          5.3690   16.5030   29.0670 C.2   166  VAL166      0.2260
    111  O          6.2370   15.6870   29.3700 O.2   166  VAL166     -0.2867
    112  CB         6.3790   18.7560   28.5050 C.3   166  VAL166      0.0252
    113  CG1        6.0160   18.4290   27.0630 C.3   166  VAL166      0.0019
    114  CG2        6.2020   20.2470   28.7550 C.3   166  VAL166      0.0019
    115  N          4.8490   14.1850   25.6360 N.3   168  THR168     -0.1218
    116  CA         5.0550   14.2570   24.1990 C.3   168  THR168      0.1862
    117  C          4.8220   12.8730   23.5660 C.2   168  THR168      0.2287
    118  O          5.2930   11.8550   24.1070 O.2   168  THR168     -0.2866
    119  CB         6.4840   14.7920   23.8970 C.3   168  THR168      0.1770
    120  OG1        6.6960   16.0330   24.5850 O.3   168  THR168     -0.2211
    121  CG2        6.6630   14.9690   22.3710 C.3   168  THR168      0.0375
    122  N          5.3790   15.8780   16.5430 N.3   192  TYR192     -0.1241
    123  CA         5.2460   15.6150   17.9460 C.3   192  TYR192      0.1605
    124  C          4.0250   16.3150   18.4990 C.2   192  TYR192      0.2264
    125  O          3.8330   17.5080   18.3030 O.2   192  TYR192     -0.2867
    126  CB         6.5070   16.0860   18.6820 C.3   192  TYR192      0.0534
    127  CG         7.7770   15.8820   17.8520 C.ar  192  TYR192     -0.0201
    128  CD1        8.3780   14.6240   17.7980 C.ar  192  TYR192     -0.0009
    129  CD2        8.3360   16.9290   17.1150 C.ar  192  TYR192     -0.0009
    130  CE1        9.4870   14.4350   17.0070 C.ar  192  TYR192      0.0417
    131  CE2        9.4430   16.7460   16.3410 C.ar  192  TYR192      0.0417
    132  CZ        10.0140   15.4850   16.3020 C.ar  192  TYR192      0.1957
    133  OH        11.1590   15.2910   15.5310 O.3   192  TYR192     -0.2866
    134  N          2.3200   17.4140   21.8270 N.3   194  GLY194     -0.1210
    135  CA         2.7340   17.6640   23.2110 C.3   194  GLY194      0.1956
    136  C          1.6350   18.3390   24.0030 C.2   194  GLY194      0.2612
    137  O          0.7810   19.0120   23.4640 O.2   194  GLY194     -0.2717
    138  N          1.6830   18.1130   25.3040 N.am  195  GLY195     -0.1942
    139  CA         0.7450   18.6810   26.2340 C.3   195  GLY195      0.2014
    140  C          1.4700   19.0420   27.5060 C.2   195  GLY195      0.2638
    141  O          2.4380   18.3560   27.8970 O.2   195  GLY195     -0.2714
    142  N          1.0470   20.1510   28.1130 N.am  196  ALA196     -0.1977
    143  CA         1.6450   20.6640   29.3310 C.3   196  ALA196      0.1597
    144  C          0.7850   20.2350   30.5290 C.2   196  ALA196      0.2287
    145  O         -0.3750   20.6480   30.6150 O.2   196  ALA196     -0.2864
    146  CB         1.6760   22.1640   29.2830 C.3   196  ALA196      0.0319
@<TRIPOS>BOND
     1    26    25    2
     2    12    13    2
     3    12    11    1
     4    25    24    1
     5   133   132    1
     6   132   131   ar
     7   132   130   ar
     8   131   129   ar
     9    11    10    1
    10    11    14    1
    11    23    24    1
    12   122   123    1
    13    24    27    1
    14   130   128   ar
    15   129   127   ar
    16   128   127   ar
    17   127   126    1
    18   123   124    1
    19   123   126    1
    20    27    28    1
    21    27    29    1
    22   125   124    2
    23    79    77    1
    24    52    51    2
    25    57    58    1
    26     7     8    2
    27     7     6    1
    28    51    50    1
    29    76    75    2
    30     6     9    1
    31     6     5    1
    32    80    78    1
    33    62    61    1
    34    62    63    1
    35    61    58    1
    36    58    59    1
    37    77    78    1
    38    77    74    1
    39    75    74    1
    40    59    60    2
    41    50    53    1
    42    50    49    1
    43    74    73    1
    44    40    39    2
    45    53    54    1
    46   134   135    1
    47    15    16    1
    48    49    39   am
    49    64    63    1
    50    39    38    1
    51   121   119    1
    52    37    38    1
    53    38    41    1
    54    33    32    2
    55    16    19    1
    56    16    17    1
    57    54    55    1
    58    54    56    1
    59   135   136    1
    60    32    31    1
    61   137   136    2
    62    19    20    1
    63   117   118    2
    64   117   116    1
    65    68    67    2
    66    41    42    1
    67   119   116    1
    68   119   120    1
    69    22    21    1
    70    36    34    1
    71   136   138   am
    72    17    18    2
    73   116   115    1
    74    67    66    1
    75    20    21    1
    76    31    30    1
    77    31    34    1
    78    69    66    1
    79    69    70    1
    80    34    35    1
    81    42    43   ar
    82    42    44   ar
    83   138   139    1
    84    43    45   ar
    85    71    70   ar
    86    66    65    1
    87    70    72   ar
    88    44    46   ar
    89   106   105    1
    90     3     4    2
    91     3     2    1
    92   139   140    1
    93    45    47   ar
    94     2     1    1
    95    46    47   ar
    96   113   112    1
    97    47    48    1
    98   105   107    1
    99   105   104    1
   100   140   141    2
   101   140   142   am
   102   104   101    1
   103   142   143    1
   104   112   114    1
   105   112   109    1
   106   110   111    2
   107   110   109    1
   108   146   143    1
   109   101   102    1
   110   101   100    1
   111   143   144    1
   112   109   108    1
   113   102   103    2
   114   100    94   am
   115    91    90   ar
   116    91    89   ar
   117   144   145    2
   118    90    88   ar
   119    89    87   ar
   120    94    93    1
   121    94    95    2
   122    99    97    1
   123    88    86   ar
   124    93    96    1
   125    93    92    1
   126    96    97    1
   127    87    86   ar
   128    97    98    1
   129    86    85    1
   130    85    82    1
   131    84    83    2
   132    83    82    1
   133    82    81    1
