@<TRIPOS>MOLECULE
tmp/3t4tB00.pdb
 138 125 0 0 0
SMALL
GASTEIGER

@<TRIPOS>ATOM
      1  N        -20.7470    4.8600   14.9860 N.3    76  ALA76      -0.1245
      2  CA       -21.2810    5.3070   13.7300 C.3    76  ALA76       0.1562
      3  C        -21.9420    6.6600   13.8950 C.2    76  ALA76       0.2260
      4  O        -22.3340    7.0780   14.9910 O.2    76  ALA76      -0.2867
      5  CB       -22.2560    4.2920   13.1720 C.3    76  ALA76       0.0290
      6  N        -25.1250    8.9110   12.2610 N.3    78  ALA78      -0.1245
      7  CA       -26.3580    8.9670   11.5000 C.3    78  ALA78       0.1562
      8  C        -26.7670   10.4220   11.3500 C.2    78  ALA78       0.2260
      9  O        -26.7290   11.2050   12.2920 O.2    78  ALA78      -0.2867
     10  CB       -27.4740    8.2020   12.2050 C.3    78  ALA78       0.0290
     11  N        -33.9080   -1.3240    9.3370 N.3   100  MET100     -0.1245
     12  CA       -32.9340   -2.1090   10.1240 C.3   100  MET100      0.1570
     13  C        -33.3000   -3.5850   10.1390 C.2   100  MET100      0.2261
     14  O        -32.4170   -4.4690   10.2000 O.2   100  MET100     -0.2867
     15  CB       -32.8490   -1.6250   11.5940 C.3   100  MET100      0.0387
     16  CG       -32.0040   -0.3550   11.8590 C.3   100  MET100      0.0595
     17  SD       -32.1420    0.3090   13.5650 S.3   100  MET100     -0.1393
     18  CE       -32.4900   -1.2110   14.4220 C.3   100  MET100      0.0692
     19  N        -27.4660    5.9170    8.8060 N.3   115  VAL115     -0.1245
     20  CA       -25.9700    5.9180    9.0350 C.3   115  VAL115      0.1561
     21  C        -25.2190    6.2970    7.7900 C.2   115  VAL115      0.2260
     22  O        -25.3400    5.6690    6.7280 O.2   115  VAL115     -0.2867
     23  CB       -25.5320    4.6010    9.6000 C.3   115  VAL115      0.0252
     24  CG1      -23.9390    4.5600    9.6570 C.3   115  VAL115      0.0019
     25  CG2      -26.1660    4.3750   10.9840 C.3   115  VAL115      0.0019
     26  N        -18.7440   -2.1450   12.2550 N.3   122  VAL122     -0.1245
     27  CA       -20.2150   -2.0730   12.1020 C.3   122  VAL122      0.1561
     28  C        -20.5790   -1.5050   10.7390 C.2   122  VAL122      0.2260
     29  O        -21.5240   -0.6990   10.6020 O.2   122  VAL122     -0.2867
     30  CB       -20.8550   -1.2370   13.2400 C.3   122  VAL122      0.0252
     31  CG1      -20.8130   -1.9960   14.5770 C.3   122  VAL122      0.0019
     32  CG2      -20.2740    0.2150   13.3130 C.3   122  VAL122      0.0019
     33  N        -22.0870   -2.7810    8.3670 N.3   124  TYR124     -0.1227
     34  CA       -23.4430   -3.2000    7.9940 C.3   124  TYR124      0.1736
     35  C        -24.4960   -2.1680    8.3660 C.2   124  TYR124      0.2595
     36  O        -25.6190   -2.2200    7.8440 O.2   124  TYR124     -0.2718
     37  CB       -23.7490   -4.5750    8.5990 C.3   124  TYR124      0.0548
     38  CG       -23.4420   -4.6890   10.0610 C.ar  124  TYR124     -0.0200
     39  CD1      -24.2970   -4.1590   11.0310 C.ar  124  TYR124     -0.0009
     40  CD2      -22.2650   -5.3010   10.4940 C.ar  124  TYR124     -0.0009
     41  CE1      -24.0320   -4.2870   12.3680 C.ar  124  TYR124      0.0417
     42  CE2      -21.9820   -5.4280   11.8220 C.ar  124  TYR124      0.0417
     43  CZ       -22.8330   -4.9050   12.7650 C.ar  124  TYR124      0.1957
     44  OH       -22.5430   -5.0520   14.0970 O.3   124  TYR124     -0.2866
     45  N        -24.1500   -1.1890    9.2090 N.am  125  LEU125     -0.1980
     46  CA       -25.0800   -0.1140    9.5500 C.3   125  LEU125      0.1596
     47  C        -25.2330    0.9230    8.4330 C.2   125  LEU125      0.2287
     48  O        -26.2570    1.6240    8.4340 O.2   125  LEU125     -0.2864
     49  CB       -24.6910    0.6250   10.8310 C.3   125  LEU125      0.0297
     50  CG       -24.5950   -0.1990   12.1000 C.3   125  LEU125      0.0022
     51  CD1      -23.9890    0.6700   13.2210 C.3   125  LEU125      0.0001
     52  CD2      -25.9550   -0.8250   12.5620 C.3   125  LEU125      0.0001
     53  N        -31.6060    4.3870   11.6790 N.3   130  MET130     -0.1245
     54  CA       -31.5850    4.0320   13.0870 C.3   130  MET130      0.1570
     55  C        -32.9330    4.2960   13.8170 C.2   130  MET130      0.2261
     56  O        -33.1810    3.7990   14.8800 O.2   130  MET130     -0.2867
     57  CB       -30.4090    4.7020   13.7920 C.3   130  MET130      0.0387
     58  CG       -29.0880    4.3970   13.1760 C.3   130  MET130      0.0595
     59  SD       -28.6670    2.6790   13.5340 S.3   130  MET130     -0.1393
     60  CE       -29.0590    1.9570   11.9740 C.3   130  MET130      0.0692
     61  N        -33.3300    2.1890   19.4870 N.3   136  ASP136     -0.1239
     62  CA       -32.5350    3.2680   18.9080 C.3   136  ASP136      0.1674
     63  C        -33.3520    4.5510   18.6590 C.2   136  ASP136      0.2266
     64  O        -32.8680    5.6710   18.8600 O.2   136  ASP136     -0.2867
     65  CB       -31.8750    2.7950   17.5940 C.3   136  ASP136      0.1410
     66  CG       -30.5170    2.1920   17.8030 C.2   136  ASP136      0.3668
     67  OD1      -29.6480    2.8940   18.3680 O.co2 136  ASP136     -0.2456
     68  OD2      -30.3260    1.0260   17.4050 O.co2 136  ASP136     -0.2456
     69  N        -32.5570    8.1950   20.2390 N.3   140  ILE140     -0.1245
     70  CA       -32.2800    9.3240   19.3680 C.3   140  ILE140      0.1561
     71  C        -33.1250   10.5310   19.8290 C.2   140  ILE140      0.2260
     72  O        -32.6430   11.6540   19.9100 O.2   140  ILE140     -0.2867
     73  CB       -32.5450    8.9230   17.8880 C.3   140  ILE140      0.0252
     74  CG1      -31.2920    8.2670   17.2990 C.3   140  ILE140      0.0019
     75  CG2      -32.9830   10.1810   17.0670 C.3   140  ILE140      0.0019
     76  CD1      -31.5010    7.5180   16.0020 C.3   140  ILE140      0.0001
     77  N        -30.8800   -4.7590   24.9140 N.3   155  PHE155     -0.1241
     78  CA       -31.4830   -5.4660   23.8030 C.3   155  PHE155      0.1605
     79  C        -30.4140   -6.1520   22.9560 C.2   155  PHE155      0.2264
     80  O        -29.1980   -5.9290   23.1230 O.2   155  PHE155     -0.2867
     81  CB       -32.3560   -4.5250   22.9280 C.3   155  PHE155      0.0534
     82  CG       -31.5860   -3.5560   22.0650 C.ar  155  PHE155     -0.0203
     83  CD1      -30.9780   -2.4540   22.6040 C.ar  155  PHE155     -0.0042
     84  CD2      -31.4920   -3.7380   20.6970 C.ar  155  PHE155     -0.0042
     85  CE1      -30.3060   -1.5370   21.8110 C.ar  155  PHE155     -0.0003
     86  CE2      -30.7810   -2.8140   19.8960 C.ar  155  PHE155     -0.0003
     87  CZ       -30.1930   -1.7420   20.4620 C.ar  155  PHE155     -0.0000
     88  N        -28.2890   -6.7970   19.8740 N.3   157  LEU157     -0.1231
     89  CA       -27.7300   -5.9320   18.8630 C.3   157  LEU157      0.1693
     90  C        -27.8300   -6.6240   17.5220 C.2   157  LEU157      0.2591
     91  O        -27.9010   -7.8540   17.4280 O.2   157  LEU157     -0.2718
     92  CB       -26.2460   -5.6330   19.1530 C.3   157  LEU157      0.0284
     93  CG       -25.9730   -4.9730   20.5100 C.3   157  LEU157      0.0019
     94  CD1      -24.4700   -4.7650   20.7320 C.3   157  LEU157      0.0001
     95  CD2      -26.7430   -3.6600   20.6620 C.3   157  LEU157      0.0001
     96  N        -27.7920   -5.8160   16.4920 N.am  158  LEU158     -0.1980
     97  CA       -27.8350   -6.2890   15.1130 C.3   158  LEU158      0.1596
     98  C        -26.6960   -7.2190   14.7870 C.2   158  LEU158      0.2287
     99  O        -25.6000   -7.0710   15.3480 O.2   158  LEU158     -0.2864
    100  CB       -27.7750   -5.1060   14.1330 C.3   158  LEU158      0.0297
    101  CG       -29.0020   -4.1990   14.0120 C.3   158  LEU158      0.0022
    102  CD1      -28.6450   -2.9130   13.2530 C.3   158  LEU158      0.0001
    103  CD2      -30.1200   -4.9670   13.2870 C.3   158  LEU158      0.0001
    104  N        -27.1140    0.6440   23.5100 N.3   166  VAL166     -0.1245
    105  CA       -26.5930    1.6610   22.6090 C.3   166  VAL166      0.1561
    106  C        -26.4880    2.9860   23.3560 C.2   166  VAL166      0.2260
    107  O        -27.3780    3.3850   24.1380 O.2   166  VAL166     -0.2867
    108  CB       -27.4290    1.7930   21.3250 C.3   166  VAL166      0.0252
    109  CG1      -26.9860    3.0480   20.5240 C.3   166  VAL166      0.0019
    110  CG2      -27.2860    0.5120   20.5030 C.3   166  VAL166      0.0019
    111  N        -26.0550    6.9950   22.6670 N.3   168  THR168     -0.1218
    112  CA       -26.2400    7.9630   21.5910 C.3   168  THR168      0.1862
    113  C        -25.9930    9.3900   22.0860 C.2   168  THR168      0.2287
    114  O        -26.4590    9.7590   23.1760 O.2   168  THR168     -0.2866
    115  CB       -27.6690    7.8330   21.0130 C.3   168  THR168      0.1770
    116  OG1      -27.9410    6.4610   20.6870 O.3   168  THR168     -0.2211
    117  CG2      -27.8910    8.7300   19.8090 C.3   168  THR168      0.0375
    118  N        -26.6270   12.1660   14.9400 N.3   192  TYR192     -0.1241
    119  CA       -26.5080   11.3520   16.1340 C.3   192  TYR192      0.1605
    120  C        -25.2720   10.4910   16.0290 C.2   192  TYR192      0.2264
    121  O        -25.0530    9.8520   14.9890 O.2   192  TYR192     -0.2867
    122  CB       -27.7220   10.4520   16.3020 C.3   192  TYR192      0.0534
    123  CG       -29.0060   11.1530   15.9050 C.ar  192  TYR192     -0.0201
    124  CD1      -29.5960   12.0810   16.7660 C.ar  192  TYR192     -0.0009
    125  CD2      -29.5660   10.9510   14.6540 C.ar  192  TYR192     -0.0009
    126  CE1      -30.7410   12.7590   16.3860 C.ar  192  TYR192      0.0417
    127  CE2      -30.7100   11.6210   14.2790 C.ar  192  TYR192      0.0417
    128  CZ       -31.2740   12.5390   15.1440 C.ar  192  TYR192      0.1957
    129  OH       -32.4510   13.1810   14.7340 O.3   192  TYR192     -0.2866
    130  N        -23.6540    7.2580   17.5680 N.3   194  GLY194     -0.1225
    131  CA       -24.0460    6.0970   18.3120 C.3   194  GLY194      0.1811
    132  C        -22.9430    5.0900   18.4860 C.2   194  GLY194      0.2280
    133  O        -22.1000    4.9160   17.5910 O.2   194  GLY194     -0.2866
    134  N        -22.2940    1.0760   20.0070 N.3   196  ALA196     -0.1245
    135  CA       -22.8660   -0.1790   20.4570 C.3   196  ALA196      0.1562
    136  C        -21.9880   -0.7540   21.5540 C.2   196  ALA196      0.2260
    137  O        -20.8130   -1.1520   21.3010 O.2   196  ALA196     -0.2867
    138  CB       -22.9170   -1.1450   19.2860 C.3   196  ALA196      0.0290
@<TRIPOS>BOND
     1    22    21    2
     2    21    20    1
     3    36    35    2
     4    34    35    1
     5    34    33    1
     6    34    37    1
     7    35    45   am
     8    47    48    2
     9    47    46    1
    10    37    38    1
    11    19    20    1
    12    20    23    1
    13    45    46    1
    14    11    12    1
    15    46    49    1
    16    23    24    1
    17    23    25    1
    18    38    40   ar
    19    38    39   ar
    20    12    13    1
    21    12    15    1
    22    13    14    2
    23    40    42   ar
    24    29    28    2
    25    28    27    1
    26    49    50    1
    27    39    41   ar
    28     8     7    1
    29     8     9    2
    30     7    10    1
    31     7     6    1
    32    15    16    1
    33    53    54    1
    34    42    43   ar
    35    16    17    1
    36    60    59    1
    37    50    52    1
    38    50    51    1
    39    27    26    1
    40    27    30    1
    41    41    43   ar
    42    43    44    1
    43    54    57    1
    44    54    55    1
    45     5     2    1
    46    58    59    1
    47    58    57    1
    48    30    32    1
    49    30    31    1
    50   102   101    1
    51   103   101    1
    52    17    18    1
    53     2     3    1
    54     2     1    1
    55    55    56    2
    56     3     4    2
    57   101   100    1
    58   100    97    1
    59   127   125   ar
    60   127   128   ar
    61   125   123   ar
    62   129   128    1
    63    98    97    1
    64    98    99    2
    65   118   119    1
    66   121   120    2
    67    97    96    1
    68   128   126   ar
    69   123   122    1
    70   123   124   ar
    71    76    74    1
    72   120   119    1
    73   119   122    1
    74   126   124   ar
    75    96    90   am
    76    75    73    1
    77    74    73    1
    78    68    66   ar
    79    91    90    2
    80    90    89    1
    81   130   131    1
    82   133   132    2
    83    65    66    1
    84    65    62    1
    85    66    67   ar
    86    73    70    1
    87   131   132    1
    88    63    64    2
    89    63    62    1
    90    89    92    1
    91    89    88    1
    92    62    61    1
    93    92    93    1
    94   138   135    1
    95    70    71    1
    96    70    69    1
    97   117   115    1
    98    71    72    2
    99    86    87   ar
   100    86    84   ar
   101   134   135    1
   102   135   136    1
   103    87    85   ar
   104   110   108    1
   105    93    95    1
   106    93    94    1
   107   109   108    1
   108   116   115    1
   109    84    82   ar
   110   115   112    1
   111   137   136    2
   112   108   105    1
   113   112   113    1
   114   112   111    1
   115    85    83   ar
   116    82    83   ar
   117    82    81    1
   118   113   114    2
   119   105   106    1
   120   105   104    1
   121    81    78    1
   122    79    80    2
   123    79    78    1
   124   106   107    2
   125    78    77    1
