@<TRIPOS>MOLECULE
tmp/3t4vA00.pdb
 188 177 0 0 0
SMALL
GASTEIGER

@<TRIPOS>ATOM
      1  N          4.3000   -3.7810   -0.7970 N.3   104  LEU104     -0.1245
      2  CA         3.0560   -4.5060   -1.0950 C.3   104  LEU104      0.1561
      3  C          2.4090   -3.8340   -2.2890 C.2   104  LEU104      0.2260
      4  O          2.3180   -2.6140   -2.3230 O.2   104  LEU104     -0.2867
      5  CB         2.1000   -4.4570    0.1050 C.3   104  LEU104      0.0270
      6  CG         0.6980   -5.0620   -0.0690 C.3   104  LEU104      0.0019
      7  CD1        0.8220   -6.5430   -0.2910 C.3   104  LEU104      0.0001
      8  CD2       -0.1460   -4.8080    1.1970 C.3   104  LEU104      0.0001
      9  N         -0.9280   -3.5460   -4.3690 N.3   106  ASN106     -0.1240
     10  CA        -2.3900   -3.7810   -4.3510 C.3   106  ASN106      0.1653
     11  C         -2.9850   -3.4550   -5.7160 C.2   106  ASN106      0.2266
     12  O         -2.7610   -2.3670   -6.2490 O.2   106  ASN106     -0.2867
     13  CB        -3.0550   -2.8660   -3.2960 C.3   106  ASN106      0.1155
     14  CG        -2.8100   -3.3210   -1.8590 C.2   106  ASN106      0.2627
     15  OD1       -3.0900   -2.5720   -0.8820 O.2   106  ASN106     -0.2716
     16  ND2       -2.3120   -4.5130   -1.7050 N.am  106  ASN106     -0.0877
     17  N         -6.6170   -3.0200   -7.7280 N.3   108  TYR108     -0.1241
     18  CA        -8.0830   -2.8090   -7.6630 C.3   108  TYR108      0.1605
     19  C         -8.7360   -2.8820   -9.0240 C.2   108  TYR108      0.2264
     20  O         -8.5530   -1.9840   -9.8560 O.2   108  TYR108     -0.2867
     21  CB        -8.4100   -1.4050   -7.0950 C.3   108  TYR108      0.0534
     22  CG        -7.8880   -1.2510   -5.6750 C.ar  108  TYR108     -0.0201
     23  CD1       -6.5470   -1.0380   -5.4250 C.ar  108  TYR108     -0.0009
     24  CD2       -8.7690   -1.3030   -4.5870 C.ar  108  TYR108     -0.0009
     25  CE1       -6.0700   -0.9180   -4.1080 C.ar  108  TYR108      0.0417
     26  CE2       -8.2950   -1.1980   -3.2850 C.ar  108  TYR108      0.0417
     27  CZ        -6.9530   -0.9990   -3.0620 C.ar  108  TYR108      0.1957
     28  OH        -6.4960   -0.8990   -1.7810 O.3   108  TYR108     -0.2866
     29  N        -10.8440   -1.8160    0.2350 N.3   114  LEU114     -0.1245
     30  CA        -9.9990   -2.2750    1.3130 C.3   114  LEU114      0.1561
     31  C        -10.6160   -1.7540    2.5950 C.2   114  LEU114      0.2260
     32  O        -10.7630   -0.5350    2.7890 O.2   114  LEU114     -0.2867
     33  CB        -8.5820   -1.7460    1.1070 C.3   114  LEU114      0.0270
     34  CG        -7.4730   -2.4330    1.8870 C.3   114  LEU114      0.0019
     35  CD1       -7.3650   -3.9180    1.4870 C.3   114  LEU114      0.0001
     36  CD2       -6.1830   -1.7040    1.6440 C.3   114  LEU114      0.0001
     37  N         -8.6870   -0.3870    8.4680 N.3   117  HIS117     -0.1241
     38  CA        -7.6930   -1.1260    9.2370 C.3   117  HIS117      0.1621
     39  C         -6.5680   -0.1770    9.6210 C.2   117  HIS117      0.2264
     40  O         -6.4760    0.9350    9.0950 O.2   117  HIS117     -0.2867
     41  CB        -7.0950   -2.2620    8.4100 C.3   117  HIS117      0.0745
     42  CG        -6.3140   -1.7710    7.2420 C.ar  117  HIS117      0.0817
     43  ND1       -6.9170   -1.3570    6.0730 N.ar  117  HIS117     -0.2268
     44  CD2       -4.9860   -1.5580    7.0810 C.ar  117  HIS117      0.1154
     45  CE1       -5.9910   -0.9320    5.2310 C.ar  117  HIS117      0.1986
     46  NE2       -4.8150   -1.0380    5.8180 N.ar  117  HIS117     -0.2212
     47  N         -2.2130   -0.3280    9.9490 N.3   119  ASP119     -0.1239
     48  CA        -1.0750   -1.1770    9.6900 C.3   119  ASP119      0.1674
     49  C         -0.2290   -1.1430   10.9450 C.2   119  ASP119      0.2266
     50  O          0.4660   -0.1640   11.2440 O.2   119  ASP119     -0.2867
     51  CB        -0.3100   -0.5740    8.5330 C.3   119  ASP119      0.1410
     52  CG        -0.9870   -0.8350    7.2120 C.2   119  ASP119      0.3668
     53  OD1       -1.9300   -0.0970    6.8990 O.co2 119  ASP119     -0.2456
     54  OD2       -0.5840   -1.7940    6.5080 O.co2 119  ASP119     -0.2456
     55  N          5.1640    4.7330    6.3080 N.3   129  ILE129     -0.1245
     56  CA         4.8720    3.9560    5.1170 C.3   129  ILE129      0.1561
     57  C          4.6990    4.9280    3.9830 C.2   129  ILE129      0.2260
     58  O          4.0830    6.0030    4.1570 O.2   129  ILE129     -0.2867
     59  CB         3.6270    3.0350    5.3270 C.3   129  ILE129      0.0252
     60  CG1        3.9840    1.8800    6.2890 C.3   129  ILE129      0.0019
     61  CG2        3.0670    2.4810    3.9870 C.3   129  ILE129      0.0019
     62  CD1        2.8020    0.9570    6.6990 C.3   129  ILE129      0.0001
     63  N          3.0040    5.4540    0.2440 N.3   131  SER131     -0.1217
     64  CA         2.1080    4.9140   -0.7890 C.3   131  SER131      0.1889
     65  C          2.2590    5.6530   -2.1090 C.2   131  SER131      0.2288
     66  O          2.5200    6.8700   -2.1420 O.2   131  SER131     -0.2866
     67  CB         0.6240    4.9960   -0.3640 C.3   131  SER131      0.2089
     68  OG         0.2420    6.3590   -0.1690 O.3   131  SER131     -0.2183
     69  N         -9.9490    7.5010   -0.6290 N.3   140  PHE140     -0.1241
     70  CA        -9.2680    7.0430    0.5780 C.3   140  PHE140      0.1605
     71  C         -9.9650    7.5800    1.8190 C.2   140  PHE140      0.2264
     72  O        -10.2380    8.7870    1.9290 O.2   140  PHE140     -0.2867
     73  CB        -7.8110    7.5180    0.4870 C.3   140  PHE140      0.0534
     74  CG        -6.9910    7.2990    1.7360 C.ar  140  PHE140     -0.0203
     75  CD1       -6.4860    6.0330    2.0520 C.ar  140  PHE140     -0.0042
     76  CD2       -6.6910    8.3680    2.5740 C.ar  140  PHE140     -0.0042
     77  CE1       -5.7240    5.8310    3.1870 C.ar  140  PHE140     -0.0003
     78  CE2       -5.9230    8.1800    3.7100 C.ar  140  PHE140     -0.0003
     79  CZ        -5.4350    6.9100    4.0280 C.ar  140  PHE140     -0.0000
     80  N         -7.3630    9.7860   -4.0860 N.3   156  LEU156     -0.1245
     81  CA        -5.9680    9.5200   -4.4540 C.3   156  LEU156      0.1561
     82  C         -5.9770    9.2790   -5.9550 C.2   156  LEU156      0.2260
     83  O         -6.7170    8.4290   -6.4620 O.2   156  LEU156     -0.2867
     84  CB        -5.4140    8.3160   -3.6900 C.3   156  LEU156      0.0270
     85  CG        -5.2510    8.5850   -2.1820 C.3   156  LEU156      0.0019
     86  CD1       -4.8760    7.3030   -1.4670 C.3   156  LEU156      0.0001
     87  CD2       -4.1650    9.6670   -1.9190 C.3   156  LEU156      0.0001
     88  N          3.2790    8.5260    5.0110 N.3   164  TRP164     -0.1241
     89  CA         2.4350    8.5460    6.1860 C.3   164  TRP164      0.1605
     90  C          3.3480    8.3820    7.4070 C.2   164  TRP164      0.2264
     91  O          3.7540    7.2720    7.7750 O.2   164  TRP164     -0.2867
     92  CB         1.4800    7.3260    6.0530 C.3   164  TRP164      0.0550
     93  CG         0.6400    7.3610    4.7870 C.ar  164  TRP164      0.0003
     94  CD1        0.8900    6.7270    3.5890 C.ar  164  TRP164      0.0946
     95  CD2       -0.5630    8.1020    4.6030 C.ar  164  TRP164      0.0152
     96  NE1       -0.1050    7.0350    2.6680 N.ar  164  TRP164     -0.2442
     97  CE2       -0.9950    7.8930    3.2730 C.ar  164  TRP164      0.0810
     98  CE3       -1.3140    8.9470    5.4370 C.ar  164  TRP164      0.0012
     99  CZ2       -2.1630    8.4720    2.7710 C.ar  164  TRP164      0.0191
    100  CZ3       -2.4560    9.5240    4.9400 C.ar  164  TRP164      0.0001
    101  CH2       -2.8780    9.2860    3.6150 C.ar  164  TRP164      0.0015
    102  N         -0.2460   10.0930   11.6800 N.3   168  SER168     -0.1202
    103  CA        -1.0370    9.5230   10.6210 C.3   168  SER168      0.2020
    104  C         -0.6420    8.0800   10.3660 C.2   168  SER168      0.2618
    105  O         -1.4400    7.3020    9.8230 O.2   168  SER168     -0.2717
    106  CB        -0.8890   10.3260    9.3250 C.3   168  SER168      0.2103
    107  OG         0.3310   10.0130    8.6670 O.3   168  SER168     -0.2182
    108  N          0.5930    7.7360   10.7430 N.am  169  ARG169     -0.1979
    109  CA         1.0800    6.3730   10.5260 C.3   169  ARG169      0.1597
    110  C          0.1670    5.3360   11.2340 C.2   169  ARG169      0.2287
    111  O          0.0510    4.1690   10.7920 O.2   169  ARG169     -0.2864
    112  CB         2.5250    6.3090   11.0530 C.3   169  ARG169      0.0334
    113  CG         3.1620    4.9440   11.0810 C.3   169  ARG169      0.0492
    114  CD         3.3980    4.3800    9.6790 C.3   169  ARG169      0.2205
    115  NE         4.0440    3.0800    9.8370 N.pl3 169  ARG169     -0.0865
    116  CZ         3.3510    1.9710   10.0680 C.cat 169  ARG169      0.5346
    117  NH1        2.0160    2.0430   10.1190 N.pl3 169  ARG169      0.1354
    118  NH2        3.9740    0.8090   10.2090 N.pl3 169  ARG169      0.1354
    119  N         -3.2270    5.8480   11.8570 N.3   171  PHE171     -0.1241
    120  CA        -4.6610    6.1030   11.6370 C.3   171  PHE171      0.1605
    121  C         -5.3120    4.8400   11.0700 C.2   171  PHE171      0.2264
    122  O         -4.6980    4.1130   10.2680 O.2   171  PHE171     -0.2867
    123  CB        -4.8830    7.2110   10.6020 C.3   171  PHE171      0.0534
    124  CG        -4.6870    8.6090   11.1280 C.ar  171  PHE171     -0.0203
    125  CD1       -4.7380    9.6910   10.2470 C.ar  171  PHE171     -0.0042
    126  CD2       -4.4500    8.8470   12.4610 C.ar  171  PHE171     -0.0042
    127  CE1       -4.5700   11.0000   10.7110 C.ar  171  PHE171     -0.0003
    128  CE2       -4.2710   10.1540   12.9300 C.ar  171  PHE171     -0.0003
    129  CZ        -4.3370   11.2260   12.0320 C.ar  171  PHE171     -0.0000
    130  N         -7.6180    3.4120    8.2670 N.3   173  HIS173     -0.1226
    131  CA        -7.7800    3.9420    6.9130 C.3   173  HIS173      0.1752
    132  C         -8.2480    2.8090    6.0160 C.2   173  HIS173      0.2597
    133  O         -8.1730    1.6310    6.4010 O.2   173  HIS173     -0.2718
    134  CB        -6.4550    4.5210    6.3980 C.3   173  HIS173      0.0759
    135  CG        -5.3520    3.5140    6.3780 C.ar  173  HIS173      0.0818
    136  ND1       -4.6290    3.1890    7.5100 N.ar  173  HIS173     -0.2268
    137  CD2       -4.9190    2.6850    5.3990 C.ar  173  HIS173      0.1154
    138  CE1       -3.7710    2.2310    7.2140 C.ar  173  HIS173      0.1986
    139  NE2       -3.9290    1.9080    5.9440 N.ar  173  HIS173     -0.2212
    140  N         -8.7340    3.1620    4.8240 N.am  174  GLY174     -0.1942
    141  CA        -9.1650    2.1620    3.8600 C.3   174  GLY174      0.2014
    142  C         -9.4710    2.7900    2.5110 C.2   174  GLY174      0.2638
    143  O         -9.2980    3.9920    2.3140 O.2   174  GLY174     -0.2714
    144  N         -9.9630    1.9750    1.5840 N.am  175  ILE175     -0.1977
    145  CA       -10.2540    2.4360    0.2130 C.3   175  ILE175      0.1596
    146  C        -11.6870    2.0020   -0.0900 C.2   175  ILE175      0.2287
    147  O        -12.0520    0.8390    0.1350 O.2   175  ILE175     -0.2864
    148  CB        -9.2970    1.8020   -0.8010 C.3   175  ILE175      0.0276
    149  CG1       -7.8780    2.3290   -0.5810 C.3   175  ILE175      0.0022
    150  CG2       -9.7480    2.0640   -2.2650 C.3   175  ILE175      0.0022
    151  CD1       -7.6840    3.8170   -1.0690 C.3   175  ILE175      0.0001
    152  N         -6.7080    0.1760  -10.7200 N.3   190  ARG190     -0.1245
    153  CA        -5.8040    1.0050   -9.9250 C.3   190  ARG190      0.1563
    154  C         -4.7250    0.1260   -9.2880 C.2   190  ARG190      0.2260
    155  O         -4.9880   -1.0050   -8.8710 O.2   190  ARG190     -0.2867
    156  CB        -6.6070    1.7110   -8.8270 C.3   190  ARG190      0.0307
    157  CG        -5.7420    2.4530   -7.7900 C.3   190  ARG190      0.0489
    158  CD        -6.6360    3.2800   -6.8230 C.3   190  ARG190      0.2205
    159  NE        -5.8150    3.9870   -5.8510 N.pl3 190  ARG190     -0.0865
    160  CZ        -5.5100    3.5550   -4.6330 C.cat 190  ARG190      0.5346
    161  NH1       -5.9550    2.3850   -4.1830 N.pl3 190  ARG190      0.1354
    162  NH2       -4.7240    4.3080   -3.8580 N.pl3 190  ARG190      0.1354
    163  N         -1.7030    0.2990   -6.1900 N.3   192  ASN192     -0.1240
    164  CA        -1.1370    1.0780   -5.1000 C.3   192  ASN192      0.1653
    165  C          0.0760    0.3560   -4.5360 C.2   192  ASN192      0.2266
    166  O          0.0080   -0.8210   -4.2070 O.2   192  ASN192     -0.2867
    167  CB        -2.1500    1.3180   -3.9850 C.3   192  ASN192      0.1155
    168  CG        -1.6030    2.2100   -2.9140 C.2   192  ASN192      0.2627
    169  OD1       -1.1220    1.7360   -1.8890 O.2   192  ASN192     -0.2716
    170  ND2       -1.6400    3.4980   -3.1520 N.am  192  ASN192     -0.0877
    171  N          2.7800    0.1410   -1.4940 N.3   194  THR194     -0.1218
    172  CA         3.1360    0.6530   -0.1510 C.3   194  THR194      0.1862
    173  C          4.4670    0.0830    0.3110 C.2   194  THR194      0.2287
    174  O          4.6430   -1.1340    0.4480 O.2   194  THR194     -0.2866
    175  CB         2.0800    0.3690    0.9430 C.3   194  THR194      0.1770
    176  OG1        1.6640   -0.9950    0.8600 O.3   194  THR194     -0.2211
    177  CG2        0.8700    1.2840    0.8030 C.3   194  THR194      0.0375
    178  N          7.3390   -0.3950    3.0520 N.3   196  ARG196     -0.1245
    179  CA         7.4010   -0.6110    4.5170 C.3   196  ARG196      0.1563
    180  C          8.7870   -1.0320    4.9580 C.2   196  ARG196      0.2260
    181  O          9.4650   -1.7400    4.2200 O.2   196  ARG196     -0.2867
    182  CB         6.4400   -1.7650    4.8760 C.3   196  ARG196      0.0307
    183  CG         4.9720   -1.4760    4.4770 C.3   196  ARG196      0.0489
    184  CD         4.3720   -2.5900    3.6400 C.3   196  ARG196      0.2205
    185  NE         3.0190   -2.2240    3.1850 N.pl3 196  ARG196     -0.0865
    186  CZ         1.9610   -2.1570    3.9910 C.cat 196  ARG196      0.5346
    187  NH1        2.0970   -2.4440    5.2860 N.pl3 196  ARG196      0.1354
    188  NH2        0.7690   -1.7920    3.5130 N.pl3 196  ARG196      0.1354
@<TRIPOS>BOND
     1   152   153    1
     2   153   154    1
     3   153   156    1
     4    20    19    2
     5   154   155    2
     6    19    18    1
     7   156   157    1
     8   157   158    1
     9    17    18    1
    10    18    21    1
    11    21    22    1
    12   158   159    1
    13    83    82    2
    14    12    11    2
    15   163   164    1
    16    82    81    1
    17   159   160    2
    18    11    10    1
    19    22    23   ar
    20    22    24   ar
    21    23    25   ar
    22   164   165    1
    23   164   167    1
    24   160   161    1
    25   160   162    1
    26    24    26   ar
    27   165   166    2
    28    81    80    1
    29    81    84    1
    30     9    10    1
    31    10    13    1
    32    25    27   ar
    33   167   168    1
    34    84    85    1
    35    13    14    1
    36    26    27   ar
    37   170   168   am
    38    27    28    1
    39   168   169    2
    40     4     3    2
    41     3     2    1
    42   150   148    1
    43    85    87    1
    44    85    86    1
    45    66    65    2
    46    65    64    1
    47    14    16   am
    48    14    15    2
    49   171   172    1
    50     2     1    1
    51     2     5    1
    52   151   149    1
    53   148   149    1
    54   148   145    1
    55    64    67    1
    56    64    63    1
    57    69    70    1
    58    67    68    1
    59     7     6    1
    60   172   173    1
    61   172   175    1
    62   146   147    2
    63   146   145    1
    64     6     5    1
    65     6     8    1
    66   145   144    1
    67    29    30    1
    68   173   174    2
    69    73    70    1
    70    73    74    1
    71    70    71    1
    72   177   175    1
    73   176   175    1
    74    33    30    1
    75    33    34    1
    76    30    31    1
    77    35    34    1
    78   144   142   am
    79    36    34    1
    80    74    75   ar
    81    74    76   ar
    82    71    72    2
    83    75    77   ar
    84   143   142    2
    85   142   141    1
    86    76    78   ar
    87    31    32    2
    88    96    97   ar
    89    96    94   ar
    90    99    97   ar
    91    99   101   ar
    92   178   179    1
    93   185   184    1
    94   185   186    2
    95    77    79   ar
    96    97    95   ar
    97   188   186    1
    98    94    93   ar
    99   101   100   ar
   100   184   183    1
   101    78    79   ar
   102   141   140    1
   103    57    58    2
   104    57    56    1
   105    61    59    1
   106   186   187    1
   107   181   180    2
   108   183   182    1
   109   179   182    1
   110   179   180    1
   111    95    93   ar
   112    95    98   ar
   113    93    92    1
   114   140   132   am
   115   100    98   ar
   116    88    89    1
   117    56    59    1
   118    56    55    1
   119    45    46   ar
   120    45    43   ar
   121    59    60    1
   122   137   139   ar
   123   137   135   ar
   124    46    44   ar
   125   139   138   ar
   126   132   133    2
   127   132   131    1
   128    92    89    1
   129    43    42   ar
   130    89    90    1
   131    60    62    1
   132   135   134    1
   133   135   136   ar
   134   134   131    1
   135    54    52   ar
   136    53    52   ar
   137   131   130    1
   138    44    42   ar
   139    52    51    1
   140   138   136   ar
   141    42    41    1
   142    90    91    2
   143    41    38    1
   144    37    38    1
   145    51    48    1
   146   107   106    1
   147    40    39    2
   148    38    39    1
   149   106   103    1
   150   114   115    1
   151   114   113    1
   152    48    47    1
   153    48    49    1
   154   105   104    2
   155   115   116    2
   156   116   117    1
   157   116   118    1
   158   125   127   ar
   159   125   124   ar
   160   122   121    2
   161   104   103    1
   162   104   108   am
   163   109   108    1
   164   109   112    1
   165   109   110    1
   166   123   124    1
   167   123   120    1
   168   103   102    1
   169   127   129   ar
   170   111   110    2
   171    49    50    2
   172   112   113    1
   173   121   120    1
   174   124   126   ar
   175   120   119    1
   176   129   128   ar
   177   126   128   ar
