@<TRIPOS>MOLECULE
tmp/3t50A00.pdb
 181 167 0 0 0
SMALL
GASTEIGER

@<TRIPOS>ATOM
      1  N          7.3820  -13.4250  -14.9770 N.3    10  LEU10      -0.1245
      2  CA         6.3980  -14.5260  -15.1280 C.3    10  LEU10       0.1561
      3  C          7.1360  -15.8080  -15.2410 C.2    10  LEU10       0.2260
      4  O          8.2750  -15.8290  -15.7400 O.2    10  LEU10      -0.2867
      5  CB         5.6110  -14.3810  -16.4240 C.3    10  LEU10       0.0270
      6  CG         4.7340  -13.1550  -16.5730 C.3    10  LEU10       0.0019
      7  CD1        4.0140  -13.2110  -17.9110 C.3    10  LEU10       0.0001
      8  CD2        3.6490  -13.1080  -15.4410 C.3    10  LEU10       0.0001
      9  N          6.0850  -19.6110  -16.9490 N.3    12  THR12      -0.1218
     10  CA         5.0710  -20.4340  -17.6120 C.3    12  THR12       0.1862
     11  C          5.4800  -21.9000  -17.6410 C.2    12  THR12       0.2287
     12  O          6.6700  -22.2420  -17.4700 O.2    12  THR12      -0.2866
     13  CB         4.8350  -20.0090  -19.0610 C.3    12  THR12       0.1770
     14  OG1        5.9820  -20.3220  -19.8660 O.3    12  THR12      -0.2211
     15  CG2        4.4860  -18.5070  -19.1400 C.3    12  THR12       0.0375
     16  N          1.0040  -23.4030  -22.8160 N.3    19  ASN19      -0.1240
     17  CA         2.1250  -22.7510  -22.0700 C.3    19  ASN19       0.1653
     18  C          1.6350  -21.6550  -21.1000 C.2    19  ASN19       0.2266
     19  O          2.0510  -20.4850  -21.1820 O.2    19  ASN19      -0.2867
     20  CB         3.1500  -22.2040  -23.0660 C.3    19  ASN19       0.1155
     21  CG         4.4700  -21.8260  -22.4430 C.2    19  ASN19       0.2627
     22  OD1        4.8480  -22.3290  -21.4100 O.2    19  ASN19      -0.2716
     23  ND2        5.1400  -20.8810  -23.0720 N.am   19  ASN19      -0.0877
     24  N         -2.1840  -18.1690  -21.2340 N.3    43  ASN43      -0.1225
     25  CA        -1.0520  -17.7820  -22.0460 C.3    43  ASN43       0.1785
     26  C         -0.9160  -16.2560  -22.0110 C.2    43  ASN43       0.2597
     27  O         -1.9180  -15.5590  -22.0010 O.2    43  ASN43      -0.2718
     28  CB        -1.3180  -18.2320  -23.4900 C.3    43  ASN43       0.1169
     29  CG        -0.1240  -18.0190  -24.3810 C.2    43  ASN43       0.2627
     30  OD1        0.1340  -16.8900  -24.8260 O.2    43  ASN43      -0.2716
     31  ND2        0.6590  -19.0790  -24.5960 N.am   43  ASN43      -0.0877
     32  N          0.3160  -15.7720  -21.9950 N.am   44  CYS44      -0.1956
     33  CA         0.5770  -14.3540  -21.7870 C.3    44  CYS44       0.1843
     34  C         -0.0150  -13.4890  -22.8940 C.2    44  CYS44       0.2625
     35  O         -0.2430  -12.3040  -22.6700 O.2    44  CYS44      -0.2714
     36  CB         2.0740  -14.1120  -21.6690 C.3    44  CYS44       0.0997
     37  SG         2.4800  -12.5120  -20.9210 S.3    44  CYS44      -0.0797
     38  N         -0.2850  -14.0730  -24.0710 N.am   45  ARG45      -0.1977
     39  CA        -0.7990  -13.2750  -25.2000 C.3    45  ARG45       0.1597
     40  C         -2.0070  -12.3900  -24.8890 C.2    45  ARG45       0.2287
     41  O         -2.3150  -11.4960  -25.7190 O.2    45  ARG45      -0.2864
     42  CB        -1.1140  -14.1470  -26.4170 C.3    45  ARG45       0.0334
     43  CG        -2.4060  -14.9480  -26.2280 C.3    45  ARG45       0.0492
     44  CD        -2.8130  -15.6250  -27.5570 C.3    45  ARG45       0.2205
     45  NE        -1.9340  -16.7450  -27.8620 N.pl3  45  ARG45      -0.0865
     46  CZ        -2.0310  -17.9380  -27.2730 C.cat  45  ARG45       0.5346
     47  NH1       -3.0050  -18.1980  -26.4140 N.pl3  45  ARG45       0.1354
     48  NH2       -1.1710  -18.9000  -27.6020 N.pl3  45  ARG45       0.1354
     49  N         -2.1370  -10.0740  -23.0430 N.3    47  LEU47      -0.1231
     50  CA        -1.6210   -8.7160  -22.9310 C.3    47  LEU47       0.1693
     51  C         -1.6020   -7.9670  -24.2750 C.2    47  LEU47       0.2591
     52  O         -1.4120   -6.7510  -24.2770 O.2    47  LEU47      -0.2718
     53  CB        -0.2020   -8.7290  -22.3290 C.3    47  LEU47       0.0284
     54  CG        -0.1180   -9.1250  -20.8450 C.3    47  LEU47       0.0019
     55  CD1        1.3980   -9.1780  -20.5230 C.3    47  LEU47       0.0001
     56  CD2       -0.7970   -8.0740  -19.9970 C.3    47  LEU47       0.0001
     57  N         -1.7660   -8.6550  -25.4000 N.am   48  GLN48      -0.1979
     58  CA        -1.6370   -8.0290  -26.7110 C.3    48  GLN48       0.1601
     59  C         -2.9810   -7.4040  -27.1160 C.2    48  GLN48       0.2287
     60  O         -4.0220   -7.6760  -26.4950 O.2    48  GLN48      -0.2864
     61  CB        -1.2040   -9.0970  -27.7220 C.3    48  GLN48       0.0394
     62  CG         0.1770   -9.6740  -27.4230 C.3    48  GLN48       0.0908
     63  CD         0.4540  -11.0010  -28.0990 C.2    48  GLN48       0.2608
     64  OE1       -0.3010  -11.4260  -28.9800 O.2    48  GLN48      -0.2717
     65  NE2        1.5410  -11.6830  -27.6750 N.am   48  GLN48      -0.0878
     66  N          5.0040  -10.7790  -32.4390 N.3    57  VAL57      -0.1231
     67  CA         4.3550  -11.9640  -31.9230 C.3    57  VAL57       0.1692
     68  C          4.9700  -13.1930  -32.5940 C.2    57  VAL57       0.2591
     69  O          5.3180  -14.1680  -31.9310 O.2    57  VAL57      -0.2718
     70  CB         2.8330  -11.9250  -32.1900 C.3    57  VAL57       0.0266
     71  CG1        2.1740  -13.2640  -31.8080 C.3    57  VAL57       0.0020
     72  CG2        2.1680  -10.7660  -31.4590 C.3    57  VAL57       0.0020
     73  N          5.0930  -13.1420  -33.9140 N.am   58  ARG58      -0.1980
     74  CA         5.7710  -14.2460  -34.6180 C.3    58  ARG58       0.1597
     75  C          7.2470  -14.4560  -34.1990 C.2    58  ARG58       0.2287
     76  O          7.7050  -15.6090  -34.1180 O.2    58  ARG58      -0.2864
     77  CB         5.6640  -14.0500  -36.1370 C.3    58  ARG58       0.0334
     78  CG         4.2330  -14.0750  -36.6780 C.3    58  ARG58       0.0492
     79  CD         4.1850  -14.0790  -38.2320 C.3    58  ARG58       0.2205
     80  NE         4.9330  -12.9450  -38.7850 N.pl3  58  ARG58      -0.0865
     81  CZ         4.3840  -11.8230  -39.2400 C.cat  58  ARG58       0.5346
     82  NH1        3.0620  -11.6720  -39.2440 N.pl3  58  ARG58       0.1354
     83  NH2        5.1610  -10.8550  -39.6970 N.pl3  58  ARG58       0.1354
     84  N          8.4850  -13.8930  -31.2500 N.3    60  ILE60      -0.1231
     85  CA         8.4150  -14.5390  -29.9200 C.3    60  ILE60       0.1692
     86  C          8.0600  -16.0000  -30.0950 C.2    60  ILE60       0.2591
     87  O          8.7040  -16.8540  -29.5060 O.2    60  ILE60      -0.2718
     88  CB         7.3910  -13.8230  -28.9780 C.3    60  ILE60       0.0266
     89  CG1        7.8790  -12.4050  -28.6900 C.3    60  ILE60       0.0019
     90  CG2        7.2100  -14.6010  -27.6650 C.3    60  ILE60       0.0020
     91  CD1        6.7460  -11.4920  -28.1430 C.3    60  ILE60       0.0001
     92  N          7.0320  -16.2950  -30.9110 N.am   61  LYS61      -0.1980
     93  CA         6.5760  -17.6590  -31.1200 C.3    61  LYS61       0.1596
     94  C          7.7580  -18.4720  -31.6630 C.2    61  LYS61       0.2287
     95  O          7.9760  -19.5930  -31.2400 O.2    61  LYS61      -0.2864
     96  CB         5.4290  -17.7430  -32.1200 C.3    61  LYS61       0.0298
     97  CG         4.6910  -19.0910  -32.0700 C.3    61  LYS61       0.0038
     98  CD         4.3640  -19.6210  -33.4530 C.3    61  LYS61       0.0206
     99  CE         2.9560  -19.2550  -33.9130 C.3    61  LYS61       0.1093
    100  NZ         2.5940  -19.8580  -35.2590 N.3    61  LYS61      -0.1314
    101  N         10.4630  -19.1240  -28.8480 N.3    64  ILE64      -0.1245
    102  CA         9.8840  -20.1020  -27.9270 C.3    64  ILE64       0.1561
    103  C          9.9520  -21.4900  -28.5490 C.2    64  ILE64       0.2260
    104  O         10.3500  -22.4390  -27.8890 O.2    64  ILE64      -0.2867
    105  CB         8.4530  -19.6950  -27.4920 C.3    64  ILE64       0.0252
    106  CG1        8.5770  -18.4730  -26.5530 C.3    64  ILE64       0.0019
    107  CG2        7.6750  -20.8600  -26.8360 C.3    64  ILE64       0.0019
    108  CD1        7.2970  -17.8240  -26.2150 C.3    64  ILE64       0.0001
    109  N          7.5190   -4.8430  -27.2640 N.3    74  ILE74      -0.1245
    110  CA         6.2280   -5.1510  -27.8510 C.3    74  ILE74       0.1561
    111  C          5.1360   -4.2630  -27.2130 C.2    74  ILE74       0.2260
    112  O          5.1820   -3.9510  -26.0260 O.2    74  ILE74      -0.2867
    113  CB         5.8930   -6.6730  -27.6900 C.3    74  ILE74       0.0252
    114  CG1        4.6560   -7.0690  -28.4930 C.3    74  ILE74       0.0019
    115  CG2        5.6450   -7.0290  -26.1620 C.3    74  ILE74       0.0019
    116  CD1        4.3140   -8.5660  -28.5970 C.3    74  ILE74       0.0001
    117  N          1.7470   -3.7190  -25.4860 N.3    76  ASN76      -0.1240
    118  CA         0.8570   -4.5080  -24.6540 C.3    76  ASN76       0.1653
    119  C         -0.1200   -3.5420  -23.9880 C.2    76  ASN76       0.2266
    120  O         -0.0290   -2.2980  -24.1420 O.2    76  ASN76      -0.2867
    121  CB         1.6450   -5.2530  -23.5650 C.3    76  ASN76       0.1155
    122  CG         2.2290   -6.6140  -24.0250 C.2    76  ASN76       0.2627
    123  OD1        2.9230   -7.2470  -23.2280 O.2    76  ASN76      -0.2716
    124  ND2        1.9730   -7.0540  -25.2820 N.am   76  ASN76      -0.0877
    125  N          6.2320   -2.8030  -23.6770 N.3    86  ASN86      -0.1240
    126  CA         6.7060   -3.7910  -22.7410 C.3    86  ASN86       0.1653
    127  C          8.0080   -4.3570  -23.3110 C.2    86  ASN86       0.2266
    128  O          7.9790   -4.9660  -24.3890 O.2    86  ASN86      -0.2867
    129  CB         5.6570   -4.9010  -22.6260 C.3    86  ASN86       0.1155
    130  CG         5.9940   -5.9500  -21.5740 C.2    86  ASN86       0.2627
    131  OD1        6.9650   -5.8380  -20.8310 O.2    86  ASN86      -0.2716
    132  ND2        5.1460   -6.9690  -21.4910 N.am   86  ASN86      -0.0877
    133  N         10.4240   -7.1150  -23.1270 N.3    88  LEU88      -0.1245
    134  CA        10.1980   -8.4750  -22.7350 C.3    88  LEU88       0.1561
    135  C         11.5370   -9.2040  -22.8630 C.2    88  LEU88       0.2260
    136  O         12.2130   -9.0830  -23.8790 O.2    88  LEU88      -0.2867
    137  CB         9.1480   -9.0350  -23.6890 C.3    88  LEU88       0.0270
    138  CG         8.5760  -10.4210  -23.6310 C.3    88  LEU88       0.0019
    139  CD1        8.0730  -10.7730  -22.2000 C.3    88  LEU88       0.0001
    140  CD2        7.4140  -10.3670  -24.6040 C.3    88  LEU88       0.0001
    141  N         12.5600  -13.1170  -22.5360 N.3    90  ILE90      -0.1245
    142  CA        12.0650  -14.4690  -22.2880 C.3    90  ILE90       0.1561
    143  C         13.2410  -15.4270  -22.4230 C.2    90  ILE90       0.2260
    144  O         13.9960  -15.3320  -23.3880 O.2    90  ILE90      -0.2867
    145  CB        10.9550  -14.8530  -23.3110 C.3    90  ILE90       0.0252
    146  CG1        9.7530  -13.9300  -23.0990 C.3    90  ILE90       0.0019
    147  CG2       10.4940  -16.3180  -23.1260 C.3    90  ILE90       0.0019
    148  CD1        8.8000  -13.8810  -24.2880 C.3    90  ILE90       0.0001
    149  N          9.4280  -21.7520  -18.9270 N.3   103  PHE103     -0.1227
    150  CA         9.9750  -20.4750  -19.4280 C.3   103  PHE103      0.1736
    151  C          9.8580  -19.4250  -18.3310 C.2   103  PHE103      0.2595
    152  O          8.9250  -19.4770  -17.5080 O.2   103  PHE103     -0.2718
    153  CB         9.2350  -19.9480  -20.6630 C.3   103  PHE103      0.0547
    154  CG         9.4860  -20.7650  -21.9120 C.ar  103  PHE103     -0.0202
    155  CD1       10.5410  -20.4310  -22.7650 C.ar  103  PHE103     -0.0042
    156  CD2        8.6580  -21.8460  -22.2090 C.ar  103  PHE103     -0.0042
    157  CE1       10.7910  -21.2070  -23.9360 C.ar  103  PHE103     -0.0003
    158  CE2        8.9020  -22.6380  -23.3430 C.ar  103  PHE103     -0.0003
    159  CZ         9.9300  -22.3020  -24.2040 C.ar  103  PHE103     -0.0000
    160  N         10.7850  -18.4800  -18.3260 N.am  104  VAL104     -0.1966
    161  CA        10.7540  -17.3640  -17.3990 C.3   104  VAL104      0.1727
    162  C         10.9270  -16.0670  -18.1820 C.2   104  VAL104      0.2616
    163  O         11.5450  -16.0440  -19.2780 O.2   104  VAL104     -0.2715
    164  CB        11.8470  -17.5160  -16.3020 C.3   104  VAL104      0.0290
    165  CG1       13.2280  -17.4550  -16.8820 C.3   104  VAL104      0.0023
    166  CG2       11.6510  -16.4820  -15.2020 C.3   104  VAL104      0.0023
    167  N         10.3370  -14.9870  -17.6690 N.am  105  SER105     -0.1950
    168  CA        10.4980  -13.6800  -18.3240 C.3   105  SER105      0.1924
    169  C         10.7660  -12.5720  -17.3210 C.2   105  SER105      0.2314
    170  O         10.4190  -12.6950  -16.1410 O.2   105  SER105     -0.2863
    171  CB         9.2310  -13.2960  -19.1110 C.3   105  SER105      0.2116
    172  OG         8.1380  -13.2270  -18.2210 O.3   105  SER105     -0.2180
    173  N          9.7930   -8.2920  -17.4780 N.3   107  GLN107     -0.1245
    174  CA         8.9670   -7.3330  -18.2220 C.3   107  GLN107      0.1566
    175  C          9.2910   -5.9770  -17.6130 C.2   107  GLN107      0.2260
    176  O          9.6620   -5.8740  -16.4360 O.2   107  GLN107     -0.2867
    177  CB         7.4560   -7.6070  -18.1510 C.3   107  GLN107      0.0367
    178  CG         6.9070   -8.7300  -19.1020 C.3   107  GLN107      0.0905
    179  CD         7.0110  -10.1390  -18.5690 C.2   107  GLN107      0.2608
    180  OE1        7.6370  -10.4080  -17.5280 O.2   107  GLN107     -0.2717
    181  NE2        6.4040  -11.0510  -19.2840 N.am  107  GLN107     -0.0878
@<TRIPOS>BOND
     1    83    81    1
     2    82    81    1
     3    81    80    2
     4    80    79    1
     5    79    78    1
     6    78    77    1
     7    77    74    1
     8   100    99    1
     9    74    75    1
    10    74    73    1
    11    75    76    2
    12    73    68   am
    13    99    98    1
    14    98    97    1
    15    68    69    2
    16    68    67    1
    17    66    67    1
    18    70    67    1
    19    70    71    1
    20    70    72    1
    21    96    97    1
    22    96    93    1
    23    94    95    2
    24    94    93    1
    25    84    85    1
    26    93    92    1
    27    92    86   am
    28    86    85    1
    29    86    87    2
    30    85    88    1
    31    64    63    2
    32    88    89    1
    33    88    90    1
    34   101   102    1
    35    89    91    1
    36   116   114    1
    37   103   102    1
    38   103   104    2
    39   114   113    1
    40    63    65   am
    41    63    62    1
    42   102   105    1
    43    45    44    1
    44    45    46    2
    45   110   113    1
    46   110   109    1
    47   110   111    1
    48    61    62    1
    49    61    58    1
    50   113   115    1
    51    48    46    1
    52    44    43    1
    53   105   107    1
    54   105   106    1
    55    46    47    1
    56   111   112    2
    57    59    58    1
    58    59    60    2
    59    58    57    1
    60   106   108    1
    61    42    43    1
    62    42    39    1
    63    41    40    2
    64   117   118    1
    65    57    51   am
    66   124   122   am
    67    39    40    1
    68    39    38    1
    69    30    29    2
    70   118   119    1
    71   118   121    1
    72   140   138    1
    73    31    29   am
    74   128   127    2
    75    29    28    1
    76   148   146    1
    77    52    51    2
    78    51    50    1
    79   159   157   ar
    80   159   158   ar
    81   120   119    2
    82    38    34   am
    83   122   121    1
    84   122   123    2
    85   157   155   ar
    86   136   135    2
    87   137   138    1
    88   137   134    1
    89   125   126    1
    90   138   139    1
    91    28    25    1
    92   144   143    2
    93   158   156   ar
    94   145   147    1
    95   145   146    1
    96   145   142    1
    97   127   126    1
    98   133   134    1
    99    23    21   am
   100    20    21    1
   101    20    17    1
   102    49    50    1
   103    50    53    1
   104    34    35    2
   105    34    33    1
   106   135   134    1
   107    16    17    1
   108   155   154   ar
   109   126   129    1
   110   129   130    1
   111   141   142    1
   112    21    22    2
   113   143   142    1
   114    53    54    1
   115   156   154   ar
   116    17    18    1
   117    25    26    1
   118    25    24    1
   119    26    27    2
   120    26    32   am
   121    32    33    1
   122   154   153    1
   123    33    36    1
   124    36    37    1
   125   130   132   am
   126   130   131    2
   127    19    18    2
   128    54    55    1
   129    54    56    1
   130   153   150    1
   131    14    13    1
   132   150   149    1
   133   150   151    1
   134   181   179   am
   135   163   162    2
   136    15    13    1
   137   171   168    1
   138   171   172    1
   139   178   179    1
   140   178   177    1
   141    13    10    1
   142   179   180    2
   143   151   160   am
   144   151   152    2
   145   160   161    1
   146   168   167    1
   147   168   169    1
   148   174   177    1
   149   174   175    1
   150   174   173    1
   151   162   167   am
   152   162   161    1
   153     7     6    1
   154    11    10    1
   155    11    12    2
   156   175   176    2
   157    10     9    1
   158   161   164    1
   159   169   170    2
   160   165   164    1
   161     6     5    1
   162     6     8    1
   163     5     2    1
   164   164   166    1
   165     4     3    2
   166     3     2    1
   167     2     1    1
