@<TRIPOS>MOLECULE
tmp/3t54A00.pdb
 200 185 0 0 0
SMALL
GASTEIGER

@<TRIPOS>ATOM
      1  N         -4.4730    5.2450    4.4760 N.3    92  ARG92      -0.1245
      2  CA        -3.0820    4.8800    4.1000 C.3    92  ARG92       0.1563
      3  C         -2.9990    3.7060    3.1180 C.2    92  ARG92       0.2260
      4  O         -2.0760    3.6160    2.3030 O.2    92  ARG92      -0.2867
      5  CB        -2.2340    4.5470    5.3390 C.3    92  ARG92       0.0307
      6  CG        -2.0690    5.6780    6.3300 C.3    92  ARG92       0.0489
      7  CD        -0.9990    5.2880    7.3530 C.3    92  ARG92       0.2205
      8  NE        -1.1860    6.0410    8.5840 N.pl3  92  ARG92      -0.0865
      9  CZ        -0.5830    7.1890    8.8440 C.cat  92  ARG92       0.5346
     10  NH1        0.2650    7.7090    7.9520 N.pl3  92  ARG92       0.1354
     11  NH2       -0.8230    7.8220    9.9830 N.pl3  92  ARG92       0.1354
     12  N          8.6250    1.6140    1.2750 N.3   107  PRO107     -0.2116
     13  CA         9.1060    0.4740    2.0530 C.3   107  PRO107      0.1372
     14  C          8.2660   -0.7680    1.7550 C.2   107  PRO107      0.2244
     15  O          7.0900   -0.6470    1.3990 O.2   107  PRO107     -0.2868
     16  CB         8.8850    0.9130    3.5120 C.3   107  PRO107      0.0268
     17  CG         8.7320    2.3760    3.4790 C.3   107  PRO107      0.0207
     18  CD         8.1350    2.7050    2.1330 C.3   107  PRO107      0.0892
     19  N          7.6730   -0.7860   11.4950 N.3   143  VAL143     -0.1245
     20  CA         6.8080    0.3350   11.7720 C.3   143  VAL143      0.1561
     21  C          5.3640   -0.1290   11.6820 C.2   143  VAL143      0.2260
     22  O          5.0030   -0.9460   10.8160 O.2   143  VAL143     -0.2867
     23  CB         7.0890    1.4800   10.7550 C.3   143  VAL143      0.0252
     24  CG1        6.1840    2.6530   11.0090 C.3   143  VAL143      0.0019
     25  CG2        8.5380    1.9190   10.8390 C.3   143  VAL143      0.0019
     26  N          1.5090    1.3920   11.4890 N.3   145  LYS145     -0.1245
     27  CA         0.7270    2.5980   11.2460 C.3   145  LYS145      0.1561
     28  C         -0.7610    2.3070   11.2100 C.2   145  LYS145      0.2260
     29  O         -1.1900    1.3690   10.5330 O.2   145  LYS145     -0.2867
     30  CB         1.1240    3.2240    9.9030 C.3   145  LYS145      0.0271
     31  CG         2.6030    3.5890    9.7660 C.3   145  LYS145      0.0035
     32  CD         2.8430    4.2940    8.4240 C.3   145  LYS145      0.0206
     33  CE         4.2990    4.6430    8.2220 C.3   145  LYS145      0.1093
     34  NZ         4.4910    5.3830    6.9270 N.3   145  LYS145     -0.1314
     35  N         -5.0670    7.6330    7.8590 N.3   149  ALA149     -0.1245
     36  CA        -3.9930    8.6230    7.7000 C.3   149  ALA149      0.1562
     37  C         -4.0930    9.7960    8.6830 C.2   149  ALA149      0.2260
     38  O         -3.0950   10.4950    8.9240 O.2   149  ALA149     -0.2867
     39  CB        -3.9210    9.1260    6.2620 C.3   149  ALA149      0.0290
     40  N         -2.2530    9.7770   13.9150 N.3   152  HIS152     -0.1241
     41  CA        -0.7870    9.9050   13.9380 C.3   152  HIS152      0.1621
     42  C         -0.0670    9.0130   14.9810 C.2   152  HIS152      0.2264
     43  O          1.1240    9.1890   15.2450 O.2   152  HIS152     -0.2867
     44  CB        -0.4210   11.3870   14.0570 C.3   152  HIS152      0.0745
     45  CG        -1.0970   12.2290   13.0170 C.ar  152  HIS152      0.0817
     46  ND1       -0.8560   12.0670   11.6680 N.ar  152  HIS152     -0.2268
     47  CD2       -2.0630   13.1740   13.1170 C.ar  152  HIS152      0.1154
     48  CE1       -1.6280   12.8960   10.9840 C.ar  152  HIS152      0.1986
     49  NE2       -2.3670   13.5790   11.8410 N.ar  152  HIS152     -0.2212
     50  N          1.6800    6.3420   15.2670 N.3   154  VAL154     -0.1245
     51  CA         2.5550    5.4120   14.5760 C.3   154  VAL154      0.1561
     52  C          3.5440    4.8710   15.6010 C.2   154  VAL154      0.2260
     53  O          4.1540    5.6550   16.3310 O.2   154  VAL154     -0.2867
     54  CB         3.3120    6.1200   13.4190 C.3   154  VAL154      0.0252
     55  CG1        4.3820    5.2050   12.8200 C.3   154  VAL154      0.0019
     56  CG2        2.3450    6.5840   12.3380 C.3   154  VAL154      0.0019
     57  N          6.9950    2.3260   16.4010 N.3   156  ILE156     -0.1245
     58  CA         8.1870    1.6800   15.8800 C.3   156  ILE156      0.1561
     59  C          8.6310    0.6510   16.9310 C.2   156  ILE156      0.2260
     60  O          8.7520    0.9920   18.1010 O.2   156  ILE156     -0.2867
     61  CB         9.2830    2.7270   15.5970 C.3   156  ILE156      0.0252
     62  CG1        8.7300    3.7860   14.6290 C.3   156  ILE156      0.0019
     63  CG2       10.5450    2.0550   15.0190 C.3   156  ILE156      0.0019
     64  CD1        9.7140    4.8230   14.2110 C.3   156  ILE156      0.0001
     65  N          4.8350    7.3280   18.4730 N.3   169  LEU169     -0.1245
     66  CA         4.8160    8.6660   17.8790 C.3   169  LEU169      0.1561
     67  C          3.4000    9.2470   17.9690 C.2   169  LEU169      0.2260
     68  O          2.4160    8.5150   18.1390 O.2   169  LEU169     -0.2867
     69  CB         5.2490    8.5820   16.4050 C.3   169  LEU169      0.0270
     70  CG         6.7410    8.4920   16.0780 C.3   169  LEU169      0.0019
     71  CD1        7.3820    7.2570   16.6810 C.3   169  LEU169      0.0001
     72  CD2        6.8830    8.4540   14.5670 C.3   169  LEU169      0.0001
     73  N          1.0080   13.2770   17.2150 N.3   171  ARG171     -0.1245
     74  CA         0.9680   14.6650   16.8140 C.3   171  ARG171      0.1563
     75  C          1.7030   15.4950   17.8700 C.2   171  ARG171      0.2260
     76  O          1.4090   15.3900   19.0540 O.2   171  ARG171     -0.2867
     77  CB        -0.4950   15.1050   16.6460 C.3   171  ARG171      0.0307
     78  CG        -0.6920   16.4930   16.0470 C.3   171  ARG171      0.0489
     79  CD         0.4220   16.9020   15.0550 C.3   171  ARG171      0.2205
     80  NE         0.3400   16.2710   13.7300 N.pl3 171  ARG171     -0.0865
     81  CZ        -0.3920   16.7340   12.7130 C.cat 171  ARG171      0.5346
     82  NH1       -0.3870   16.0960   11.5420 N.pl3 171  ARG171      0.1354
     83  NH2       -1.1420   17.8260   12.8640 N.pl3 171  ARG171      0.1354
     84  N          5.4290   -2.1270    8.0900 N.3   195  GLU195     -0.1231
     85  CA         6.4330   -1.9210    7.0710 C.3   195  GLU195      0.1699
     86  C          7.8360   -1.9960    7.6360 C.2   195  GLU195      0.2592
     87  O          8.0430   -1.7920    8.8410 O.2   195  GLU195     -0.2718
     88  CB         6.2030   -0.5970    6.3320 C.3   195  GLU195      0.0402
     89  CG         6.4850    0.6430    7.1330 C.3   195  GLU195      0.1161
     90  CD         6.0150    1.9100    6.4310 C.2   195  GLU195      0.3649
     91  OE1        6.6510    2.9660    6.6170 O.co2 195  GLU195     -0.2457
     92  OE2        5.0060    1.8580    5.7010 O.co2 195  GLU195     -0.2457
     93  N          8.7910   -2.2550    6.7490 N.am  196  GLU196     -0.1966
     94  CA        10.1930   -2.2340    7.1090 C.3   196  GLU196      0.1733
     95  C         10.6280   -0.8530    7.5560 C.2   196  GLU196      0.2616
     96  O         10.2260    0.1510    6.9760 O.2   196  GLU196     -0.2715
     97  CB        11.0680   -2.6680    5.9360 C.3   196  GLU196      0.0429
     98  CG        10.9190   -4.1400    5.5750 C.3   196  GLU196      0.1163
     99  CD        12.0690   -4.6370    4.7150 C.2   196  GLU196      0.3649
    100  OE1       12.4390   -3.9280    3.7450 O.co2 196  GLU196     -0.2457
    101  OE2       12.6100   -5.7280    5.0230 O.co2 196  GLU196     -0.2457
    102  N         11.4430   -0.8160    8.6020 N.am  197  PHE197     -0.1960
    103  CA        12.0280    0.4400    9.0650 C.3   197  PHE197      0.1771
    104  C         13.2020    0.7820    8.1480 C.2   197  PHE197      0.2619
    105  O         14.0990   -0.0480    7.9520 O.2   197  PHE197     -0.2715
    106  CB        12.4860    0.2910   10.5150 C.3   197  PHE197      0.0574
    107  CG        13.0940    1.5310   11.0910 C.ar  197  PHE197     -0.0200
    108  CD1       14.4810    1.6810   11.1390 C.ar  197  PHE197     -0.0042
    109  CD2       12.2870    2.5500   11.5890 C.ar  197  PHE197     -0.0042
    110  CE1       15.0510    2.8290   11.6690 C.ar  197  PHE197     -0.0003
    111  CE2       12.8460    3.7040   12.1190 C.ar  197  PHE197     -0.0003
    112  CZ        14.2330    3.8420   12.1600 C.ar  197  PHE197     -0.0000
    113  N         13.1750    1.9780    7.5650 N.am  198  MET198     -0.1977
    114  CA        14.2500    2.4480    6.7000 C.3   198  MET198      0.1605
    115  C         15.2640    3.2660    7.5100 C.2   198  MET198      0.2287
    116  O         14.9050    4.2930    8.0830 O.2   198  MET198     -0.2864
    117  CB        13.6960    3.3210    5.5630 C.3   198  MET198      0.0413
    118  CG        12.5320    2.7330    4.7580 C.3   198  MET198      0.0598
    119  SD        12.8270    1.0540    4.1680 S.3   198  MET198     -0.1393
    120  CE        14.1920    1.3110    3.0380 C.3   198  MET198      0.0692
    121  N         17.7040    6.0500    8.1380 N.3   200  THR200     -0.1218
    122  CA        18.0530    7.3430    7.5560 C.3   200  THR200      0.1862
    123  C         19.1690    7.9140    8.4010 C.2   200  THR200      0.2287
    124  O         19.5850    7.2770    9.3610 O.2   200  THR200     -0.2866
    125  CB        16.8680    8.3300    7.5430 C.3   200  THR200      0.1770
    126  OG1       16.5240    8.6880    8.8900 O.3   200  THR200     -0.2211
    127  CG2       15.6560    7.7200    6.8370 C.3   200  THR200      0.0375
    128  N         14.0160   13.4470    8.5510 N.3   204  ASP204     -0.1239
    129  CA        12.9700   13.1850    7.5730 C.3   204  ASP204      0.1674
    130  C         12.9410   14.3630    6.6180 C.2   204  ASP204      0.2266
    131  O         13.1100   15.5100    7.0380 O.2   204  ASP204     -0.2867
    132  CB        11.5950   13.0990    8.2340 C.3   204  ASP204      0.1410
    133  CG        11.4950   11.9950    9.2470 C.2   204  ASP204      0.3668
    134  OD1       12.0940   10.9160    9.0470 O.co2 204  ASP204     -0.2456
    135  OD2       10.7900   12.2080   10.2590 O.co2 204  ASP204     -0.2456
    136  N         10.6550   16.6480    4.1360 N.3   206  LYS206     -0.1245
    137  CA         9.2960   17.0330    3.7890 C.3   206  LYS206      0.1561
    138  C          9.3500   17.7740    2.4730 C.2   206  LYS206      0.2260
    139  O         10.1540   18.6920    2.3200 O.2   206  LYS206     -0.2867
    140  CB         8.6710   17.9090    4.8750 C.3   206  LYS206      0.0271
    141  CG         8.4130   17.1300    6.1840 C.3   206  LYS206      0.0035
    142  CD         7.0460   17.4610    6.7850 C.3   206  LYS206      0.0206
    143  CE         6.6210   16.3910    7.8040 C.3   206  LYS206      0.1093
    144  NZ         5.1250   16.2030    7.8280 N.3   206  LYS206     -0.1314
    145  N         14.1050   13.3530   12.9020 N.3   222  SER222     -0.1203
    146  CA        13.0920   12.3020   12.9370 C.3   222  SER222      0.2005
    147  C         12.6300   12.0280   14.3780 C.2   222  SER222      0.2461
    148  O         13.4560   11.9340   15.2690 O.2   222  SER222     -0.2732
    149  CB        13.6350   11.0040   12.3500 C.3   222  SER222      0.2103
    150  OG        12.6650    9.9760   12.4890 O.3   222  SER222     -0.2182
    151  N         11.3130   11.8710   14.5910 N.am  223  PRO223     -0.2717
    152  CA        10.7960   11.4600   15.9050 C.3   223  PRO223      0.1535
    153  C         10.9430    9.9500   16.1660 C.2   223  PRO223      0.2598
    154  O         10.5620    9.4640   17.2420 O.2   223  PRO223     -0.2715
    155  CB         9.3160   11.8290   15.8180 C.3   223  PRO223      0.0310
    156  CG         8.9990   11.7750   14.3630 C.3   223  PRO223      0.0237
    157  CD        10.2300   12.2180   13.6520 C.3   223  PRO223      0.0939
    158  N         11.4900    9.2240   15.1880 N.am  224  ALA224     -0.1978
    159  CA        11.5600    7.7560   15.2200 C.3   224  ALA224      0.1597
    160  C         12.2170    7.1670   16.4670 C.2   224  ALA224      0.2287
    161  O         11.7010    6.2080   17.0410 O.2   224  ALA224     -0.2864
    162  CB        12.2520    7.2110   13.9550 C.3   224  ALA224      0.0319
    163  N          6.1920   13.1110    2.3410 N.3   267  ASP267     -0.1239
    164  CA         7.4990   12.9570    2.9600 C.3   267  ASP267      0.1674
    165  C          8.3640   11.9450    2.2290 C.2   267  ASP267      0.2266
    166  O          7.8670   11.0510    1.5170 O.2   267  ASP267     -0.2867
    167  CB         7.4370   12.7340    4.4880 C.3   267  ASP267      0.1410
    168  CG         6.7140   11.4680    4.8840 C.2   267  ASP267      0.3668
    169  OD1        6.2690   10.7250    3.9920 O.co2 267  ASP267     -0.2456
    170  OD2        6.5900   11.2110    6.1060 O.co2 267  ASP267     -0.2456
    171  N         11.9230    9.4800    2.7460 N.3   269  LEU269     -0.1245
    172  CA        12.9750    8.8730    3.5570 C.3   269  LEU269      0.1561
    173  C         14.1780    8.5780    2.6700 C.2   269  LEU269      0.2260
    174  O         14.0830    7.7890    1.7350 O.2   269  LEU269     -0.2867
    175  CB        12.4740    7.5770    4.2070 C.3   269  LEU269      0.0270
    176  CG        11.2810    7.7120    5.1660 C.3   269  LEU269      0.0019
    177  CD1       10.7920    6.3360    5.6040 C.3   269  LEU269      0.0001
    178  CD2       11.6390    8.5710    6.3770 C.3   269  LEU269      0.0001
    179  N          6.4110    7.2580    1.9160 N.3   278  CYS278     -0.1221
    180  CA         5.3120    6.4800    2.5180 C.3   278  CYS278      0.1808
    181  C          4.4250    7.3360    3.4240 C.2   278  CYS278      0.2601
    182  O          3.8940    6.8580    4.4370 O.2   278  CYS278     -0.2717
    183  CB         5.8410    5.2180    3.2220 C.3   278  CYS278      0.0970
    184  SG         7.2760    5.6010    4.2130 S.3   278  CYS278     -0.0800
    185  N          4.2620    8.6050    3.0410 N.am  279  ASP279     -0.1973
    186  CA         3.2240    9.4550    3.6170 C.3   279  ASP279      0.1709
    187  C          2.9370   10.5610    2.6110 C.2   279  ASP279      0.2293
    188  O          3.8530   11.2380    2.1420 O.2   279  ASP279     -0.2864
    189  CB         3.6730   10.0190    4.9700 C.3   279  ASP279      0.1436
    190  CG         2.6140   10.8370    5.6630 C.2   279  ASP279      0.3671
    191  OD1        1.4020   10.5890    5.4750 O.co2 279  ASP279     -0.2456
    192  OD2        2.9990   11.7490    6.4200 O.co2 279  ASP279     -0.2456
    193  N          0.3360   13.7620    2.2710 N.3   281  ASN281     -0.1240
    194  CA        -0.5490   14.5180    3.1550 C.3   281  ASN281      0.1653
    195  C         -1.5970   15.3990    2.4910 C.2   281  ASN281      0.2266
    196  O         -2.4630   15.9360    3.1860 O.2   281  ASN281     -0.2867
    197  CB         0.2730   15.3400    4.1550 C.3   281  ASN281      0.1155
    198  CG         1.0420   14.4580    5.1060 C.2   281  ASN281      0.2627
    199  OD1        0.5000   13.4860    5.6200 O.2   281  ASN281     -0.2716
    200  ND2        2.3170   14.7670    5.3230 N.am  281  ASN281     -0.0877
@<TRIPOS>BOND
     1    12    13    1
     2    12    18    1
     3    15    14    2
     4   166   165    2
     5   174   173    2
     6    14    13    1
     7   179   180    1
     8    13    16    1
     9    18    17    1
    10   188   187    2
    11   165   164    1
    12   193   194    1
    13     4     3    2
    14   139   138    2
    15   163   164    1
    16   138   137    1
    17   195   194    1
    18   195   196    2
    19   180   183    1
    20   180   181    1
    21   187   186    1
    22   173   172    1
    23   171   172    1
    24   164   167    1
    25   120   119    1
    26   185   181   am
    27   185   186    1
    28     3     2    1
    29   194   197    1
    30   183   184    1
    31   181   182    2
    32    17    16    1
    33   172   175    1
    34   186   189    1
    35   100    99   ar
    36   137   136    1
    37   137   140    1
    38   169   168   ar
    39     2     1    1
    40     2     5    1
    41   197   198    1
    42   119   118    1
    43   175   176    1
    44   167   168    1
    45    99   101   ar
    46    99    98    1
    47   118   117    1
    48   140   141    1
    49   168   170   ar
    50   189   190    1
    51   198   200   am
    52   198   199    2
    53   176   177    1
    54   176   178    1
    55     5     6    1
    56   191   190   ar
    57   117   114    1
    58    98    97    1
    59   190   192   ar
    60    92    90   ar
    61    97    94    1
    62   141   142    1
    63    39    36    1
    64     6     7    1
    65    88    85    1
    66    88    89    1
    67    90    91   ar
    68    90    89    1
    69   130   131    2
    70   130   129    1
    71   114   115    1
    72   114   113    1
    73    93    94    1
    74    93    86   am
    75   142   143    1
    76   127   125    1
    77    34    33    1
    78    96    95    2
    79    85    86    1
    80    85    84    1
    81    94    95    1
    82     7     8    1
    83   115   116    2
    84   125   122    1
    85   125   126    1
    86    95   102   am
    87   122   121    1
    88   122   123    1
    89   113   104   am
    90   129   132    1
    91   129   128    1
    92    86    87    2
    93    36    35    1
    94    36    37    1
    95   143   144    1
    96   105   104    2
    97    10     9    1
    98   104   103    1
    99    33    32    1
   100   132   133    1
   101   123   124    2
   102    32    31    1
   103     8     9    2
   104   102   103    1
   105    37    38    2
   106     9    11    1
   107   134   133   ar
   108   103   106    1
   109   133   135   ar
   110    31    30    1
   111    30    27    1
   112   106   107    1
   113    29    28    2
   114    23    25    1
   115    23    24    1
   116    23    20    1
   117    22    21    2
   118    48    46   ar
   119    48    49   ar
   120   107   108   ar
   121   107   109   ar
   122   108   110   ar
   123    28    27    1
   124    27    26    1
   125    19    20    1
   126    82    81    1
   127   109   111   ar
   128    46    45   ar
   129   110   112   ar
   130    21    20    1
   131    49    47   ar
   132   111   112   ar
   133    56    54    1
   134   149   150    1
   135   149   146    1
   136    81    83    1
   137    81    80    2
   138    55    54    1
   139   145   146    1
   140   146   147    1
   141    45    47   ar
   142    45    44    1
   143    54    51    1
   144   157   156    1
   145   157   151    1
   146    80    79    1
   147    40    41    1
   148    41    44    1
   149    41    42    1
   150   162   159    1
   151    64    62    1
   152   156   155    1
   153   147   151   am
   154   147   148    2
   155    72    70    1
   156    51    50    1
   157    51    52    1
   158   151   152    1
   159    62    61    1
   160    42    43    2
   161    63    61    1
   162    79    78    1
   163   158   159    1
   164   158   153   am
   165   159   160    1
   166    61    58    1
   167    52    53    2
   168   155   152    1
   169    58    57    1
   170    58    59    1
   171   152   153    1
   172    78    77    1
   173    70    69    1
   174    70    71    1
   175   153   154    2
   176    69    66    1
   177   160   161    2
   178    77    74    1
   179    74    73    1
   180    74    75    1
   181    59    60    2
   182    75    76    2
   183    66    67    1
   184    66    65    1
   185    67    68    2
