@<TRIPOS>MOLECULE
tmp/3t55A00.pdb
 166 153 0 0 0
SMALL
GASTEIGER

@<TRIPOS>ATOM
      1  N        -17.3530   -2.1180  -21.1290 N.3     6  ILE6       -0.1245
      2  CA       -16.2500   -1.2170  -20.7950 C.3     6  ILE6        0.1561
      3  C        -14.9990   -1.7400  -21.5100 C.2     6  ILE6        0.2260
      4  O        -14.2710   -0.9580  -22.1380 O.2     6  ILE6       -0.2867
      5  CB       -15.9840   -1.0530  -19.2840 C.3     6  ILE6        0.0252
      6  CG1      -17.0840   -0.2050  -18.6160 C.3     6  ILE6        0.0019
      7  CG2      -14.5960   -0.3820  -19.0550 C.3     6  ILE6        0.0019
      8  CD1      -17.0470   -0.2270  -17.0530 C.3     6  ILE6        0.0001
      9  N        -11.2680   11.0690  -10.3570 N.3    55  LYS55      -0.1245
     10  CA       -12.2830   10.4350  -11.1880 C.3    55  LYS55       0.1561
     11  C        -13.3720   11.4420  -11.4560 C.2    55  LYS55       0.2260
     12  O        -13.9590   11.9300  -10.5250 O.2    55  LYS55      -0.2867
     13  CB       -12.8490    9.2040  -10.4680 C.3    55  LYS55       0.0271
     14  CG       -13.9330    8.4600  -11.2140 C.3    55  LYS55       0.0035
     15  CD       -14.3070    7.1300  -10.5100 C.3    55  LYS55       0.0206
     16  CE       -14.9430    7.3470   -9.1310 C.3    55  LYS55       0.1093
     17  NZ       -15.3630    6.0490   -8.4430 N.3    55  LYS55      -0.1314
     18  N        -18.5120    8.1770  -13.7070 N.3    58  SER58      -0.1203
     19  CA       -18.5620    6.7170  -13.6950 C.3    58  SER58       0.2005
     20  C        -19.8920    6.2880  -14.2690 C.2    58  SER58       0.2461
     21  O        -20.8240    7.0660  -14.2930 O.2    58  SER58      -0.2732
     22  CB       -18.4290    6.1840  -12.2590 C.3    58  SER58       0.2103
     23  OG       -19.5710    6.5180  -11.4620 O.3    58  SER58      -0.2182
     24  N        -19.9800    5.0430  -14.7490 N.am   59  PRO59      -0.2717
     25  CA       -21.2660    4.5260  -15.1850 C.3    59  PRO59       0.1535
     26  C        -22.3230    4.6340  -14.1190 C.2    59  PRO59       0.2599
     27  O        -23.4860    4.8920  -14.4480 O.2    59  PRO59      -0.2715
     28  CB       -20.9790    3.0580  -15.4510 C.3    59  PRO59       0.0310
     29  CG       -19.4970    3.0310  -15.7540 C.3    59  PRO59       0.0237
     30  CD       -18.8790    4.0940  -14.9680 C.3    59  PRO59       0.0939
     31  N        -21.9490    4.3930  -12.8580 N.am   60  SER60      -0.1950
     32  CA       -22.9440    4.3370  -11.8030 C.3    60  SER60       0.1924
     33  C        -23.3770    5.7580  -11.4220 C.2    60  SER60       0.2314
     34  O        -24.5830    6.0140  -11.2650 O.2    60  SER60      -0.2863
     35  CB       -22.4710    3.5030  -10.5930 C.3    60  SER60       0.2116
     36  OG       -21.3970    4.0730   -9.8340 O.3    60  SER60      -0.2180
     37  N         -7.9300    7.6560  -12.4100 N.3    88  VAL88      -0.1245
     38  CA        -8.6300    6.9290  -13.4390 C.3    88  VAL88       0.1561
     39  C         -8.2810    7.4720  -14.7920 C.2    88  VAL88       0.2260
     40  O         -8.3730    8.6980  -15.0460 O.2    88  VAL88      -0.2867
     41  CB       -10.2070    7.0250  -13.2200 C.3    88  VAL88       0.0252
     42  CG1      -10.9700    6.2790  -14.3400 C.3    88  VAL88       0.0019
     43  CG2      -10.5540    6.5390  -11.8550 C.3    88  VAL88       0.0019
     44  N         -9.4330    5.7490  -17.8410 N.3    90  GLU90      -0.1245
     45  CA       -10.3770    5.2560  -18.8650 C.3    90  GLU90       0.1567
     46  C        -11.2110    6.4130  -19.3220 C.2    90  GLU90       0.2260
     47  O        -11.8570    7.0670  -18.4570 O.2    90  GLU90      -0.2867
     48  CB       -11.2770    4.1980  -18.2580 C.3    90  GLU90       0.0388
     49  CG       -11.9480    3.2780  -19.2990 C.3    90  GLU90       0.1160
     50  CD       -13.0130    3.9380  -20.1050 C.2    90  GLU90       0.3649
     51  OE1      -13.8530    4.6190  -19.4690 O.co2  90  GLU90      -0.2457
     52  OE2      -13.0030    3.7800  -21.3730 O.co2  90  GLU90      -0.2457
     53  N        -15.3910    6.9650  -17.7790 N.3    94  PHE94      -0.1241
     54  CA       -14.9330    7.7540  -16.6510 C.3    94  PHE94       0.1605
     55  C        -14.3670    9.1210  -17.0140 C.2    94  PHE94       0.2264
     56  O        -14.0790    9.8910  -16.1320 O.2    94  PHE94      -0.2867
     57  CB       -13.9410    6.9700  -15.8100 C.3    94  PHE94       0.0534
     58  CG       -14.5070    5.6870  -15.2680 C.ar   94  PHE94      -0.0203
     59  CD1      -14.6390    4.5680  -16.0730 C.ar   94  PHE94      -0.0042
     60  CD2      -14.9130    5.5970  -13.9480 C.ar   94  PHE94      -0.0042
     61  CE1      -15.1590    3.4150  -15.5840 C.ar   94  PHE94      -0.0003
     62  CE2      -15.3960    4.4170  -13.4640 C.ar   94  PHE94      -0.0003
     63  CZ       -15.5160    3.3240  -14.2990 C.ar   94  PHE94      -0.0000
     64  N         -5.6210    3.6370  -12.4250 N.3   115  LYS115     -0.1231
     65  CA        -6.9100    2.9460  -12.3350 C.3   115  LYS115      0.1693
     66  C         -7.5520    2.8890  -13.7000 C.2   115  LYS115      0.2592
     67  O         -8.0590    3.8710  -14.1850 O.2   115  LYS115     -0.2718
     68  CB        -7.8620    3.7250  -11.4370 C.3   115  LYS115      0.0285
     69  CG        -8.0780    3.2360  -10.0700 C.3   115  LYS115      0.0035
     70  CD        -8.8460    2.0310   -9.9670 C.3   115  LYS115      0.0206
     71  CE        -9.5230    1.9370   -8.6360 C.3   115  LYS115      0.1093
     72  NZ       -10.9040    2.5330   -8.5930 N.3   115  LYS115     -0.1314
     73  N         -7.5250    1.7340  -14.3080 N.am  116  ASP116     -0.1960
     74  CA        -8.0390    1.5530  -15.6710 C.3   116  ASP116      0.1840
     75  C         -8.2400    0.0350  -15.8160 C.2   116  ASP116      0.2622
     76  O         -8.0610   -0.7230  -14.8350 O.2   116  ASP116     -0.2715
     77  CB        -7.0140    2.0790  -16.6700 C.3   116  ASP116      0.1450
     78  CG        -7.6240    2.4240  -18.0710 C.2   116  ASP116      0.3671
     79  OD1       -8.7000    1.8730  -18.4430 O.co2 116  ASP116     -0.2456
     80  OD2       -7.0210    3.2890  -18.7690 O.co2 116  ASP116     -0.2456
     81  N         -8.6230   -0.3900  -17.0040 N.am  117  PHE117     -0.1974
     82  CA        -8.9630   -1.7720  -17.2420 C.3   117  PHE117      0.1639
     83  C         -7.8580   -2.3730  -18.0530 C.2   117  PHE117      0.2290
     84  O         -7.8430   -2.3000  -19.2710 O.2   117  PHE117     -0.2864
     85  CB       -10.2940   -1.8690  -17.9140 C.3   117  PHE117      0.0560
     86  CG       -11.3890   -1.2420  -17.1160 C.ar  117  PHE117     -0.0200
     87  CD1      -12.2270   -2.0180  -16.3380 C.ar  117  PHE117     -0.0042
     88  CD2      -11.5620    0.1370  -17.1260 C.ar  117  PHE117     -0.0042
     89  CE1      -13.2410   -1.4400  -15.5930 C.ar  117  PHE117     -0.0003
     90  CE2      -12.5680    0.7170  -16.4060 C.ar  117  PHE117     -0.0003
     91  CZ       -13.4100   -0.0610  -15.6300 C.ar  117  PHE117     -0.0000
     92  N         -3.7230   -1.1700  -11.3970 N.3   136  LEU136     -0.1245
     93  CA        -4.8440   -2.0050  -11.1370 C.3   136  LEU136      0.1561
     94  C         -4.8690   -3.2170  -12.1680 C.2   136  LEU136      0.2260
     95  O         -4.8430   -3.0020  -13.3810 O.2   136  LEU136     -0.2867
     96  CB        -6.1470   -1.2160  -11.2460 C.3   136  LEU136      0.0270
     97  CG        -7.4020   -1.9260  -10.7510 C.3   136  LEU136      0.0019
     98  CD1       -7.3440   -2.1220   -9.2310 C.3   136  LEU136      0.0001
     99  CD2       -8.7170   -1.2150  -11.1950 C.3   136  LEU136      0.0001
    100  N         -7.7730   -6.3850  -12.7290 N.3   138  ILE138     -0.1245
    101  CA        -9.1120   -6.7780  -12.2640 C.3   138  ILE138      0.1561
    102  C         -9.2560   -8.3120  -12.5810 C.2   138  ILE138      0.2260
    103  O         -9.3250   -8.7060  -13.7460 O.2   138  ILE138     -0.2867
    104  CB       -10.1940   -5.9440  -12.9440 C.3   138  ILE138      0.0252
    105  CG1      -10.0310   -4.4680  -12.5740 C.3   138  ILE138      0.0019
    106  CG2      -11.6620   -6.4430  -12.5640 C.3   138  ILE138      0.0019
    107  CD1      -10.7710   -3.5230  -13.5110 C.3   138  ILE138      0.0001
    108  N         -7.6640   -6.7040   -7.9500 N.3   164  GLU164     -0.1245
    109  CA        -8.9920   -6.4410   -7.3990 C.3   164  GLU164      0.1567
    110  C         -9.8880   -7.6780   -7.5630 C.2   164  GLU164      0.2260
    111  O         -9.9620   -8.2740   -8.6540 O.2   164  GLU164     -0.2867
    112  CB        -9.6180   -5.2500   -8.1150 C.3   164  GLU164      0.0388
    113  CG       -11.1260   -5.1060   -7.9540 C.3   164  GLU164      0.1160
    114  CD       -11.6360   -3.8340   -8.6390 C.2   164  GLU164      0.3649
    115  OE1      -10.9090   -2.7930   -8.5180 O.co2 164  GLU164     -0.2457
    116  OE2      -12.7380   -3.8990   -9.2770 O.co2 164  GLU164     -0.2457
    117  N        -13.4440   -5.0170   -4.0180 N.3   185  ASN185     -0.1240
    118  CA       -14.3580   -4.0500   -4.4930 C.3   185  ASN185      0.1653
    119  C        -15.7510   -4.4560   -4.0570 C.2   185  ASN185      0.2266
    120  O        -16.2340   -5.5120   -4.4340 O.2   185  ASN185     -0.2867
    121  CB       -14.3170   -3.9440   -6.0180 C.3   185  ASN185      0.1155
    122  CG       -14.8250   -2.6260   -6.4920 C.2   185  ASN185      0.2627
    123  OD1      -15.4100   -1.8960   -5.7110 O.2   185  ASN185     -0.2716
    124  ND2      -14.5930   -2.2900   -7.7640 N.am  185  ASN185     -0.0877
    125  N        -18.2170   -3.0490   -5.0800 N.3   187  ARG187     -0.1245
    126  CA       -19.0080   -2.9780   -6.3090 C.3   187  ARG187      0.1563
    127  C        -18.8130   -4.1900   -7.2260 C.2   187  ARG187      0.2260
    128  O        -17.6950   -4.6290   -7.4540 O.2   187  ARG187     -0.2867
    129  CB       -18.6860   -1.6860   -7.0770 C.3   187  ARG187      0.0307
    130  CG       -19.6570   -1.3860   -8.2240 C.3   187  ARG187      0.0489
    131  CD       -19.4260    0.0080   -8.8250 C.3   187  ARG187      0.2205
    132  NE       -19.8800    1.1690   -8.0200 N.pl3 187  ARG187     -0.0865
    133  CZ       -19.0740    1.9970   -7.3590 C.cat 187  ARG187      0.5346
    134  NH1      -17.7660    1.7810   -7.3280 N.pl3 187  ARG187      0.1354
    135  NH2      -19.5620    3.0380   -6.6990 N.pl3 187  ARG187      0.1354
    136  N        -18.6640   -5.4160  -10.7990 N.3   189  LEU189     -0.1245
    137  CA       -18.3830   -4.6780  -12.0270 C.3   189  LEU189      0.1561
    138  C        -19.2810   -5.1520  -13.1700 C.2   189  LEU189      0.2260
    139  O        -19.5020   -4.4190  -14.1270 O.2   189  LEU189     -0.2867
    140  CB       -16.8940   -4.7540  -12.4270 C.3   189  LEU189      0.0270
    141  CG       -15.8090   -4.1070  -11.5410 C.3   189  LEU189      0.0019
    142  CD1      -14.6150   -3.6840  -12.3850 C.3   189  LEU189      0.0001
    143  CD2      -16.3300   -2.9060  -10.7490 C.3   189  LEU189      0.0001
    144  N        -22.7340   -3.3580  -11.3910 N.3   192  LEU192     -0.1245
    145  CA       -22.5890   -2.0440  -10.7200 C.3   192  LEU192      0.1561
    146  C        -23.2020   -1.9020   -9.2950 C.2   192  LEU192      0.2260
    147  O        -23.1450   -0.8020   -8.7130 O.2   192  LEU192     -0.2867
    148  CB       -23.0820   -0.8770  -11.6120 C.3   192  LEU192      0.0270
    149  CG       -22.3800   -0.6550  -12.9490 C.3   192  LEU192      0.0019
    150  CD1      -23.1160    0.3830  -13.8050 C.3   192  LEU192      0.0001
    151  CD2      -20.9240   -0.2540  -12.7430 C.3   192  LEU192      0.0001
    152  N        -14.2070    1.1090   -2.5530 N.3   216  SER216     -0.1217
    153  CA       -15.6130    1.4650   -2.6570 C.3   216  SER216      0.1889
    154  C        -16.4130    1.5310   -1.3740 C.2   216  SER216      0.2288
    155  O        -16.0920    0.8980   -0.3740 O.2   216  SER216     -0.2866
    156  CB       -16.3470    0.5340   -3.6250 C.3   216  SER216      0.2089
    157  OG       -15.7670    0.6470   -4.9310 O.3   216  SER216     -0.2183
    158  N        -15.5690    9.0440   -5.0460 N.3   239  GLU239     -0.1245
    159  CA       -16.7610    9.8410   -5.1660 C.3   239  GLU239      0.1567
    160  C        -16.8750   10.9060   -4.1140 C.2   239  GLU239      0.2260
    161  O        -17.1310   12.0680   -4.4230 O.2   239  GLU239     -0.2867
    162  CB       -18.0190    8.9810   -5.1260 C.3   239  GLU239      0.0388
    163  CG       -18.2590    8.2280   -6.3740 C.3   239  GLU239      0.1160
    164  CD       -19.5280    7.3600   -6.3240 C.2   239  GLU239      0.3649
    165  OE1      -19.7100    6.5600   -7.2720 O.co2 239  GLU239     -0.2457
    166  OE2      -20.2970    7.4480   -5.3280 O.co2 239  GLU239     -0.2457
@<TRIPOS>BOND
     1     4     3    2
     2     3     2    1
     3    52    50   ar
     4     1     2    1
     5     2     5    1
     6    50    51   ar
     7    50    49    1
     8    46    45    1
     9    46    47    2
    10    49    48    1
    11     5     7    1
    12     5     6    1
    13    84    83    2
    14    45    48    1
    15    45    44    1
    16    80    78   ar
    17     6     8    1
    18    79    78   ar
    19    78    77    1
    20    83    82    1
    21    85    82    1
    22    85    86    1
    23    53    54    1
    24    82    81    1
    25    88    86   ar
    26    88    90   ar
    27    86    87   ar
    28    55    54    1
    29    55    56    2
    30    81    75   am
    31    77    74    1
    32    54    57    1
    33    90    91   ar
    34    87    89   ar
    35    59    61   ar
    36    59    58   ar
    37    75    74    1
    38    75    76    2
    39    57    58    1
    40    29    28    1
    41    29    30    1
    42    74    73    1
    43    91    89   ar
    44    61    63   ar
    45    28    25    1
    46    58    60   ar
    47    25    24    1
    48    25    26    1
    49    40    39    2
    50    30    24    1
    51    39    38    1
    52    24    20   am
    53    27    26    2
    54    42    41    1
    55    73    66   am
    56    63    62   ar
    57    21    20    2
    58    20    19    1
    59    67    66    2
    60   139   138    2
    61    26    31   am
    62    60    62   ar
    63   150   149    1
    64   103   102    2
    65    18    19    1
    66    66    65    1
    67    19    22    1
    68   107   105    1
    69    38    41    1
    70    38    37    1
    71    95    94    2
    72    41    43    1
    73   138   137    1
    74   149   151    1
    75   149   148    1
    76   104   105    1
    77   104   106    1
    78   104   101    1
    79    31    32    1
    80   100   101    1
    81   102   101    1
    82   140   137    1
    83   140   141    1
    84    64    65    1
    85   142   141    1
    86    65    68    1
    87    22    23    1
    88    94    93    1
    89   137   136    1
    90    32    33    1
    91    32    35    1
    92   148   145    1
    93   141   143    1
    94    11    10    1
    95    11    12    2
    96    68    69    1
    97    33    34    2
    98    92    93    1
    99   144   145    1
   100    96    93    1
   101    96    97    1
   102    14    15    1
   103    14    13    1
   104    99    97    1
   105    10    13    1
   106    10     9    1
   107    97    98    1
   108   145   146    1
   109    35    36    1
   110    15    16    1
   111    69    70    1
   112    70    71    1
   113   146   147    2
   114   116   114   ar
   115    16    17    1
   116   131   130    1
   117   131   132    1
   118   111   110    2
   119   114   115   ar
   120   114   113    1
   121    71    72    1
   122   130   129    1
   123   112   113    1
   124   112   109    1
   125   132   133    2
   126   108   109    1
   127   124   122   am
   128   110   109    1
   129   128   127    2
   130   133   134    1
   131   133   135    1
   132   165   164   ar
   133   127   126    1
   134   129   126    1
   135   122   121    1
   136   122   123    2
   137   163   164    1
   138   163   162    1
   139   164   166   ar
   140   126   125    1
   141   121   118    1
   142   159   162    1
   143   159   158    1
   144   159   160    1
   145   157   156    1
   146   118   119    1
   147   118   117    1
   148   120   119    2
   149   161   160    2
   150   156   153    1
   151   153   152    1
   152   153   154    1
   153   154   155    2
