@<TRIPOS>MOLECULE
tmp/3t5dB01.pdb
 109 104 0 0 0
SMALL
GASTEIGER

@<TRIPOS>ATOM
      1  N         34.1260  -13.4780    5.6450 N.3    11  SER11      -0.1202
      2  CA        34.7970  -14.0740    6.7990 C.3    11  SER11       0.2020
      3  C         35.4360  -15.4170    6.4550 C.2    11  SER11       0.2619
      4  O         34.8270  -16.2530    5.7830 O.2    11  SER11      -0.2717
      5  CB        33.8190  -14.2360    7.9650 C.3    11  SER11       0.2103
      6  OG        34.4710  -14.7500    9.1140 O.3    11  SER11      -0.2182
      7  N         36.6710  -15.6040    6.9160 N.am   12  GLY12      -0.1942
      8  CA        37.4050  -16.8490    6.7120 C.3    12  GLY12       0.2014
      9  C         38.1700  -16.9150    5.4040 C.2    12  GLY12       0.2639
     10  O         38.3340  -17.9940    4.8280 O.2    12  GLY12      -0.2714
     11  N         38.6390  -15.7610    4.9360 N.am   13  LEU13      -0.1963
     12  CA        39.4330  -15.6890    3.7120 C.3    13  LEU13       0.1728
     13  C         40.9190  -15.4560    3.9940 C.2    13  LEU13       0.2617
     14  O         41.7190  -15.2990    3.0690 O.2    13  LEU13      -0.2715
     15  CB        38.8800  -14.6170    2.7650 C.3    13  LEU13       0.0311
     16  CG        37.6270  -14.9620    1.9480 C.3    13  LEU13       0.0022
     17  CD1       37.1270  -13.7410    1.1870 C.3    13  LEU13       0.0001
     18  CD2       37.8750  -16.1230    0.9880 C.3    13  LEU13       0.0001
     19  N         41.2830  -15.4450    5.2730 N.am   14  GLY14      -0.1940
     20  CA        42.6690  -15.2400    5.6830 C.3    14  GLY14       0.2014
     21  C         43.0670  -13.7780    5.7010 C.2    14  GLY14       0.2639
     22  O         44.2400  -13.4460    5.5080 O.2    14  GLY14      -0.2714
     23  N         42.0870  -12.9070    5.9390 N.am   15  LYS15      -0.1963
     24  CA        42.3060  -11.4600    5.9660 C.3    15  LYS15       0.1728
     25  C         43.2240  -11.0590    7.1190 C.2    15  LYS15       0.2617
     26  O         44.2330  -10.3820    6.9090 O.2    15  LYS15      -0.2715
     27  CB        40.9750  -10.7050    6.0710 C.3    15  LYS15       0.0311
     28  CG        39.9410  -11.0650    5.0090 C.3    15  LYS15       0.0038
     29  CD        38.7690  -10.0840    5.0000 C.3    15  LYS15       0.0206
     30  CE        37.8690  -10.2380    6.2210 C.3    15  LYS15       0.1093
     31  NZ        37.1120  -11.5190    6.2110 N.3    15  LYS15      -0.1314
     32  N         42.8710  -11.4900    8.3300 N.am   16  SER16      -0.1936
     33  CA        43.6520  -11.1780    9.5270 C.3    16  SER16       0.2055
     34  C         45.0340  -11.8270    9.4960 C.2    16  SER16       0.2643
     35  O         46.0010  -11.2570   10.0030 O.2    16  SER16      -0.2714
     36  CB        42.8930  -11.5740   10.7950 C.3    16  SER16       0.2130
     37  OG        42.4900  -12.9300   10.7470 O.3    16  SER16      -0.2179
     38  N         45.1180  -13.0110    8.8900 N.am   17  THR17      -0.1950
     39  CA        46.3890  -13.7170    8.7290 C.3    17  THR17       0.1897
     40  C         47.3240  -12.9510    7.7880 C.2    17  THR17       0.2313
     41  O         48.5370  -12.9030    8.0150 O.2    17  THR17      -0.2863
     42  CB        46.1860  -15.1580    8.2060 C.3    17  THR17       0.1794
     43  OG1       45.0460  -15.7480    8.8420 O.3    17  THR17      -0.2208
     44  CG2       47.4130  -16.0170    8.4900 C.3    17  THR17       0.0378
     45  N         43.5080  -16.6890   -0.0880 N.3   134  LYS134     -0.1245
     46  CA        43.8690  -18.1100    0.0130 C.3   134  LYS134      0.1561
     47  C         44.2790  -18.6790   -1.3500 C.2   134  LYS134      0.2260
     48  O         43.5770  -19.5120   -1.9270 O.2   134  LYS134     -0.2867
     49  CB        42.7220  -18.9250    0.6310 C.3   134  LYS134      0.0271
     50  CG        42.3270  -18.4980    2.0450 C.3   134  LYS134      0.0035
     51  CD        41.0010  -19.1160    2.4880 C.3   134  LYS134      0.0206
     52  CE        41.1620  -20.5560    2.9660 C.3   134  LYS134      0.1093
     53  NZ        39.8590  -21.1620    3.3640 N.3   134  LYS134     -0.1314
     54  N         46.6440  -20.6560   -2.2270 N.3   136  ASP136     -0.1225
     55  CA        47.0980  -22.0490   -2.2170 C.3   136  ASP136      0.1805
     56  C         45.9610  -23.0460   -2.4820 C.2   136  ASP136      0.2598
     57  O         46.1750  -24.2610   -2.4830 O.2   136  ASP136     -0.2718
     58  CB        47.8220  -22.3740   -0.9000 C.3   136  ASP136      0.1424
     59  CG        46.9530  -22.1400    0.3320 C.2   136  ASP136      0.3668
     60  OD1       46.0390  -21.2870    0.2850 O.co2 136  ASP136     -0.2456
     61  OD2       47.1950  -22.8110    1.3570 O.co2 136  ASP136     -0.2456
     62  N         44.7590  -22.5190   -2.7080 N.am  137  THR137     -0.1953
     63  CA        43.5970  -23.3280   -3.0660 C.3   137  THR137      0.1897
     64  C         43.6010  -23.6380   -4.5630 C.2   137  THR137      0.2313
     65  O         43.0350  -24.6430   -5.0020 O.2   137  THR137     -0.2863
     66  CB        42.2720  -22.6130   -2.7090 C.3   137  THR137      0.1794
     67  OG1       42.1380  -21.4220   -3.4950 O.3   137  THR137     -0.2208
     68  CG2       42.2340  -22.2440   -1.2340 C.3   137  THR137      0.0378
     69  N         47.2650  -14.1190   -3.1100 N.3   175  VAL175     -0.1231
     70  CA        48.0520  -14.0310   -1.8770 C.3   175  VAL175      0.1692
     71  C         47.7770  -15.1440   -0.8670 C.2   175  VAL175      0.2592
     72  O         46.6520  -15.6370   -0.7570 O.2   175  VAL175     -0.2718
     73  CB        47.8720  -12.6540   -1.1820 C.3   175  VAL175      0.0266
     74  CG1       48.6170  -11.5660   -1.9440 C.3   175  VAL175      0.0020
     75  CG2       46.3910  -12.2980   -1.0270 C.3   175  VAL175      0.0020
     76  N         48.8250  -15.5330   -0.1440 N.am  176  VAL176     -0.1966
     77  CA        48.7270  -16.4930    0.9560 C.3   176  VAL176      0.1727
     78  C         49.3750  -15.9030    2.2090 C.2   176  VAL176      0.2616
     79  O         50.5480  -15.5250    2.1910 O.2   176  VAL176     -0.2715
     80  CB        49.3970  -17.8500    0.6080 C.3   176  VAL176      0.0290
     81  CG1       49.4840  -18.7550    1.8330 C.3   176  VAL176      0.0023
     82  CG2       48.6490  -18.5520   -0.5080 C.3   176  VAL176      0.0023
     83  N         48.6020  -15.8210    3.2890 N.am  177  GLY177     -0.1955
     84  CA        49.1140  -15.3480    4.5720 C.3   177  GLY177      0.1869
     85  C         49.4200  -16.5070    5.5010 C.2   177  GLY177      0.2309
     86  O         48.6160  -17.4360    5.6220 O.2   177  GLY177     -0.2863
     87  N         52.8120  -22.7070    5.0810 N.3   184  ARG184     -0.1245
     88  CA        51.7640  -23.5770    5.6160 C.3   184  ARG184      0.1563
     89  C         52.1450  -25.0480    5.4660 C.2   184  ARG184      0.2260
     90  O         52.5910  -25.4760    4.3990 O.2   184  ARG184     -0.2867
     91  CB        50.4240  -23.2990    4.9250 C.3   184  ARG184      0.0307
     92  CG        50.0610  -21.8200    4.8390 C.3   184  ARG184      0.0489
     93  CD        48.7190  -21.5970    4.1650 C.3   184  ARG184      0.2205
     94  NE        47.6090  -21.6430    5.1140 N.pl3 184  ARG184     -0.0865
     95  CZ        46.8140  -22.6920    5.3020 C.cat 184  ARG184      0.5346
     96  NH1       46.9880  -23.8050    4.6020 N.pl3 184  ARG184      0.1354
     97  NH2       45.8340  -22.6260    6.1890 N.pl3 184  ARG184      0.1354
     98  N         51.2980  -28.6350    4.9160 N.3   186  TYR186     -0.1241
     99  CA        50.4030  -29.6750    4.4160 C.3   186  TYR186      0.1605
    100  C         51.1020  -31.0340    4.4860 C.2   186  TYR186      0.2264
    101  O         52.3330  -31.0940    4.4410 O.2   186  TYR186     -0.2867
    102  CB        49.9760  -29.3780    2.9750 C.3   186  TYR186      0.0534
    103  CG        48.9580  -28.2680    2.8330 C.ar  186  TYR186     -0.0201
    104  CD1       49.3110  -27.0410    2.2750 C.ar  186  TYR186     -0.0009
    105  CD2       47.6390  -28.4490    3.2490 C.ar  186  TYR186     -0.0009
    106  CE1       48.3770  -26.0190    2.1370 C.ar  186  TYR186      0.0417
    107  CE2       46.6990  -27.4340    3.1190 C.ar  186  TYR186      0.0417
    108  CZ        47.0740  -26.2250    2.5600 C.ar  186  TYR186      0.1957
    109  OH        46.1460  -25.2190    2.4280 O.3   186  TYR186     -0.2866
@<TRIPOS>BOND
     1    65    64    2
     2    64    63    1
     3    67    66    1
     4    69    70    1
     5    63    66    1
     6    63    62    1
     7    66    68    1
     8    62    56   am
     9    57    56    2
    10    56    55    1
    11    54    55    1
    12    55    58    1
    13    74    73    1
    14    48    47    2
    15    70    73    1
    16    70    71    1
    17    47    46    1
    18    73    75    1
    19    58    59    1
    20    71    72    2
    21    71    76   am
    22    82    80    1
    23    76    77    1
    24    45    46    1
    25    46    49    1
    26    60    59   ar
    27    59    61   ar
    28    80    77    1
    29    80    81    1
    30    49    50    1
    31    77    78    1
    32    18    16    1
    33    17    16    1
    34    16    15    1
    35    50    51    1
    36   106   104   ar
    37   106   108   ar
    38    79    78    2
    39    78    83   am
    40   104   103   ar
    41   109   108    1
    42    51    52    1
    43   108   107   ar
    44    15    12    1
    45   103   102    1
    46   103   105   ar
    47    52    53    1
    48   102    99    1
    49    14    13    2
    50   107   105   ar
    51    83    84    1
    52    12    13    1
    53    12    11    1
    54    13    19   am
    55    93    92    1
    56    93    94    1
    57    90    89    2
    58    99   100    1
    59    99    98    1
    60   101   100    2
    61    84    85    1
    62    96    95    1
    63    10     9    2
    64    92    91    1
    65    91    88    1
    66    11     9   am
    67    29    28    1
    68    29    30    1
    69    28    27    1
    70    87    88    1
    71    94    95    2
    72    19    20    1
    73    95    97    1
    74     9     8    1
    75    89    88    1
    76    85    86    2
    77    22    21    2
    78     1     2    1
    79    20    21    1
    80    21    23   am
    81     4     3    2
    82    23    24    1
    83    24    27    1
    84    24    25    1
    85    31    30    1
    86     3     2    1
    87     3     7   am
    88     8     7    1
    89     2     5    1
    90    26    25    2
    91    25    32   am
    92    40    41    2
    93    40    39    1
    94     5     6    1
    95    42    44    1
    96    42    39    1
    97    42    43    1
    98    32    33    1
    99    39    38    1
   100    38    34   am
   101    34    33    1
   102    34    35    2
   103    33    36    1
   104    37    36    1
