@<TRIPOS>MOLECULE
tmp/3t5fB02.pdb
 146 146 0 0 0
SMALL
GASTEIGER

@<TRIPOS>ATOM
      1  N         22.4790   -5.7220   18.3200 N.3    43  HIS43      -0.1241
      2  CA        22.3350   -7.0910   17.8150 C.3    43  HIS43       0.1621
      3  C         21.5770   -7.1530   16.4900 C.2    43  HIS43       0.2264
      4  O         21.5740   -8.1880   15.8240 O.2    43  HIS43      -0.2867
      5  CB        21.7090   -8.0290   18.8630 C.3    43  HIS43       0.0745
      6  CG        20.2150   -7.9540   18.9430 C.ar   43  HIS43       0.0817
      7  ND1       19.5590   -7.2590   19.9360 N.ar   43  HIS43      -0.2268
      8  CD2       19.2490   -8.4960   18.1630 C.ar   43  HIS43       0.1154
      9  CE1       18.2540   -7.3730   19.7640 C.ar   43  HIS43       0.1986
     10  NE2       18.0380   -8.1190   18.6950 N.ar   43  HIS43      -0.2212
     11  N         25.7470   -9.7560   15.3300 N.3    47  TYR47      -0.1241
     12  CA        25.4690  -10.8660   16.2240 C.3    47  TYR47       0.1605
     13  C         26.1540  -12.1200   15.6990 C.2    47  TYR47       0.2264
     14  O         25.5540  -12.9250   14.9860 O.2    47  TYR47      -0.2867
     15  CB        23.9670  -11.0880   16.4020 C.3    47  TYR47       0.0534
     16  CG        23.6710  -11.9730   17.5770 C.ar   47  TYR47      -0.0201
     17  CD1       24.0190  -11.5770   18.8690 C.ar   47  TYR47      -0.0009
     18  CD2       23.0680  -13.2140   17.4070 C.ar   47  TYR47      -0.0009
     19  CE1       23.7700  -12.3930   19.9580 C.ar   47  TYR47       0.0417
     20  CE2       22.8070  -14.0370   18.4930 C.ar   47  TYR47       0.0417
     21  CZ        23.1670  -13.6220   19.7660 C.ar   47  TYR47       0.1957
     22  OH        22.9180  -14.4310   20.8530 O.3    47  TYR47      -0.2866
     23  N         24.8860  -15.8490   15.1840 N.3    50  TRP50      -0.1241
     24  CA        23.9890  -16.1280   14.0640 C.3    50  TRP50       0.1605
     25  C         24.5890  -15.6690   12.7370 C.2    50  TRP50       0.2264
     26  O         23.8710  -15.5190   11.7460 O.2    50  TRP50      -0.2867
     27  CB        22.6340  -15.4430   14.2720 C.3    50  TRP50       0.0550
     28  CG        21.8460  -15.9690   15.4350 C.ar   50  TRP50       0.0003
     29  CD1       22.1480  -17.0530   16.2110 C.ar   50  TRP50       0.0946
     30  CD2       20.6230  -15.4320   15.9550 C.ar   50  TRP50       0.0152
     31  NE1       21.1870  -17.2230   17.1800 N.ar   50  TRP50      -0.2442
     32  CE2       20.2400  -16.2410   17.0440 C.ar   50  TRP50       0.0810
     33  CE3       19.8150  -14.3460   15.6040 C.ar   50  TRP50       0.0012
     34  CZ2       19.0850  -15.9970   17.7870 C.ar   50  TRP50       0.0191
     35  CZ3       18.6660  -14.1050   16.3420 C.ar   50  TRP50       0.0001
     36  CH2       18.3140  -14.9260   17.4220 C.ar   50  TRP50       0.0015
     37  N         24.0700   -9.5770   25.9760 N.3    96  LEU96      -0.1245
     38  CA        23.6830   -8.3930   25.2010 C.3    96  LEU96       0.1561
     39  C         23.7820   -7.0950   26.0120 C.2    96  LEU96       0.2260
     40  O         23.0260   -6.1460   25.7830 O.2    96  LEU96      -0.2867
     41  CB        22.2730   -8.5510   24.6140 C.3    96  LEU96       0.0270
     42  CG        22.0600   -9.7290   23.6600 C.3    96  LEU96       0.0019
     43  CD1       20.6480   -9.7130   23.0730 C.3    96  LEU96       0.0001
     44  CD2       23.0900   -9.7300   22.5510 C.3    96  LEU96       0.0001
     45  N          4.3010   -8.9260   24.8160 N.3   192  ASP192     -0.1225
     46  CA         5.7610   -8.9300   24.7690 C.3   192  ASP192      0.1805
     47  C          6.1840   -8.5010   23.3700 C.2   192  ASP192      0.2598
     48  O          5.3790   -8.4970   22.4340 O.2   192  ASP192     -0.2718
     49  CB         6.2870  -10.3490   25.0700 C.3   192  ASP192      0.1424
     50  CG         7.7930  -10.3910   25.4120 C.2   192  ASP192      0.3668
     51  OD1        8.4310   -9.3270   25.5880 O.co2 192  ASP192     -0.2456
     52  OD2        8.3360  -11.5170   25.5200 O.co2 192  ASP192     -0.2456
     53  N          7.4510   -8.1370   23.2390 N.am  193  ALA193     -0.1966
     54  CA         8.0830   -8.0340   21.9410 C.3   193  ALA193      0.1728
     55  C          8.3820   -9.4490   21.4610 C.2   193  ALA193      0.2616
     56  O          8.2670  -10.4180   22.2190 O.2   193  ALA193     -0.2715
     57  CB         9.3600   -7.2270   22.0370 C.3   193  ALA193      0.0334
     58  N          8.7580   -9.5780   20.1970 N.am  194  CYS194     -0.1954
     59  CA         9.1290  -10.8820   19.6770 C.3   194  CYS194      0.1843
     60  C         10.1530  -10.7110   18.5660 C.2   194  CYS194      0.2625
     61  O         10.6440   -9.6000   18.3350 O.2   194  CYS194     -0.2714
     62  CB         7.8820  -11.6330   19.1870 C.3   194  CYS194      0.0997
     63  SG         8.0670  -13.4550   19.0840 S.3   194  CYS194     -0.0797
     64  N         10.4860  -11.8080   17.8960 N.am  195  GLU195     -0.1977
     65  CA        11.4150  -11.7740   16.7750 C.3   195  GLU195      0.1602
     66  C         10.9630  -10.7400   15.7410 C.2   195  GLU195      0.2287
     67  O          9.8070  -10.7320   15.3200 O.2   195  GLU195     -0.2864
     68  CB        11.5180  -13.1660   16.1440 C.3   195  GLU195      0.0415
     69  CG        12.4150  -13.2460   14.9290 C.3   195  GLU195      0.1163
     70  CD        12.4820  -14.6500   14.3420 C.2   195  GLU195      0.3649
     71  OE1       11.9190  -15.5870   14.9500 O.co2 195  GLU195     -0.2457
     72  OE2       13.0960  -14.8150   13.2680 O.co2 195  GLU195     -0.2457
     73  N         13.0830   -6.4430   17.6570 N.3   198  SER198     -0.1217
     74  CA        14.4240   -6.0150   18.0490 C.3   198  SER198      0.1889
     75  C         14.7670   -4.6310   17.5380 C.2   198  SER198      0.2288
     76  O         14.5420   -4.3220   16.3690 O.2   198  SER198     -0.2866
     77  CB        15.4640   -6.9840   17.4900 C.3   198  SER198      0.2089
     78  OG        15.4000   -8.2400   18.1300 O.3   198  SER198     -0.2183
     79  N         14.1410   -2.4320   22.4230 N.3   218  VAL218     -0.1231
     80  CA        13.8400   -3.8620   22.4320 C.3   218  VAL218      0.1692
     81  C         15.1250   -4.6700   22.2600 C.2   218  VAL218      0.2593
     82  O         15.8010   -4.5790   21.2300 O.2   218  VAL218     -0.2718
     83  CB        12.8310   -4.2340   21.3140 C.3   218  VAL218      0.0266
     84  CG1       12.5530   -5.7480   21.3120 C.3   218  VAL218      0.0020
     85  CG2       11.5330   -3.4630   21.5030 C.3   218  VAL218      0.0020
     86  N         15.4640   -5.4620   23.2730 N.am  219  SER219     -0.1938
     87  CA        16.7410   -6.1600   23.2780 C.3   219  SER219      0.2055
     88  C         16.6170   -7.6910   23.2630 C.2   219  SER219      0.2643
     89  O         16.9800   -8.3350   22.2790 O.2   219  SER219     -0.2714
     90  CB        17.6210   -5.6680   24.4410 C.3   219  SER219      0.2130
     91  OG        18.9040   -6.2860   24.4240 O.3   219  SER219     -0.2179
     92  N         16.1170   -8.2850   24.3390 N.am  220  TRP220     -0.1959
     93  CA        16.0870   -9.7440   24.3960 C.3   220  TRP220      0.1771
     94  C         15.0180  -10.2980   25.3250 C.2   220  TRP220      0.2620
     95  O         14.5180   -9.6060   26.2230 O.2   220  TRP220     -0.2715
     96  CB        17.4630  -10.3210   24.7670 C.3   220  TRP220      0.0590
     97  CG        17.9670   -9.9680   26.1410 C.ar  220  TRP220      0.0006
     98  CD1       18.6900   -8.8620   26.4920 C.ar  220  TRP220      0.0946
     99  CD2       17.8040  -10.7400   27.3400 C.ar  220  TRP220      0.0152
    100  NE1       18.9920   -8.9030   27.8320 N.ar  220  TRP220     -0.2442
    101  CE2       18.4560  -10.0410   28.3790 C.ar  220  TRP220      0.0810
    102  CE3       17.1700  -11.9530   27.6350 C.ar  220  TRP220      0.0012
    103  CZ2       18.4910  -10.5130   29.6970 C.ar  220  TRP220      0.0191
    104  CZ3       17.2060  -12.4220   28.9450 C.ar  220  TRP220      0.0001
    105  CH2       17.8640  -11.7030   29.9580 C.ar  220  TRP220      0.0015
    106  N         14.6860  -11.5610   25.0930 N.am  221  GLY221     -0.1954
    107  CA        13.7500  -12.2800   25.9240 C.3   221  GLY221      0.1869
    108  C         13.8780  -13.7630   25.6470 C.2   221  GLY221      0.2309
    109  O         14.1970  -14.1850   24.5280 O.2   221  GLY221     -0.2863
    110  N         12.3010  -16.6220   24.5790 N.3   223  GLY223     -0.1210
    111  CA        11.0540  -16.8440   23.8700 C.3   223  GLY223      0.1956
    112  C         10.3120  -15.5310   23.6850 C.2   223  GLY223      0.2612
    113  O         10.9230  -14.4610   23.6970 O.2   223  GLY223     -0.2717
    114  N          8.9950  -15.6120   23.5190 N.am  224  CYS224     -0.1970
    115  CA         8.1460  -14.4210   23.4120 C.3   224  CYS224      0.1712
    116  C          6.8980  -14.6380   24.2490 C.2   224  CYS224      0.2296
    117  O          6.2150  -15.6540   24.0950 O.2   224  CYS224     -0.2864
    118  CB         7.7200  -14.1540   21.9610 C.3   224  CYS224      0.0983
    119  SG         9.0570  -14.0840   20.7590 S.3   224  CYS224     -0.0798
    120  N         10.4430   -9.2000   28.9830 N.3   231  GLY231     -0.1210
    121  CA        11.2370   -8.6260   27.9220 C.3   231  GLY231      0.1956
    122  C         12.2950   -7.7370   28.5400 C.2   231  GLY231      0.2612
    123  O         12.0310   -7.0330   29.5180 O.2   231  GLY231     -0.2717
    124  N         13.4970   -7.7770   27.9810 N.am  232  PHE232     -0.1962
    125  CA        14.5910   -6.9420   28.4560 C.3   232  PHE232      0.1771
    126  C         14.9340   -5.8620   27.4390 C.2   232  PHE232      0.2619
    127  O         14.9850   -6.1160   26.2210 O.2   232  PHE232     -0.2715
    128  CB        15.8020   -7.8010   28.7930 C.3   232  PHE232      0.0574
    129  CG        15.6370   -8.5590   30.0660 C.ar  232  PHE232     -0.0200
    130  CD1       14.9120   -9.7400   30.0920 C.ar  232  PHE232     -0.0042
    131  CD2       16.1840   -8.0780   31.2500 C.ar  232  PHE232     -0.0042
    132  CE1       14.7310  -10.4290   31.2780 C.ar  232  PHE232     -0.0003
    133  CE2       16.0150   -8.7700   32.4400 C.ar  232  PHE232     -0.0003
    134  CZ        15.2910   -9.9510   32.4510 C.ar  232  PHE232     -0.0000
    135  N         15.1400   -4.6510   27.9580 N.am  233  TYR233     -0.1974
    136  CA        15.2690   -3.4500   27.1470 C.3   233  TYR233      0.1639
    137  C         16.5630   -2.7250   27.5020 C.2   233  TYR233      0.2290
    138  O         16.9180   -2.6030   28.6760 O.2   233  TYR233     -0.2864
    139  CB        14.0580   -2.5290   27.3810 C.3   233  TYR233      0.0560
    140  CG        12.7690   -3.1840   26.9580 C.ar  233  TYR233     -0.0198
    141  CD1       12.0980   -4.0640   27.8040 C.ar  233  TYR233     -0.0009
    142  CD2       12.2480   -2.9740   25.6830 C.ar  233  TYR233     -0.0009
    143  CE1       10.9370   -4.6950   27.3980 C.ar  233  TYR233      0.0417
    144  CE2       11.0910   -3.6030   25.2720 C.ar  233  TYR233      0.0417
    145  CZ        10.4410   -4.4620   26.1290 C.ar  233  TYR233      0.1957
    146  OH         9.2900   -5.0980   25.7250 O.3   233  TYR233     -0.2866
@<TRIPOS>BOND
     1    26    25    2
     2    25    24    1
     3    72    70   ar
     4    24    27    1
     5    24    23    1
     6    27    28    1
     7    70    69    1
     8    70    71   ar
     9    69    68    1
    10    14    13    2
    11    67    66    2
    12    11    12    1
    13    28    30   ar
    14    28    29   ar
    15    33    30   ar
    16    33    35   ar
    17    13    12    1
    18    66    65    1
    19     4     3    2
    20    30    32   ar
    21    68    65    1
    22    29    31   ar
    23    12    15    1
    24    35    36   ar
    25    76    75    2
    26    15    16    1
    27     3     2    1
    28    65    64    1
    29    32    31   ar
    30    32    34   ar
    31    18    16   ar
    32    18    20   ar
    33    36    34   ar
    34    77    74    1
    35    77    78    1
    36    75    74    1
    37    16    17   ar
    38    73    74    1
    39     2     1    1
    40     2     5    1
    41    64    60   am
    42     8    10   ar
    43     8     6   ar
    44    61    60    2
    45    20    21   ar
    46    60    59    1
    47    10     9   ar
    48     5     6    1
    49    17    19   ar
    50     6     7   ar
    51    63    62    1
    52    63   119    1
    53    62    59    1
    54    59    58    1
    55     9     7   ar
    56    21    19   ar
    57    21    22    1
    58    58    55   am
    59   119   118    1
    60    82    81    2
    61    84    83    1
    62    83    85    1
    63    83    80    1
    64    55    54    1
    65    55    56    2
    66    54    57    1
    67    54    53    1
    68   118   115    1
    69    81    80    1
    70    81    86   am
    71    89    88    2
    72    79    80    1
    73    48    47    2
    74    44    42    1
    75    43    42    1
    76    53    47   am
    77    88    87    1
    78    88    92   am
    79    86    87    1
    80    87    90    1
    81    47    46    1
    82   115   114    1
    83   115   116    1
    84   114   112   am
    85    42    41    1
    86   112   113    2
    87   112   111    1
    88   111   110    1
    89   117   116    2
    90    92    93    1
    91    93    96    1
    92    93    94    1
    93    91    90    1
    94   109   108    2
    95    41    38    1
    96    96    97    1
    97    46    45    1
    98    46    49    1
    99    49    50    1
   100   106    94   am
   101   106   107    1
   102    38    37    1
   103    38    39    1
   104   144   142   ar
   105   144   145   ar
   106    94    95    2
   107    50    52   ar
   108    50    51   ar
   109   108   107    1
   110   142   140   ar
   111   146   145    1
   112    40    39    2
   113   145   143   ar
   114    97    98   ar
   115    97    99   ar
   116   127   126    2
   117    98   100   ar
   118   140   139    1
   119   140   141   ar
   120   136   139    1
   121   136   137    1
   122   136   135    1
   123    99   102   ar
   124    99   101   ar
   125   143   141   ar
   126   126   135   am
   127   126   125    1
   128   137   138    2
   129   102   104   ar
   130   100   101   ar
   131   121   122    1
   132   121   120    1
   133   124   125    1
   134   124   122   am
   135   101   103   ar
   136   125   128    1
   137   122   123    2
   138   128   129    1
   139   104   105   ar
   140   103   105   ar
   141   129   130   ar
   142   129   131   ar
   143   130   132   ar
   144   131   133   ar
   145   132   134   ar
   146   133   134   ar
