@<TRIPOS>MOLECULE
tmp/3t5iA00.pdb
 184 169 0 0 0
SMALL
GASTEIGER

@<TRIPOS>ATOM
      1  N         11.1010    6.0140   29.6090 N.3    14  LEU14      -0.1245
      2  CA        11.3020    6.3170   28.1880 C.3    14  LEU14       0.1561
      3  C         10.1080    7.1550   27.8170 C.2    14  LEU14       0.2260
      4  O          8.9690    6.6750   27.8850 O.2    14  LEU14      -0.2867
      5  CB        11.2850    5.0230   27.3680 C.3    14  LEU14       0.0270
      6  CG        11.9900    4.8450   26.0060 C.3    14  LEU14       0.0019
      7  CD1       11.0810    4.1180   24.9960 C.3    14  LEU14       0.0001
      8  CD2       12.5390    6.1310   25.4140 C.3    14  LEU14       0.0001
      9  N         10.3830    7.6710   21.4360 N.3    17  MET17      -0.1245
     10  CA        11.4280    7.2410   20.5080 C.3    17  MET17       0.1570
     11  C         10.9810    7.6020   19.0870 C.2    17  MET17       0.2261
     12  O          9.7870    7.5120   18.7620 O.2    17  MET17      -0.2867
     13  CB        11.6490    5.7350   20.6830 C.3    17  MET17       0.0387
     14  CG        12.5170    4.9860   19.6690 C.3    17  MET17       0.0595
     15  SD        12.4070    3.2010   20.0610 S.3    17  MET17      -0.1393
     16  CE        10.8940    3.2320   21.0000 C.3    17  MET17       0.0692
     17  N         12.2880    7.0840   14.8640 N.3    19  LEU19      -0.1245
     18  CA        13.1590    6.4450   13.9050 C.3    19  LEU19       0.1561
     19  C         13.1330    7.2680   12.6320 C.2    19  LEU19       0.2260
     20  O         12.0540    7.5700   12.0880 O.2    19  LEU19      -0.2867
     21  CB        12.6680    5.0270   13.6120 C.3    19  LEU19       0.0270
     22  CG        12.6560    3.9880   14.7330 C.3    19  LEU19       0.0019
     23  CD1       11.9450    2.7090   14.2460 C.3    19  LEU19       0.0001
     24  CD2       14.1000    3.6710   15.2040 C.3    19  LEU19       0.0001
     25  N          8.8870    6.8000   11.9000 N.3    29  TRP29      -0.1241
     26  CA         8.0130    6.2850   12.9420 C.3    29  TRP29       0.1605
     27  C          8.2920    7.0440   14.2180 C.2    29  TRP29       0.2264
     28  O          9.4460    7.3860   14.5050 O.2    29  TRP29      -0.2867
     29  CB         8.2530    4.7880   13.1750 C.3    29  TRP29       0.0550
     30  CG         7.4300    4.1720   14.2990 C.ar   29  TRP29       0.0003
     31  CD1        6.1320    3.7240   14.2220 C.ar   29  TRP29       0.0946
     32  CD2        7.8610    3.9100   15.6450 C.ar   29  TRP29       0.0152
     33  NE1        5.7300    3.2200   15.4380 N.ar   29  TRP29      -0.2442
     34  CE2        6.7660    3.3250   16.3290 C.ar   29  TRP29       0.0810
     35  CE3        9.0540    4.1490   16.3520 C.ar   29  TRP29       0.0012
     36  CZ2        6.8310    2.9540   17.6830 C.ar   29  TRP29       0.0191
     37  CZ3        9.1180    3.7780   17.7030 C.ar   29  TRP29       0.0001
     38  CH2        8.0100    3.1870   18.3490 C.ar   29  TRP29       0.0015
     39  N          8.5350    1.8700   26.4450 N.3    35  LEU35      -0.1245
     40  CA         9.0090    0.5360   26.0840 C.3    35  LEU35       0.1561
     41  C         10.0650    0.0010   27.0450 C.2    35  LEU35       0.2260
     42  O         10.6160   -1.0660   26.8270 O.2    35  LEU35      -0.2867
     43  CB         9.5070    0.5010   24.6220 C.3    35  LEU35       0.0270
     44  CG         8.5180    0.9990   23.5570 C.3    35  LEU35       0.0019
     45  CD1        9.0230    0.7900   22.1250 C.3    35  LEU35       0.0001
     46  CD2        7.1500    0.3220   23.7240 C.3    35  LEU35       0.0001
     47  N          5.0370   -2.3790   18.3650 N.3    44  ALA44      -0.1245
     48  CA         5.2570   -1.2120   17.5280 C.3    44  ALA44       0.1562
     49  C          4.8390   -1.5450   16.0980 C.2    44  ALA44       0.2260
     50  O          5.2170   -2.5980   15.5470 O.2    44  ALA44      -0.2867
     51  CB         6.7180   -0.7770   17.5660 C.3    44  ALA44       0.0290
     52  N          5.4840   -0.2970   12.6790 N.3    46  VAL46      -0.1245
     53  CA         6.3760    0.5670   11.9130 C.3    46  VAL46       0.1561
     54  C          6.0760    0.4930   10.4090 C.2    46  VAL46       0.2260
     55  O          5.7640   -0.5770    9.8980 O.2    46  VAL46      -0.2867
     56  CB         7.9000    0.2980   12.2570 C.3    46  VAL46       0.0252
     57  CG1        8.1050    0.2610   13.7880 C.3    46  VAL46       0.0019
     58  CG2        8.4050   -0.9930   11.6430 C.3    46  VAL46       0.0019
     59  N         10.4690    1.2340    6.0560 N.3    50  ILE50      -0.1245
     60  CA        11.6990    1.1530    6.8520 C.3    50  ILE50       0.1561
     61  C         12.6410    0.0790    6.3020 C.2    50  ILE50       0.2260
     62  O         13.8620    0.2080    6.4010 O.2    50  ILE50      -0.2867
     63  CB        11.4180    0.9000    8.3470 C.3    50  ILE50       0.0252
     64  CG1       12.7080    1.0100    9.1590 C.3    50  ILE50       0.0019
     65  CG2       10.7860   -0.4660    8.5710 C.3    50  ILE50       0.0019
     66  CD1       12.4580    1.2800   10.6450 C.3    50  ILE50       0.0001
     67  N         19.1810    3.6090    9.8130 N.3    56  VAL56      -0.1245
     68  CA        18.1250    4.2700   10.5620 C.3    56  VAL56       0.1561
     69  C         18.7650    4.9830   11.7350 C.2    56  VAL56       0.2260
     70  O         19.5820    4.4040   12.4570 O.2    56  VAL56      -0.2867
     71  CB        17.0590    3.2440   11.0440 C.3    56  VAL56       0.0252
     72  CG1       16.1600    3.8320   12.1380 C.3    56  VAL56       0.0019
     73  CG2       16.2170    2.7890    9.8520 C.3    56  VAL56       0.0019
     74  N         18.0360    6.2640   15.2890 N.3    58  ARG58      -0.1245
     75  CA        17.0930    6.1000   16.3930 C.3    58  ARG58       0.1563
     76  C         17.3660    7.1800   17.4460 C.2    58  ARG58       0.2260
     77  O         18.5140    7.3310   17.9310 O.2    58  ARG58      -0.2867
     78  CB        17.2070    4.7020   17.0130 C.3    58  ARG58       0.0307
     79  CG        16.1990    4.4410   18.1600 C.3    58  ARG58       0.0489
     80  CD        16.3790    3.0750   18.8290 C.3    58  ARG58       0.2205
     81  NE        17.6400    2.9710   19.5810 N.pl3  58  ARG58      -0.0865
     82  CZ        18.1790    1.8120   19.9470 C.cat  58  ARG58       0.5346
     83  NH1       17.5730    0.6710   19.6240 N.pl3  58  ARG58       0.1354
     84  NH2       19.3200    1.7880   20.6220 N.pl3  58  ARG58       0.1354
     85  N         16.2280    8.1980   21.1520 N.3    60  LEU60      -0.1245
     86  CA        15.4800    7.8750   22.3770 C.3    60  LEU60       0.1561
     87  C         15.5030    9.0450   23.3230 C.2    60  LEU60       0.2260
     88  O         16.5170    9.7110   23.4540 O.2    60  LEU60      -0.2867
     89  CB        16.0730    6.6730   23.1210 C.3    60  LEU60       0.0270
     90  CG        16.3020    5.3630   22.3790 C.3    60  LEU60       0.0019
     91  CD1       17.1700    4.4560   23.2190 C.3    60  LEU60       0.0001
     92  CD2       14.9700    4.6700   22.1200 C.3    60  LEU60       0.0001
     93  N         22.4490   -0.4550   26.6580 N.3    73  LEU73      -0.1245
     94  CA        21.4490   -1.4240   26.2280 C.3    73  LEU73       0.1561
     95  C         22.1240   -2.6250   25.5820 C.2    73  LEU73       0.2260
     96  O         23.1230   -2.4640   24.8670 O.2    73  LEU73      -0.2867
     97  CB        20.5080   -0.7820   25.1970 C.3    73  LEU73       0.0270
     98  CG        19.7830    0.5290   25.4890 C.3    73  LEU73       0.0019
     99  CD1       18.9640    0.9000   24.2640 C.3    73  LEU73       0.0001
    100  CD2       18.8620    0.3940   26.7250 C.3    73  LEU73       0.0001
    101  N         20.4870   -5.3960   23.0670 N.3    75  GLN75      -0.1245
    102  CA        19.2270   -5.7600   22.4460 C.3    75  GLN75       0.1566
    103  C         19.4340   -6.9830   21.5780 C.2    75  GLN75       0.2260
    104  O         20.4730   -7.1000   20.9110 O.2    75  GLN75      -0.2867
    105  CB        18.6660   -4.5910   21.6480 C.3    75  GLN75       0.0367
    106  CG        18.5600   -3.3040   22.4760 C.3    75  GLN75       0.0905
    107  CD        17.9830   -2.1610   21.6910 C.2    75  GLN75       0.2608
    108  OE1       18.6760   -1.5350   20.9000 O.2    75  GLN75      -0.2717
    109  NE2       16.7090   -1.8810   21.9000 N.am   75  GLN75      -0.0878
    110  N         22.5780   -6.2340   19.4660 N.3    87  TRP87      -0.1241
    111  CA        23.0160   -4.8460   19.4370 C.3    87  TRP87       0.1605
    112  C         23.5070   -4.4000   20.8080 C.2    87  TRP87       0.2264
    113  O         22.9340   -4.7390   21.8400 O.2    87  TRP87      -0.2867
    114  CB        21.8820   -3.8920   19.0120 C.3    87  TRP87       0.0550
    115  CG        21.1570   -4.2000   17.7260 C.ar   87  TRP87       0.0003
    116  CD1       21.6130   -4.9360   16.6780 C.ar   87  TRP87       0.0946
    117  CD2       19.8480   -3.7210   17.3390 C.ar   87  TRP87       0.0152
    118  NE1       20.6680   -4.9620   15.6680 N.ar   87  TRP87      -0.2442
    119  CE2       19.5780   -4.2250   16.0550 C.ar   87  TRP87       0.0810
    120  CE3       18.8800   -2.9250   17.9660 C.ar   87  TRP87       0.0012
    121  CZ2       18.3720   -3.9640   15.3780 C.ar   87  TRP87       0.0191
    122  CZ3       17.6810   -2.6680   17.2930 C.ar   87  TRP87       0.0001
    123  CH2       17.4440   -3.1880   16.0110 C.ar   87  TRP87       0.0015
    124  N         21.4650    2.5310   13.4310 N.3   106  ILE106     -0.1245
    125  CA        21.3060    1.0970   13.2290 C.3   106  ILE106      0.1561
    126  C         21.3960    0.8550   11.7240 C.2   106  ILE106      0.2260
    127  O         20.6650    1.4730   10.9520 O.2   106  ILE106     -0.2867
    128  CB        19.9710    0.5860   13.7880 C.3   106  ILE106      0.0252
    129  CG1       19.7750    1.0430   15.2470 C.3   106  ILE106      0.0019
    130  CG2       19.8860   -0.9430   13.6940 C.3   106  ILE106      0.0019
    131  CD1       18.3470    0.8530   15.7510 C.3   106  ILE106      0.0001
    132  N         12.1210   -7.5920   19.5300 N.3   121  ILE121     -0.1245
    133  CA        13.3260   -7.0030   20.0880 C.3   121  ILE121      0.1561
    134  C         13.2320   -7.0930   21.5910 C.2   121  ILE121      0.2260
    135  O         12.2870   -6.5790   22.1940 O.2   121  ILE121     -0.2867
    136  CB        13.4930   -5.5480   19.6530 C.3   121  ILE121      0.0252
    137  CG1       13.5270   -5.4790   18.1130 C.3   121  ILE121      0.0019
    138  CG2       14.7370   -4.9200   20.3100 C.3   121  ILE121      0.0019
    139  CD1       13.6050   -4.0820   17.5660 C.3   121  ILE121      0.0001
    140  N         15.1000   -6.0120   24.9970 N.3   123  THR123     -0.1218
    141  CA        16.0530   -5.0040   25.4500 C.3   123  THR123      0.1862
    142  C         16.3760   -5.1750   26.9300 C.2   123  THR123      0.2287
    143  O         15.4730   -5.2440   27.7550 O.2   123  THR123     -0.2866
    144  CB        15.5110   -3.5780   25.1930 C.3   123  THR123      0.1770
    145  OG1       15.1970   -3.4110   23.7940 O.3   123  THR123     -0.2211
    146  CG2       16.5090   -2.5180   25.6500 C.3   123  THR123      0.0375
    147  N         18.1990   -3.2530   29.9770 N.3   125  PHE125     -0.1241
    148  CA        18.5840   -1.9120   30.3700 C.3   125  PHE125      0.1605
    149  C         19.5600   -2.0840   31.5260 C.2   125  PHE125      0.2264
    150  O         19.1980   -2.6340   32.5760 O.2   125  PHE125     -0.2867
    151  CB        17.3430   -1.1080   30.8140 C.3   125  PHE125      0.0534
    152  CG        16.3630   -0.8060   29.6860 C.ar  125  PHE125     -0.0203
    153  CD1       16.3410    0.4500   29.0860 C.ar  125  PHE125     -0.0042
    154  CD2       15.4540   -1.7750   29.2430 C.ar  125  PHE125     -0.0042
    155  CE1       15.4470    0.7340   28.0360 C.ar  125  PHE125     -0.0003
    156  CE2       14.5530   -1.5020   28.2120 C.ar  125  PHE125     -0.0003
    157  CZ        14.5530   -0.2450   27.6000 C.ar  125  PHE125     -0.0000
    158  N          9.4630   -5.9000   22.7130 N.3   137  VAL137     -0.1245
    159  CA         8.5990   -5.2100   21.7700 C.3   137  VAL137      0.1561
    160  C          8.4150   -6.1310   20.5570 C.2   137  VAL137      0.2260
    161  O          9.4060   -6.5610   19.9390 O.2   137  VAL137     -0.2867
    162  CB         9.2100   -3.8590   21.2850 C.3   137  VAL137      0.0252
    163  CG1        8.1770   -3.0680   20.4780 C.3   137  VAL137      0.0019
    164  CG2        9.6800   -3.0310   22.4460 C.3   137  VAL137      0.0019
    165  N          7.3690   -6.4330   16.7340 N.3   139  LEU139     -0.1245
    166  CA         7.2460   -5.4620   15.6500 C.3   139  LEU139      0.1561
    167  C          6.3130   -5.9320   14.5460 C.2   139  LEU139      0.2260
    168  O          6.4150   -7.0700   14.0690 O.2   139  LEU139     -0.2867
    169  CB         8.5900   -5.1250   15.0050 C.3   139  LEU139      0.0270
    170  CG         9.7680   -4.6080   15.8290 C.3   139  LEU139      0.0019
    171  CD1       10.8790   -4.3020   14.8220 C.3   139  LEU139      0.0001
    172  CD2        9.3980   -3.3730   16.6430 C.3   139  LEU139      0.0001
    173  N          5.1680   -4.5820   10.6300 N.3   141  TYR141     -0.1241
    174  CA         5.5620   -3.7290    9.5080 C.3   141  TYR141      0.1605
    175  C          4.3230   -3.4930    8.6650 C.2   141  TYR141      0.2264
    176  O          3.7850   -4.4350    8.0990 O.2   141  TYR141     -0.2867
    177  CB         6.6330   -4.4110    8.6670 C.3   141  TYR141      0.0534
    178  CG         7.9370   -4.5940    9.4000 C.ar  141  TYR141     -0.0201
    179  CD1        8.9780   -3.6770    9.2330 C.ar  141  TYR141     -0.0009
    180  CD2        8.1270   -5.6640   10.2790 C.ar  141  TYR141     -0.0009
    181  CE1       10.1730   -3.8260    9.9150 C.ar  141  TYR141      0.0417
    182  CE2        9.3210   -5.8110   10.9730 C.ar  141  TYR141      0.0417
    183  CZ        10.3380   -4.8800   10.7810 C.ar  141  TYR141      0.1957
    184  OH        11.5400   -5.0170   11.4320 O.3   141  TYR141     -0.2866
@<TRIPOS>BOND
     1    59    60    1
     2    61    62    2
     3    61    60    1
     4    60    63    1
     5   176   175    2
     6    63    65    1
     7    63    64    1
     8   175   174    1
     9   177   178    1
    10   177   174    1
    11    64    66    1
    12   179   178   ar
    13   179   181   ar
    14   178   180   ar
    15   174   173    1
    16    67    68    1
    17    73    71    1
    18    55    54    2
    19   181   183   ar
    20   180   182   ar
    21    54    53    1
    22    68    71    1
    23    68    69    1
    24   183   182   ar
    25   183   184    1
    26   127   126    2
    27    71    72    1
    28    58    56    1
    29   126   125    1
    30    69    70    2
    31    25    26    1
    32    53    56    1
    33    53    52    1
    34    20    19    2
    35    56    57    1
    36    19    18    1
    37    26    29    1
    38    26    27    1
    39    29    30    1
    40   125   124    1
    41   125   128    1
    42    21    18    1
    43    21    22    1
    44   130   128    1
    45   128   129    1
    46    18    17    1
    47   168   167    2
    48    27    28    2
    49    31    30   ar
    50    31    33   ar
    51    23    22    1
    52    30    32   ar
    53   167   166    1
    54    22    24    1
    55   171   170    1
    56   169   166    1
    57   169   170    1
    58   129   131    1
    59    74    75    1
    60   121   123   ar
    61   121   119   ar
    62    33    34   ar
    63    50    49    2
    64    32    34   ar
    65    32    35   ar
    66   166   165    1
    67   118   119   ar
    68   118   116   ar
    69   170   172    1
    70   123   122   ar
    71   119   117   ar
    72    49    48    1
    73    34    36   ar
    74    35    37   ar
    75    75    78    1
    76    75    76    1
    77   116   115   ar
    78    78    79    1
    79   122   120   ar
    80   117   115   ar
    81   117   120   ar
    82    76    77    2
    83    48    51    1
    84    48    47    1
    85   139   137    1
    86    36    38   ar
    87    37    38   ar
    88   115   114    1
    89   137   136    1
    90    79    80    1
    91    12    11    2
    92    80    81    1
    93   114   111    1
    94    11    10    1
    95   111   110    1
    96   111   112    1
    97   132   133    1
    98    81    82    2
    99    83    82    1
   100   136   133    1
   101   136   138    1
   102    14    15    1
   103    14    13    1
   104   161   160    2
   105    82    84    1
   106    15    16    1
   107   133   134    1
   108   163   162    1
   109    10    13    1
   110    10     9    1
   111   160   159    1
   112   112   113    2
   113   108   107    2
   114   104   103    2
   115    85    86    1
   116   162   159    1
   117   162   164    1
   118   103   102    1
   119   134   135    2
   120   105   102    1
   121   105   106    1
   122   107   109   am
   123   107   106    1
   124   159   158    1
   125    92    90    1
   126    45    44    1
   127    86    89    1
   128    86    87    1
   129    90    89    1
   130    90    91    1
   131   102   101    1
   132    87    88    2
   133    44    46    1
   134    44    43    1
   135   145   144    1
   136    99    98    1
   137    43    40    1
   138    96    95    2
   139     7     6    1
   140   140   141    1
   141   144   141    1
   142   144   146    1
   143    97    98    1
   144    97    94    1
   145     8     6    1
   146   141   142    1
   147    98   100    1
   148    95    94    1
   149     6     5    1
   150    40    39    1
   151    40    41    1
   152    94    93    1
   153    42    41    2
   154   142   143    2
   155     5     2    1
   156   157   155   ar
   157   157   156   ar
   158     3     4    2
   159     3     2    1
   160   155   153   ar
   161     2     1    1
   162   156   154   ar
   163   153   152   ar
   164   154   152   ar
   165   152   151    1
   166   147   148    1
   167   148   151    1
   168   148   149    1
   169   149   150    2
