@<TRIPOS>MOLECULE
tmp/3t5iB00.pdb
 146 135 0 0 0
SMALL
GASTEIGER

@<TRIPOS>ATOM
      1  N         42.9060  -13.1750   26.1910 N.3    21  LEU21      -0.1245
      2  CA        42.1760  -12.0690   25.5840 C.3    21  LEU21       0.1561
      3  C         41.9770  -11.0900   26.6960 C.2    21  LEU21       0.2260
      4  O         41.5030  -11.4760   27.7660 O.2    21  LEU21      -0.2867
      5  CB        40.8130  -12.5330   25.0570 C.3    21  LEU21       0.0270
      6  CG        40.9460  -13.5440   23.9240 C.3    21  LEU21       0.0019
      7  CD1       39.5710  -14.1310   23.5680 C.3    21  LEU21       0.0001
      8  CD2       41.6120  -12.8710   22.6980 C.3    21  LEU21       0.0001
      9  N         32.8010  -11.2320   25.7570 N.3    52  ILE52      -0.1231
     10  CA        33.7700  -10.7530   24.7770 C.3    52  ILE52       0.1692
     11  C         33.1320   -9.9260   23.6400 C.2    52  ILE52       0.2591
     12  O         33.6650   -8.9020   23.2200 O.2    52  ILE52      -0.2718
     13  CB        34.6760  -11.9200   24.2340 C.3    52  ILE52       0.0266
     14  CG1       35.8720  -11.3730   23.4540 C.3    52  ILE52       0.0019
     15  CG2       33.9060  -12.9100   23.4030 C.3    52  ILE52       0.0020
     16  CD1       36.9610  -10.8740   24.3610 C.3    52  ILE52       0.0001
     17  N         31.9720  -10.3540   23.1690 N.am   53  LEU53      -0.1980
     18  CA        31.3590   -9.7480   21.9830 C.3    53  LEU53       0.1596
     19  C         30.9530   -8.2700   22.1610 C.2    53  LEU53       0.2287
     20  O         30.8320   -7.5260   21.1710 O.2    53  LEU53      -0.2864
     21  CB        30.1760  -10.6010   21.5250 C.3    53  LEU53       0.0297
     22  CG        30.6230  -11.9940   21.0620 C.3    53  LEU53       0.0022
     23  CD1       29.4750  -12.9690   21.1220 C.3    53  LEU53       0.0001
     24  CD2       31.2230  -11.9410   19.6620 C.3    53  LEU53       0.0001
     25  N         32.8130   -6.2340   24.2120 N.3    55  CYS55      -0.1235
     26  CA        34.0270   -5.5030   24.5790 C.3    55  CYS55       0.1677
     27  C         34.4430   -4.5920   23.4230 C.2    55  CYS55       0.2270
     28  O         34.5670   -5.0410   22.2810 O.2    55  CYS55      -0.2867
     29  CB        35.1690   -6.4560   24.9570 C.3    55  CYS55       0.0956
     30  SG        36.7040   -5.5730   25.3550 S.3    55  CYS55      -0.0801
     31  N         39.6340   -5.4380   22.1470 N.3    58  VAL58      -0.1245
     32  CA        40.1750   -6.6790   22.6850 C.3    58  VAL58       0.1561
     33  C         41.6000   -6.8500   22.1940 C.2    58  VAL58       0.2260
     34  O         41.8370   -6.9410   20.9870 O.2    58  VAL58      -0.2867
     35  CB        39.3500   -7.9080   22.2510 C.3    58  VAL58       0.0252
     36  CG1       39.9460   -9.2010   22.8430 C.3    58  VAL58       0.0019
     37  CG2       37.9050   -7.7450   22.6670 C.3    58  VAL58       0.0019
     38  N         44.9100   -9.3140   22.0530 N.3    60  ARG60      -0.1245
     39  CA        45.2800  -10.7220   22.0950 C.3    60  ARG60       0.1563
     40  C         46.7000  -10.8690   22.6200 C.2    60  ARG60       0.2260
     41  O         47.6530  -10.4430   21.9670 O.2    60  ARG60      -0.2867
     42  CB        45.2120  -11.3250   20.6930 C.3    60  ARG60       0.0307
     43  CG        43.8820  -11.1100   20.0050 C.3    60  ARG60       0.0489
     44  CD        43.9920  -10.0040   18.9580 C.3    60  ARG60       0.2205
     45  NE        42.7740   -9.9390   18.1540 N.pl3  60  ARG60      -0.0865
     46  CZ        42.4400  -10.8580   17.2410 C.cat  60  ARG60       0.5346
     47  NH1       43.2240  -11.9180   17.0070 N.pl3  60  ARG60       0.1354
     48  NH2       41.3150  -10.7050   16.5700 N.pl3  60  ARG60       0.1354
     49  N         39.1800  -17.0240    9.9340 N.3    79  VAL79      -0.1245
     50  CA        38.0570  -17.3100   10.8170 C.3    79  VAL79       0.1561
     51  C         36.9350  -17.8140    9.9240 C.2    79  VAL79       0.2260
     52  O         36.5080  -17.1170    9.0120 O.2    79  VAL79      -0.2867
     53  CB        37.6160  -16.0370   11.5670 C.3    79  VAL79       0.0252
     54  CG1       36.4230  -16.3070   12.4830 C.3    79  VAL79       0.0019
     55  CG2       38.7740  -15.4540   12.3620 C.3    79  VAL79       0.0019
     56  N         34.7800  -15.7440    7.3060 N.3    86  LEU86      -0.1231
     57  CA        34.1650  -14.5640    7.8700 C.3    86  LEU86       0.1693
     58  C         35.1310  -13.3750    7.8570 C.2    86  LEU86       0.2591
     59  O         34.7390  -12.2580    7.5380 O.2    86  LEU86      -0.2718
     60  CB        33.7330  -14.8900    9.3070 C.3    86  LEU86       0.0284
     61  CG        32.7000  -14.0450   10.0540 C.3    86  LEU86       0.0019
     62  CD1       31.2790  -14.3130    9.5340 C.3    86  LEU86       0.0001
     63  CD2       32.7880  -14.3570   11.5460 C.3    86  LEU86       0.0001
     64  N         36.3950  -13.6170    8.2030 N.am   87  GLU87      -0.1979
     65  CA        37.3730  -12.5390    8.3840 C.3    87  GLU87       0.1602
     66  C         38.7840  -13.1160    8.4400 C.2    87  GLU87       0.2287
     67  O         38.9750  -14.3000    8.7140 O.2    87  GLU87      -0.2864
     68  CB        37.0760  -11.6990    9.6560 C.3    87  GLU87       0.0415
     69  CG        37.1500  -12.5170   10.9400 C.3    87  GLU87       0.1163
     70  CD        36.5080  -11.8830   12.1780 C.2    87  GLU87       0.3649
     71  OE1       36.5330  -10.6420   12.3440 O.co2  87  GLU87      -0.2457
     72  OE2       36.0010  -12.6650   13.0180 O.co2  87  GLU87      -0.2457
     73  N         42.9090  -12.2620    9.7570 N.3    89  TRP89      -0.1241
     74  CA        43.7880  -11.4150   10.5490 C.3    89  TRP89       0.1605
     75  C         45.2340  -11.7820   10.2380 C.2    89  TRP89       0.2264
     76  O         45.5620  -12.9630   10.0450 O.2    89  TRP89      -0.2867
     77  CB        43.5220  -11.5850   12.0550 C.3    89  TRP89       0.0550
     78  CG        42.1030  -11.3190   12.5250 C.ar   89  TRP89       0.0003
     79  CD1       41.2850  -10.2640   12.1820 C.ar   89  TRP89       0.0946
     80  CD2       41.3680  -12.0920   13.4880 C.ar   89  TRP89       0.0152
     81  NE1       40.0760  -10.3660   12.8550 N.ar   89  TRP89      -0.2442
     82  CE2       40.1080  -11.4720   13.6610 C.ar   89  TRP89       0.0810
     83  CE3       41.6510  -13.2560   14.2120 C.ar   89  TRP89       0.0012
     84  CZ2       39.1300  -11.9900   14.5270 C.ar   89  TRP89       0.0191
     85  CZ3       40.6790  -13.7620   15.0730 C.ar   89  TRP89       0.0001
     86  CH2       39.4360  -13.1290   15.2220 C.ar   89  TRP89       0.0015
     87  N         31.9030   -2.4630   17.2680 N.3   113  GLU113     -0.1245
     88  CA        30.7600   -2.8100   16.4300 C.3   113  GLU113      0.1567
     89  C         29.5380   -2.9500   17.3270 C.2   113  GLU113      0.2260
     90  O         29.5270   -3.7730   18.2500 O.2   113  GLU113     -0.2867
     91  CB        30.9830   -4.1300   15.6790 C.3   113  GLU113      0.0388
     92  CG        32.3030   -4.2550   14.9370 C.3   113  GLU113      0.1160
     93  CD        32.7040   -5.7140   14.7430 C.2   113  GLU113      0.3649
     94  OE1       33.5900   -6.1990   15.5060 O.co2 113  GLU113     -0.2457
     95  OE2       32.1130   -6.3760   13.8500 O.co2 113  GLU113     -0.2457
     96  N         26.2660   -7.1990   16.2230 N.3   116  MET116     -0.1230
     97  CA        27.0590   -8.4250   16.2610 C.3   116  MET116      0.1702
     98  C         26.1880   -9.6390   16.0210 C.2   116  MET116      0.2592
     99  O         24.9800   -9.6180   16.2770 O.2   116  MET116     -0.2718
    100  CB        27.6840   -8.6160   17.6560 C.3   116  MET116      0.0401
    101  CG        28.6040   -7.4980   18.1510 C.3   116  MET116      0.0596
    102  SD        30.1620   -7.4440   17.2270 S.3   116  MET116     -0.1393
    103  CE        30.9640   -8.9580   17.7450 C.3   116  MET116      0.0692
    104  N         26.8100  -10.7260   15.5800 N.am  117  MET117     -0.1979
    105  CA        26.1360  -12.0120   15.5770 C.3   117  MET117      0.1605
    106  C         25.9430  -12.5250   16.9990 C.2   117  MET117      0.2287
    107  O         26.8280  -12.3500   17.8540 O.2   117  MET117     -0.2864
    108  CB        26.9100  -13.0130   14.7320 C.3   117  MET117      0.0413
    109  CG        27.1820  -12.4890   13.3270 C.3   117  MET117      0.0598
    110  SD        28.2200  -13.6260   12.4110 S.3   117  MET117     -0.1393
    111  CE        26.9920  -14.8900   12.0700 C.3   117  MET117      0.0692
    112  N         27.0570  -18.0220   16.8820 N.3   122  LEU122     -0.1245
    113  CA        28.5030  -18.2600   16.7440 C.3   122  LEU122      0.1561
    114  C         29.0160  -19.5280   17.3970 C.2   122  LEU122      0.2260
    115  O         29.9000  -20.1880   16.8580 O.2   122  LEU122     -0.2867
    116  CB        29.3000  -17.0820   17.3040 C.3   122  LEU122      0.0270
    117  CG        29.1840  -15.7760   16.5220 C.3   122  LEU122      0.0019
    118  CD1       29.9030  -14.6660   17.2700 C.3   122  LEU122      0.0001
    119  CD2       29.6800  -15.9180   15.0750 C.3   122  LEU122      0.0001
    120  N         32.3250  -21.5540   14.8580 N.3   126  VAL126     -0.1245
    121  CA        33.4830  -20.7560   14.4570 C.3   126  VAL126      0.1561
    122  C         34.7360  -21.6160   14.6050 C.2   126  VAL126      0.2260
    123  O         34.9590  -22.2070   15.6520 O.2   126  VAL126     -0.2867
    124  CB        33.6530  -19.4850   15.3300 C.3   126  VAL126      0.0252
    125  CG1       34.9620  -18.7570   14.9720 C.3   126  VAL126      0.0019
    126  CG2       32.4610  -18.5590   15.1820 C.3   126  VAL126      0.0019
    127  N         35.6280  -22.3430   18.3370 N.3   146  LEU146     -0.1245
    128  CA        35.2000  -21.4250   19.4010 C.3   146  LEU146      0.1561
    129  C         33.8020  -21.7130   19.9220 C.2   146  LEU146      0.2260
    130  O         32.8420  -21.8110   19.1460 O.2   146  LEU146     -0.2867
    131  CB        35.2420  -19.9640   18.9380 C.3   146  LEU146      0.0270
    132  CG        36.5610  -19.3620   18.4810 C.3   146  LEU146      0.0019
    133  CD1       36.4140  -17.8760   18.2570 C.3   146  LEU146      0.0001
    134  CD2       37.6710  -19.6360   19.4860 C.3   146  LEU146      0.0001
    135  N         31.1840  -19.8980   22.8020 N.3   148  TYR148     -0.1241
    136  CA        30.9300  -18.6370   23.5190 C.3   148  TYR148      0.1605
    137  C         30.0090  -18.9560   24.6840 C.2   148  TYR148      0.2264
    138  O         28.8210  -19.2300   24.4760 O.2   148  TYR148     -0.2867
    139  CB        30.3090  -17.5680   22.5990 C.3   148  TYR148      0.0534
    140  CG        31.2210  -17.0960   21.4870 C.ar  148  TYR148     -0.0201
    141  CD1       31.9180  -15.8880   21.5840 C.ar  148  TYR148     -0.0009
    142  CD2       31.3940  -17.8670   20.3390 C.ar  148  TYR148     -0.0009
    143  CE1       32.7540  -15.4650   20.5660 C.ar  148  TYR148      0.0417
    144  CE2       32.2250  -17.4580   19.3160 C.ar  148  TYR148      0.0417
    145  CZ        32.9000  -16.2660   19.4250 C.ar  148  TYR148      0.1957
    146  OH        33.7120  -15.9010   18.3810 O.3   148  TYR148     -0.2866
@<TRIPOS>BOND
     1    56    57    1
     2    59    58    2
     3    58    57    1
     4    58    64   am
     5    57    60    1
     6    64    65    1
     7    65    66    1
     8    65    68    1
     9    66    67    2
    10    52    51    2
    11    60    61    1
    12    62    61    1
    13    68    69    1
    14    73    74    1
    15    51    50    1
    16    49    50    1
    17    76    75    2
    18    61    63    1
    19    75    74    1
    20    74    77    1
    21    50    53    1
    22    69    70    1
    23    53    55    1
    24    53    54    1
    25    77    78    1
    26   111   110    1
    27    70    71   ar
    28    70    72   ar
    29    79    78   ar
    30    79    81   ar
    31   110   109    1
    32    78    80   ar
    33    81    82   ar
    34   109   108    1
    35    80    82   ar
    36    80    83   ar
    37    82    84   ar
    38    95    93   ar
    39    83    85   ar
    40   121   122    1
    41   121   120    1
    42   121   124    1
    43    84    86   ar
    44   122   123    2
    45   108   105    1
    46    93    92    1
    47    93    94   ar
    48    92    91    1
    49   125   124    1
    50    85    86   ar
    51   119   117    1
    52   126   124    1
    53   105   104    1
    54   105   106    1
    55   104    98   am
    56    91    88    1
    57    98    97    1
    58    98    99    2
    59    96    97    1
    60    97   100    1
    61    88    87    1
    62    88    89    1
    63   117   118    1
    64   117   116    1
    65    48    46    1
    66   113   112    1
    67   113   116    1
    68   113   114    1
    69   115   114    2
    70   106   107    2
    71    47    46    1
    72   102   103    1
    73   102   101    1
    74    46    45    2
    75    89    90    2
    76   100   101    1
    77    45    44    1
    78   133   132    1
    79   127   128    1
    80   146   145    1
    81   132   131    1
    82   132   134    1
    83   131   128    1
    84    44    43    1
    85   130   129    2
    86   144   145   ar
    87   144   142   ar
    88   128   129    1
    89   145   143   ar
    90    24    22    1
    91    43    42    1
    92   142   140   ar
    93   143   141   ar
    94    42    39    1
    95    34    33    2
    96    22    23    1
    97    22    21    1
    98    20    19    2
    99   140   141   ar
   100   140   139    1
   101    21    18    1
   102    41    40    2
   103    18    19    1
   104    18    17    1
   105    38    39    1
   106    39    40    1
   107    31    32    1
   108    33    32    1
   109    35    37    1
   110    35    32    1
   111    35    36    1
   112    28    27    2
   113   139   136    1
   114     8     6    1
   115   135   136    1
   116    17    11   am
   117    12    11    2
   118    15    13    1
   119    27    26    1
   120    14    13    1
   121    14    16    1
   122   136   137    1
   123     7     6    1
   124    11    10    1
   125     6     5    1
   126    25    26    1
   127    13    10    1
   128   138   137    2
   129    26    29    1
   130    10     9    1
   131    29    30    1
   132     5     2    1
   133     2     1    1
   134     2     3    1
   135     3     4    2
