@<TRIPOS>MOLECULE
tmp/3t5oA04.pdb
 91 86 0 0 0
SMALL
GASTEIGER

@<TRIPOS>ATOM
      1  N        -12.6200   37.8310    0.1050 N.3   243  VAL243     -0.1245
      2  CA       -13.7350   38.4330   -0.6230 C.3   243  VAL243      0.1561
      3  C        -13.2220   39.2190   -1.8300 C.2   243  VAL243      0.2260
      4  O        -12.3490   40.0780   -1.6870 O.2   243  VAL243     -0.2867
      5  CB       -14.6000   39.3610    0.2910 C.3   243  VAL243      0.0252
      6  CG1      -15.7010   40.0610   -0.5090 C.3   243  VAL243      0.0019
      7  CG2      -15.2040   38.5710    1.4480 C.3   243  VAL243      0.0019
      8  N        -21.9840   37.1270   -1.8260 N.3   474  GLN474     -0.1245
      9  CA       -21.2600   36.7840   -0.6190 C.3   474  GLN474      0.1566
     10  C        -21.2130   35.2690   -0.4840 C.2   474  GLN474      0.2260
     11  O        -20.1390   34.6730   -0.3650 O.2   474  GLN474     -0.2867
     12  CB       -21.9640   37.3810    0.5920 C.3   474  GLN474      0.0367
     13  CG       -21.6850   38.8540    0.8200 C.3   474  GLN474      0.0905
     14  CD       -21.0000   39.0970    2.1540 C.2   474  GLN474      0.2608
     15  OE1      -21.6500   39.4180    3.1570 O.2   474  GLN474     -0.2717
     16  NE2      -19.6770   38.9330    2.1760 N.am  474  GLN474     -0.0878
     17  N        -18.9140   33.5410   -3.0750 N.3   477  ALA477     -0.1231
     18  CA       -17.5130   33.5270   -2.6800 C.3   477  ALA477      0.1694
     19  C        -17.2940   32.6430   -1.4580 C.2   477  ALA477      0.2591
     20  O        -16.2480   32.0210   -1.3080 O.2   477  ALA477     -0.2718
     21  CB       -17.0500   34.9250   -2.3910 C.3   477  ALA477      0.0304
     22  N        -18.2720   32.6000   -0.5670 N.am  478  ALA478     -0.1980
     23  CA       -18.1650   31.7180    0.5780 C.3   478  ALA478      0.1597
     24  C        -17.7540   30.3430    0.0760 C.2   478  ALA478      0.2287
     25  O        -16.8490   29.7130    0.6230 O.2   478  ALA478     -0.2864
     26  CB       -19.4910   31.6410    1.3130 C.3   478  ALA478      0.0319
     27  N        -13.9240   29.6660   -0.4420 N.3   481  ASP481     -0.1239
     28  CA       -12.9580   30.0030    0.6000 C.3   481  ASP481      0.1674
     29  C        -12.1500   28.8040    1.0870 C.2   481  ASP481      0.2266
     30  O        -12.7090   27.7580    1.4190 O.2   481  ASP481     -0.2867
     31  CB       -13.6200   30.7020    1.7870 C.3   481  ASP481      0.1410
     32  CG       -12.6020   31.2300    2.7740 C.2   481  ASP481      0.3668
     33  OD1      -12.3200   30.5380    3.7780 O.co2 481  ASP481     -0.2456
     34  OD2      -12.0520   32.3230    2.5250 O.co2 481  ASP481     -0.2456
     35  N        -10.7770   28.2040    3.7260 N.3   483  CYS483     -0.1221
     36  CA       -10.8640   27.8660    5.1290 C.3   483  CYS483      0.1808
     37  C        -11.4070   26.4480    5.2670 C.2   483  CYS483      0.2601
     38  O        -11.1670   25.7780    6.2740 O.2   483  CYS483     -0.2717
     39  CB       -11.7380   28.8760    5.8800 C.3   483  CYS483      0.0970
     40  SG       -13.5220   28.6790    5.6630 S.3   483  CYS483     -0.0800
     41  N        -12.1300   25.9880    4.2470 N.am  484  GLN484     -0.1979
     42  CA       -12.7470   24.6650    4.3010 C.3   484  GLN484      0.1601
     43  C        -11.6570   23.6000    4.3100 C.2   484  GLN484      0.2287
     44  O        -11.9270   22.4340    4.5900 O.2   484  GLN484     -0.2864
     45  CB       -13.7140   24.4560    3.1250 C.3   484  GLN484      0.0394
     46  CG       -14.3820   25.7420    2.6630 C.3   484  GLN484      0.0908
     47  CD       -15.3830   25.5670    1.5230 C.2   484  GLN484      0.2608
     48  OE1      -16.3660   24.8370    1.6450 O.2   484  GLN484     -0.2717
     49  NE2      -15.1390   26.2540    0.4170 N.am  484  GLN484     -0.0878
     50  N        -13.3310   28.1400    9.5010 N.3   532  CYS532     -0.1221
     51  CA       -14.4160   28.7840    8.7860 C.3   532  CYS532      0.1808
     52  C        -15.1780   29.7470    9.6780 C.2   532  CYS532      0.2601
     53  O        -15.0150   29.7560   10.9050 O.2   532  CYS532     -0.2717
     54  CB       -15.3500   27.7610    8.1350 C.3   532  CYS532      0.0970
     55  SG       -14.7350   27.2630    6.5070 S.3   532  CYS532     -0.0800
     56  N        -15.9800   30.5890    9.0410 N.am  533  TRP533     -0.1976
     57  CA       -16.8480   31.4970    9.7630 C.3   533  TRP533      0.1640
     58  C        -17.8190   30.6620   10.5810 C.2   533  TRP533      0.2290
     59  O        -17.8030   29.4340   10.5230 O.2   533  TRP533     -0.2864
     60  CB       -17.5950   32.4160    8.7870 C.3   533  TRP533      0.0576
     61  CG       -16.8160   33.6430    8.3990 C.ar  533  TRP533      0.0006
     62  CD1      -16.1820   33.8980    7.1950 C.ar  533  TRP533      0.0946
     63  CD2      -16.5670   34.7820    9.2310 C.ar  533  TRP533      0.0152
     64  NE1      -15.5920   35.1380    7.2460 N.ar  533  TRP533     -0.2442
     65  CE2      -15.7970   35.6920    8.4810 C.ar  533  TRP533      0.0810
     66  CE3      -16.9260   35.1220   10.5390 C.ar  533  TRP533      0.0012
     67  CZ2      -15.3820   36.9170    8.9930 C.ar  533  TRP533      0.0191
     68  CZ3      -16.5130   36.3390   11.0470 C.ar  533  TRP533      0.0001
     69  CH2      -15.7460   37.2210   10.2760 C.ar  533  TRP533      0.0015
     70  N        -21.5290   37.0550   13.4820 N.3   547  ARG547     -0.1245
     71  CA       -20.8170   35.9460   12.8280 C.3   547  ARG547      0.1563
     72  C        -19.4440   35.7890   13.5110 C.2   547  ARG547      0.2260
     73  O        -18.9440   36.7480   14.0980 O.2   547  ARG547     -0.2867
     74  CB       -20.6780   36.2270   11.3210 C.3   547  ARG547      0.0307
     75  CG       -20.2320   35.0470   10.4710 C.3   547  ARG547      0.0489
     76  CD       -20.4790   35.2870    8.9700 C.3   547  ARG547      0.2205
     77  NE       -19.9130   36.5440    8.4670 N.pl3 547  ARG547     -0.0865
     78  CZ       -19.3710   36.6960    7.2560 C.cat 547  ARG547      0.5346
     79  NH1      -19.3000   35.6700    6.4170 N.pl3 547  ARG547      0.1354
     80  NH2      -18.8880   37.8730    6.8810 N.pl3 547  ARG547      0.1354
     81  N        -15.3240   33.7270   13.5380 N.3   549  ARG549     -0.1245
     82  CA       -14.2610   32.7690   13.2200 C.3   549  ARG549      0.1563
     83  C        -13.2740   32.5480   14.3750 C.2   549  ARG549      0.2260
     84  O        -13.1240   33.3980   15.2540 O.2   549  ARG549     -0.2867
     85  CB       -13.5080   33.1510   11.9400 C.3   549  ARG549      0.0307
     86  CG       -13.8600   34.4990   11.3360 C.3   549  ARG549      0.0489
     87  CD       -12.5980   35.1740   10.8470 C.3   549  ARG549      0.2205
     88  NE       -12.7650   35.9240    9.6080 N.pl3 549  ARG549     -0.0865
     89  CZ       -11.8400   36.7440    9.1170 C.cat 549  ARG549      0.5346
     90  NH1      -10.7050   36.9230    9.7740 N.pl3 549  ARG549      0.1354
     91  NH2      -12.0460   37.3960    7.9810 N.pl3 549  ARG549      0.1354
@<TRIPOS>BOND
     1    17    18    1
     2    18    21    1
     3    18    19    1
     4     3     4    2
     5     3     2    1
     6     8     9    1
     7    19    20    2
     8    19    22   am
     9     2     1    1
    10     2     5    1
    11     9    10    1
    12     9    12    1
    13    22    23    1
    14     6     5    1
    15    10    11    2
    16    27    28    1
    17    24    23    1
    18    24    25    2
    19     5     7    1
    20    49    47   am
    21    23    26    1
    22    12    13    1
    23    28    29    1
    24    28    31    1
    25    13    14    1
    26    29    30    2
    27    47    48    2
    28    47    46    1
    29    31    32    1
    30    14    16   am
    31    14    15    2
    32    34    32   ar
    33    46    45    1
    34    32    33   ar
    35    45    42    1
    36    35    36    1
    37    41    42    1
    38    41    37   am
    39    42    43    1
    40    43    44    2
    41    36    37    1
    42    36    39    1
    43    37    38    2
    44    40    39    1
    45    40    55    1
    46    79    78    1
    47    55    54    1
    48    80    78    1
    49    62    64   ar
    50    62    61   ar
    51    64    65   ar
    52    78    77    2
    53    91    89    1
    54    54    51    1
    55    61    60    1
    56    61    63   ar
    57    77    76    1
    58    65    67   ar
    59    65    63   ar
    60    51    50    1
    61    51    52    1
    62    60    57    1
    63    76    75    1
    64    67    69   ar
    65    56    52   am
    66    56    57    1
    67    89    88    2
    68    89    90    1
    69    63    66   ar
    70    88    87    1
    71    52    53    2
    72    57    58    1
    73    69    68   ar
    74    75    74    1
    75    59    58    2
    76    66    68   ar
    77    87    86    1
    78    74    71    1
    79    86    85    1
    80    85    82    1
    81    71    70    1
    82    71    72    1
    83    82    81    1
    84    82    83    1
    85    72    73    2
    86    83    84    2
