@<TRIPOS>MOLECULE
tmp/3t5uA00.pdb
 108 104 0 0 0
SMALL
GASTEIGER

@<TRIPOS>ATOM
      1  N        -12.5020    6.2340   11.1460 N.3    89  GLN89      -0.1245
      2  CA       -12.1930    5.0770   10.3020 C.3    89  GLN89       0.1566
      3  C        -12.3480    3.7870   11.0940 C.2    89  GLN89       0.2260
      4  O        -12.4230    3.8170   12.3180 O.2    89  GLN89      -0.2867
      5  CB       -10.7390    5.1490    9.8070 C.3    89  GLN89       0.0367
      6  CG        -9.7030    5.1920   10.9470 C.3    89  GLN89       0.0905
      7  CD        -8.9150    3.8970   11.1200 C.2    89  GLN89       0.2608
      8  OE1       -9.4660    2.7990   11.0340 O.2    89  GLN89      -0.2717
      9  NE2       -7.6190    4.0270   11.3850 N.am   89  GLN89      -0.0878
     10  N        -11.0790   -0.5940   10.8640 N.3    91  HIS91      -0.1241
     11  CA       -10.2210   -1.5590   10.2020 C.3    91  HIS91       0.1621
     12  C        -10.2620   -2.8180   11.0420 C.2    91  HIS91       0.2264
     13  O        -10.8870   -2.8410   12.1060 O.2    91  HIS91      -0.2867
     14  CB        -8.7800   -1.0530   10.1550 C.3    91  HIS91       0.0745
     15  CG        -8.2030   -0.7800   11.5100 C.ar   91  HIS91       0.0817
     16  ND1       -8.3680    0.4260   12.1570 N.ar   91  HIS91      -0.2268
     17  CD2       -7.5330   -1.5810   12.3730 C.ar   91  HIS91       0.1154
     18  CE1       -7.8270    0.3550   13.3610 C.ar   91  HIS91       0.1986
     19  NE2       -7.3140   -0.8530   13.5170 N.ar   91  HIS91      -0.2212
     20  N         -7.9670   -6.6080   12.3250 N.3    93  HIS93      -0.1241
     21  CA        -6.7120   -7.2920   12.5920 C.3    93  HIS93       0.1621
     22  C         -7.1420   -8.7520   12.4830 C.2    93  HIS93       0.2264
     23  O         -8.1570   -9.1390   13.0640 O.2    93  HIS93      -0.2867
     24  CB        -6.2120   -6.9890   14.0040 C.3    93  HIS93       0.0745
     25  CG        -5.8050   -5.5630   14.2030 C.ar   93  HIS93       0.0817
     26  ND1       -4.5470   -5.0950   13.8860 N.ar   93  HIS93      -0.2268
     27  CD2       -6.4990   -4.4960   14.6620 C.ar   93  HIS93       0.1154
     28  CE1       -4.4850   -3.8010   14.1460 C.ar   93  HIS93       0.1986
     29  NE2       -5.6560   -3.4120   14.6180 N.ar   93  HIS93      -0.2212
     30  N        -11.8800   -2.6680   14.7300 N.3   116  HIS116     -0.1241
     31  CA       -11.5920   -1.4680   15.4970 C.3   116  HIS116      0.1621
     32  C        -12.2340   -0.2570   14.8480 C.2   116  HIS116      0.2264
     33  O        -11.8730    0.1170   13.7330 O.2   116  HIS116     -0.2867
     34  CB       -10.0770   -1.2420   15.5890 C.3   116  HIS116      0.0745
     35  CG        -9.3830   -2.1960   16.5110 C.ar  116  HIS116      0.0817
     36  ND1       -8.0140   -2.3510   16.5300 N.ar  116  HIS116     -0.2268
     37  CD2       -9.8710   -3.0330   17.4530 C.ar  116  HIS116      0.1154
     38  CE1       -7.6890   -3.2460   17.4460 C.ar  116  HIS116      0.1986
     39  NE2       -8.7960   -3.6740   18.0230 N.ar  116  HIS116     -0.2212
     40  N        -12.4240    3.4780   15.1490 N.3   118  VAL118     -0.1245
     41  CA       -11.6660    4.5640   15.7630 C.3   118  VAL118      0.1561
     42  C        -12.4020    5.8990   15.8090 C.2   118  VAL118      0.2260
     43  O        -12.8850    6.3770   14.7840 O.2   118  VAL118     -0.2867
     44  CB       -10.3380    4.7590   15.0020 C.3   118  VAL118      0.0252
     45  CG1       -9.4570    5.7680   15.7220 C.3   118  VAL118      0.0019
     46  CG2       -9.6320    3.4200   14.8470 C.3   118  VAL118      0.0019
     47  N         -8.0760   14.9490   14.8050 N.3   127  PHE127     -0.1241
     48  CA        -7.4220   13.7160   15.2100 C.3   127  PHE127      0.1605
     49  C         -5.9770   13.9480   15.6320 C.2   127  PHE127      0.2264
     50  O         -5.5050   13.3660   16.6100 O.2   127  PHE127     -0.2867
     51  CB        -7.4900   12.7050   14.0600 C.3   127  PHE127      0.0534
     52  CG        -6.8690   11.3770   14.3770 C.ar  127  PHE127     -0.0203
     53  CD1       -5.5060   11.1730   14.2090 C.ar  127  PHE127     -0.0042
     54  CD2       -7.6520   10.3270   14.8500 C.ar  127  PHE127     -0.0042
     55  CE1       -4.9260    9.9430   14.5040 C.ar  127  PHE127     -0.0003
     56  CE2       -7.0810    9.0920   15.1480 C.ar  127  PHE127     -0.0003
     57  CZ        -5.7140    8.9030   14.9730 C.ar  127  PHE127     -0.0000
     58  N         -8.7620    9.6140   22.2320 N.3   137  LEU137     -0.1245
     59  CA        -9.4220    8.6390   21.3760 C.3   137  LEU137      0.1561
     60  C        -10.2540    7.6190   22.1300 C.2   137  LEU137      0.2260
     61  O        -10.0590    7.3900   23.3200 O.2   137  LEU137     -0.2867
     62  CB        -8.3850    7.8690   20.5550 C.3   137  LEU137      0.0270
     63  CG        -7.3860    8.6380   19.6900 C.3   137  LEU137      0.0019
     64  CD1       -6.4450    7.6310   19.0290 C.3   137  LEU137      0.0001
     65  CD2       -8.1140    9.4700   18.6420 C.3   137  LEU137      0.0001
     66  N        -11.7600    3.7210   21.0460 N.3   139  VAL139     -0.1245
     67  CA       -11.8520    2.7020   20.0160 C.3   139  VAL139      0.1561
     68  C        -12.8220    1.6330   20.4810 C.2   139  VAL139      0.2260
     69  O        -12.7070    1.1140   21.5920 O.2   139  VAL139     -0.2867
     70  CB       -10.4810    2.0510   19.7140 C.3   139  VAL139      0.0252
     71  CG1      -10.6350    1.0210   18.5880 C.3   139  VAL139      0.0019
     72  CG2       -9.4740    3.1160   19.2950 C.3   139  VAL139      0.0019
     73  N         -2.8060    2.9570   21.1430 N.3   194  LEU194     -0.1231
     74  CA        -2.9580    2.5030   19.7710 C.3   194  LEU194      0.1693
     75  C         -2.2310    1.1650   19.8240 C.2   194  LEU194      0.2593
     76  O         -1.2520    1.0300   20.5640 O.2   194  LEU194     -0.2718
     77  CB        -2.2020    3.4190   18.8080 C.3   194  LEU194      0.0284
     78  CG        -2.8980    4.6010   18.1360 C.3   194  LEU194      0.0019
     79  CD1       -3.5410    5.5140   19.1550 C.3   194  LEU194      0.0001
     80  CD2       -1.8550    5.3500   17.3160 C.3   194  LEU194      0.0001
     81  N         -2.6880    0.1800   19.0600 N.am  195  THR195     -0.1939
     82  CA        -2.0180   -1.1200   19.0650 C.3   195  THR195      0.2028
     83  C         -0.9940   -1.2120   17.9420 C.2   195  THR195      0.2642
     84  O         -0.3430   -2.2440   17.7640 O.2   195  THR195     -0.2714
     85  CB        -3.0070   -2.2770   18.9100 C.3   195  THR195      0.1808
     86  OG1       -3.6590   -2.1870   17.6370 O.3   195  THR195     -0.2208
     87  CG2       -4.0340   -2.2450   20.0330 C.3   195  THR195      0.0379
     88  N         -0.8730   -0.1290   17.1810 N.am  196  THR196     -0.1950
     89  CA         0.0850   -0.0440   16.0830 C.3   196  THR196      0.1897
     90  C          0.9240    1.2130   16.2860 C.2   196  THR196      0.2313
     91  O          0.4530    2.1940   16.8650 O.2   196  THR196     -0.2863
     92  CB        -0.6210    0.0910   14.7050 C.3   196  THR196      0.1794
     93  OG1       -1.6560    1.0790   14.7960 O.3   196  THR196     -0.2208
     94  CG2       -1.2220   -1.2310   14.2650 C.3   196  THR196      0.0378
     95  N        -10.4260    2.2810   25.6540 N.3   205  TRP205     -0.1241
     96  CA       -10.8860    1.1010   24.9460 C.3   205  TRP205      0.1605
     97  C        -12.2420    0.6250   25.4340 C.2   205  TRP205      0.2264
     98  O        -12.5000    0.5690   26.6320 O.2   205  TRP205     -0.2867
     99  CB        -9.8720   -0.0390   25.0890 C.3   205  TRP205      0.0550
    100  CG        -8.7630    0.0460   24.0930 C.ar  205  TRP205      0.0003
    101  CD1       -7.5360    0.6230   24.2670 C.ar  205  TRP205      0.0946
    102  CD2       -8.8090   -0.4030   22.7380 C.ar  205  TRP205      0.0152
    103  NE1       -6.8180    0.5630   23.0980 N.ar  205  TRP205     -0.2442
    104  CE2       -7.5760   -0.0640   22.1430 C.ar  205  TRP205      0.0810
    105  CE3       -9.7780   -1.0590   21.9660 C.ar  205  TRP205      0.0012
    106  CZ2       -7.2830   -0.3570   20.8060 C.ar  205  TRP205      0.0191
    107  CZ3       -9.4890   -1.3510   20.6370 C.ar  205  TRP205      0.0001
    108  CH2       -8.2500   -0.9990   20.0720 C.ar  205  TRP205      0.0015
@<TRIPOS>BOND
     1     5     2    1
     2     5     6    1
     3    14    11    1
     4    14    15    1
     5    11    10    1
     6    11    12    1
     7     2     3    1
     8     2     1    1
     9     6     7    1
    10     8     7    2
    11    12    13    2
    12     3     4    2
    13     7     9   am
    14    15    16   ar
    15    15    17   ar
    16    16    18   ar
    17    20    21    1
    18    17    19   ar
    19    22    21    1
    20    22    23    2
    21    21    24    1
    22    18    19   ar
    23    33    32    2
    24    26    28   ar
    25    26    25   ar
    26    24    25    1
    27    51    52    1
    28    51    48    1
    29    28    29   ar
    30    25    27   ar
    31    53    52   ar
    32    53    55   ar
    33    94    92    1
    34    52    54   ar
    35    55    57   ar
    36    29    27   ar
    37    92    93    1
    38    92    89    1
    39    30    31    1
    40    43    42    2
    41    47    48    1
    42    46    44    1
    43    32    31    1
    44    54    56   ar
    45    57    56   ar
    46    44    45    1
    47    44    41    1
    48    40    41    1
    49    48    49    1
    50    31    34    1
    51    34    35    1
    52    49    50    2
    53    41    42    1
    54    89    90    1
    55    89    88    1
    56    90    91    2
    57    35    36   ar
    58    35    37   ar
    59    36    38   ar
    60    88    83   am
    61    80    78    1
    62    38    39   ar
    63    37    39   ar
    64    86    85    1
    65    84    83    2
    66    83    82    1
    67    78    77    1
    68    78    79    1
    69    71    70    1
    70    65    63    1
    71    77    74    1
    72    85    82    1
    73    85    87    1
    74    64    63    1
    75    81    82    1
    76    81    75   am
    77    72    70    1
    78    63    62    1
    79    70    67    1
    80    74    75    1
    81    74    73    1
    82    75    76    2
    83    67    68    1
    84    67    66    1
    85   108   107   ar
    86   108   106   ar
    87    68    69    2
    88    62    59    1
    89   107   105   ar
    90   106   104   ar
    91    59    60    1
    92    59    58    1
    93   105   102   ar
    94    60    61    2
    95   104   102   ar
    96   104   103   ar
    97   102   100   ar
    98   103   101   ar
    99   100   101   ar
   100   100    99    1
   101    96    99    1
   102    96    97    1
   103    96    95    1
   104    97    98    2
