@<TRIPOS>MOLECULE
tmp/3t5zA00.pdb
 108 104 0 0 0
SMALL
GASTEIGER

@<TRIPOS>ATOM
      1  N         -8.2830    0.3650    5.6650 N.3    65  ASN65      -0.1240
      2  CA        -9.0650    1.3420    6.4060 C.3    65  ASN65       0.1653
      3  C        -10.2970    1.8210    5.6570 C.2    65  ASN65       0.2266
      4  O        -10.1980    2.2350    4.5070 O.2    65  ASN65      -0.2867
      5  CB        -8.2160    2.5840    6.7080 C.3    65  ASN65       0.1155
      6  CG        -7.0730    2.3150    7.6640 C.2    65  ASN65       0.2627
      7  OD1       -6.1990    3.1660    7.8470 O.2    65  ASN65      -0.2716
      8  ND2       -7.0720    1.1460    8.2860 N.am   65  ASN65      -0.0877
      9  N        -12.6920    6.2890   11.1640 N.3    90  GLN90      -0.1245
     10  CA       -12.3910    5.1400   10.3130 C.3    90  GLN90       0.1566
     11  C        -12.4790    3.8370   11.0830 C.2    90  GLN90       0.2260
     12  O        -12.5580    3.8350   12.3120 O.2    90  GLN90      -0.2867
     13  CB       -10.9740    5.2570    9.7410 C.3    90  GLN90       0.0367
     14  CG        -9.8540    5.1780   10.7900 C.3    90  GLN90       0.0905
     15  CD        -9.1330    3.8320   10.8110 C.2    90  GLN90       0.2608
     16  OE1       -9.6940    2.8170   11.2110 O.2    90  GLN90      -0.2717
     17  NE2       -7.8840    3.8260   10.3670 N.am   90  GLN90      -0.0878
     18  N        -11.0830   -0.5170   10.8510 N.3    92  HIS92      -0.1241
     19  CA       -10.2050   -1.4740   10.2130 C.3    92  HIS92       0.1621
     20  C        -10.2350   -2.7340   11.0520 C.2    92  HIS92       0.2264
     21  O        -10.8370   -2.7600   12.1250 O.2    92  HIS92      -0.2867
     22  CB        -8.7770   -0.9430   10.1720 C.3    92  HIS92       0.0745
     23  CG        -8.2000   -0.6930   11.5280 C.ar   92  HIS92       0.0817
     24  ND1       -8.4420    0.4650   12.2340 N.ar   92  HIS92      -0.2268
     25  CD2       -7.4630   -1.4850   12.3420 C.ar   92  HIS92       0.1154
     26  CE1       -7.8810    0.3740   13.4280 C.ar   92  HIS92       0.1986
     27  NE2       -7.2810   -0.7990   13.5180 N.ar   92  HIS92      -0.2212
     28  N         -7.9620   -6.5150   12.3220 N.3    94  HIS94      -0.1241
     29  CA        -6.7000   -7.1900   12.5770 C.3    94  HIS94       0.1621
     30  C         -7.1620   -8.6410   12.4800 C.2    94  HIS94       0.2264
     31  O         -8.2010   -8.9850   13.0370 O.2    94  HIS94      -0.2867
     32  CB        -6.1890   -6.9020   13.9930 C.3    94  HIS94       0.0745
     33  CG        -5.8410   -5.4680   14.2330 C.ar   94  HIS94       0.0817
     34  ND1       -4.5830   -4.9540   13.9980 N.ar   94  HIS94      -0.2268
     35  CD2       -6.5910   -4.4350   14.6830 C.ar   94  HIS94       0.1154
     36  CE1       -4.5740   -3.6660   14.2950 C.ar   94  HIS94       0.1986
     37  NE2       -5.7810   -3.3270   14.7120 N.ar   94  HIS94      -0.2212
     38  N        -11.9650   -2.6400   14.7030 N.3   117  HIS117     -0.1241
     39  CA       -11.6860   -1.4390   15.4800 C.3   117  HIS117      0.1621
     40  C        -12.3330   -0.2290   14.8270 C.2   117  HIS117      0.2264
     41  O        -11.9590    0.1580   13.7210 O.2   117  HIS117     -0.2867
     42  CB       -10.1760   -1.1990   15.5850 C.3   117  HIS117      0.0745
     43  CG        -9.4710   -2.1490   16.5020 C.ar  117  HIS117      0.0817
     44  ND1       -8.1000   -2.2820   16.5230 N.ar  117  HIS117     -0.2268
     45  CD2       -9.9490   -3.0210   17.4220 C.ar  117  HIS117      0.1154
     46  CE1       -7.7620   -3.1980   17.4130 C.ar  117  HIS117      0.1986
     47  NE2       -8.8660   -3.6630   17.9710 N.ar  117  HIS117     -0.2212
     48  N        -12.5860    3.5240   15.1200 N.3   119  VAL119     -0.1245
     49  CA       -11.8380    4.6050   15.7580 C.3   119  VAL119      0.1561
     50  C        -12.5880    5.9310   15.7920 C.2   119  VAL119      0.2260
     51  O        -13.0830    6.3890   14.7640 O.2   119  VAL119     -0.2867
     52  CB       -10.4930    4.8000   15.0200 C.3   119  VAL119      0.0252
     53  CG1       -9.6280    5.8290   15.7360 C.3   119  VAL119      0.0019
     54  CG2       -9.7710    3.4700   14.9210 C.3   119  VAL119      0.0019
     55  N         -8.6280   14.8710   14.7070 N.3   128  PHE128     -0.1241
     56  CA        -7.8580   13.6930   15.0820 C.3   128  PHE128      0.1605
     57  C         -6.4180   14.0090   15.4710 C.2   128  PHE128      0.2264
     58  O         -5.9020   13.4800   16.4620 O.2   128  PHE128     -0.2867
     59  CB        -7.8840   12.6880   13.9270 C.3   128  PHE128      0.0534
     60  CG        -7.1520   11.4070   14.2110 C.ar  128  PHE128     -0.0203
     61  CD1       -5.7910   11.2930   13.9510 C.ar  128  PHE128     -0.0042
     62  CD2       -7.8260   10.3120   14.7420 C.ar  128  PHE128     -0.0042
     63  CE1       -5.1120   10.1130   14.2130 C.ar  128  PHE128     -0.0003
     64  CE2       -7.1510    9.1230   15.0100 C.ar  128  PHE128     -0.0003
     65  CZ        -5.7930    9.0230   14.7440 C.ar  128  PHE128     -0.0000
     66  N        -11.9530    3.7640   21.0440 N.3   140  VAL140     -0.1245
     67  CA       -12.0130    2.7230   20.0390 C.3   140  VAL140      0.1561
     68  C        -12.9850    1.6540   20.4890 C.2   140  VAL140      0.2260
     69  O        -12.8950    1.1430   21.6100 O.2   140  VAL140     -0.2867
     70  CB       -10.6370    2.0740   19.7950 C.3   140  VAL140      0.0252
     71  CG1      -10.7660    0.9730   18.7410 C.3   140  VAL140      0.0019
     72  CG2       -9.6460    3.1280   19.3280 C.3   140  VAL140      0.0019
     73  N         -3.0290    2.8220   20.9480 N.3   195  LEU195     -0.1231
     74  CA        -3.2210    2.3640   19.5830 C.3   195  LEU195      0.1693
     75  C         -2.4080    1.0730   19.6020 C.2   195  LEU195      0.2593
     76  O         -1.4480    0.9610   20.3660 O.2   195  LEU195     -0.2718
     77  CB        -2.6060    3.3510   18.5840 C.3   195  LEU195      0.0284
     78  CG        -3.0760    4.8000   18.6800 C.3   195  LEU195      0.0019
     79  CD1       -2.3800    5.6290   17.6190 C.3   195  LEU195      0.0001
     80  CD2       -4.5720    4.8510   18.5130 C.3   195  LEU195      0.0001
     81  N         -2.7740    0.1050   18.7740 N.am  196  THR196     -0.1939
     82  CA        -2.0520   -1.1600   18.7640 C.3   196  THR196      0.2028
     83  C         -0.9850   -1.2580   17.6760 C.2   196  THR196      0.2642
     84  O         -0.3560   -2.3030   17.5090 O.2   196  THR196     -0.2714
     85  CB        -3.0190   -2.3350   18.6180 C.3   196  THR196      0.1808
     86  OG1       -3.7030   -2.2340   17.3640 O.3   196  THR196     -0.2208
     87  CG2       -4.0450   -2.3250   19.7470 C.3   196  THR196      0.0379
     88  N         -0.7910   -0.1710   16.9370 N.am  197  THR197     -0.1950
     89  CA         0.2280   -0.1160   15.8910 C.3   197  THR197      0.1897
     90  C          1.0230    1.1570   16.1040 C.2   197  THR197      0.2313
     91  O          0.5130    2.1290   16.6620 O.2   197  THR197     -0.2863
     92  CB        -0.3680   -0.0350   14.4630 C.3   197  THR197      0.1794
     93  OG1       -1.1780    1.1400   14.3410 O.3   197  THR197     -0.2208
     94  CG2       -1.1950   -1.2680   14.1520 C.3   197  THR197      0.0378
     95  N        -10.5840    2.2680   25.6460 N.3   206  TRP206     -0.1241
     96  CA       -11.0590    1.0880   24.9550 C.3   206  TRP206      0.1605
     97  C        -12.4170    0.6280   25.4400 C.2   206  TRP206      0.2264
     98  O        -12.6830    0.5830   26.6370 O.2   206  TRP206     -0.2867
     99  CB       -10.0660   -0.0680   25.1110 C.3   206  TRP206      0.0550
    100  CG        -8.9230    0.0040   24.1610 C.ar  206  TRP206      0.0003
    101  CD1       -7.7010    0.5790   24.3760 C.ar  206  TRP206      0.0946
    102  CD2       -8.9120   -0.4640   22.8080 C.ar  206  TRP206      0.0152
    103  NE1       -6.9330    0.5010   23.2390 N.ar  206  TRP206     -0.2442
    104  CE2       -7.6500   -0.1390   22.2620 C.ar  206  TRP206      0.0810
    105  CE3       -9.8470   -1.1350   22.0030 C.ar  206  TRP206      0.0012
    106  CZ2       -7.3000   -0.4520   20.9460 C.ar  206  TRP206      0.0191
    107  CZ3       -9.4980   -1.4480   20.6920 C.ar  206  TRP206      0.0001
    108  CH2       -8.2340   -1.1090   20.1800 C.ar  206  TRP206      0.0015
@<TRIPOS>BOND
     1     4     3    2
     2     3     2    1
     3     1     2    1
     4     2     5    1
     5     5     6    1
     6     6     7    2
     7     6     8   am
     8    13    10    1
     9    13    14    1
    10    22    19    1
    11    22    23    1
    12    19    18    1
    13    19    20    1
    14    10    11    1
    15    10     9    1
    16    17    15   am
    17    14    15    1
    18    15    16    2
    19    20    21    2
    20    11    12    2
    21    23    24   ar
    22    23    25   ar
    23    24    26   ar
    24    28    29    1
    25    25    27   ar
    26    30    29    1
    27    30    31    2
    28    29    32    1
    29    26    27   ar
    30    41    40    2
    31    59    60    1
    32    59    56    1
    33    61    60   ar
    34    61    63   ar
    35    32    33    1
    36    34    33   ar
    37    34    36   ar
    38    94    92    1
    39    60    62   ar
    40    63    65   ar
    41    33    35   ar
    42    36    37   ar
    43    93    92    1
    44    92    89    1
    45    35    37   ar
    46    38    39    1
    47    55    56    1
    48    62    64   ar
    49    65    64   ar
    50    51    50    2
    51    40    39    1
    52    54    52    1
    53    52    53    1
    54    52    49    1
    55    56    57    1
    56    48    49    1
    57    57    58    2
    58    39    42    1
    59    42    43    1
    60    49    50    1
    61    89    90    1
    62    89    88    1
    63    90    91    2
    64    43    44   ar
    65    43    45   ar
    66    44    46   ar
    67    88    83   am
    68    86    85    1
    69    46    47   ar
    70    45    47   ar
    71    84    83    2
    72    79    78    1
    73    83    82    1
    74    80    78    1
    75    77    78    1
    76    77    74    1
    77    85    82    1
    78    85    87    1
    79    71    70    1
    80    82    81    1
    81    81    75   am
    82    72    70    1
    83    74    75    1
    84    74    73    1
    85    75    76    2
    86    70    67    1
    87    67    68    1
    88    67    66    1
    89   108   107   ar
    90   108   106   ar
    91    68    69    2
    92   107   105   ar
    93   106   104   ar
    94   105   102   ar
    95   104   102   ar
    96   104   103   ar
    97   102   100   ar
    98   103   101   ar
    99   100   101   ar
   100   100    99    1
   101    96    99    1
   102    96    97    1
   103    96    95    1
   104    97    98    2
