@<TRIPOS>MOLECULE
tmp/3t60B01.pdb
 114 107 0 0 0
SMALL
GASTEIGER

@<TRIPOS>ATOM
      1  N          6.6930   46.5450  -10.2010 N.3    39  PHE39      -0.1241
      2  CA         6.5890   46.8520   -8.7690 C.3    39  PHE39       0.1605
      3  C          5.3210   47.6490   -8.4210 C.2    39  PHE39       0.2264
      4  O          5.3090   48.8890   -8.4030 O.2    39  PHE39      -0.2867
      5  CB         7.8100   47.6020   -8.3310 C.3    39  PHE39       0.0534
      6  CG         9.0850   46.8260   -8.5020 C.ar   39  PHE39      -0.0203
      7  CD1       10.1600   47.3730   -9.1950 C.ar   39  PHE39      -0.0042
      8  CD2        9.2150   45.5520   -7.9430 C.ar   39  PHE39      -0.0042
      9  CE1       11.3530   46.6660   -9.2980 C.ar   39  PHE39      -0.0003
     10  CE2       10.4040   44.8340   -8.0780 C.ar   39  PHE39      -0.0003
     11  CZ        11.4640   45.3640   -8.7440 C.ar   39  PHE39      -0.0000
     12  N          2.8270   49.4270   -6.3070 N.3    41  LYS41      -0.1245
     13  CA         2.8460   49.9990   -4.9440 C.3    41  LYS41       0.1561
     14  C          1.4700   49.8620   -4.2740 C.2    41  LYS41       0.2260
     15  O          0.4380   49.9600   -4.9570 O.2    41  LYS41      -0.2867
     16  CB         3.3280   51.4460   -4.9410 C.3    41  LYS41       0.0271
     17  CG         4.7420   51.6520   -5.4090 C.3    41  LYS41       0.0035
     18  CD         5.0170   53.1610   -5.4860 C.3    41  LYS41       0.0206
     19  CE         5.7390   53.7060   -6.7730 C.3    41  LYS41       0.1093
     20  NZ         7.1710   53.4920   -6.2840 N.3    41  LYS41      -0.1314
     21  N          4.7200   38.4630    2.7190 N.3    67  LEU67      -0.1245
     22  CA         3.7240   38.8360    1.7220 C.3    67  LEU67       0.1561
     23  C          3.5500   37.6000    0.8790 C.2    67  LEU67       0.2260
     24  O          4.4880   37.1440    0.3160 O.2    67  LEU67      -0.2867
     25  CB         4.2080   40.0890    0.9360 C.3    67  LEU67       0.0270
     26  CG         3.2780   40.7080   -0.1180 C.3    67  LEU67       0.0019
     27  CD1        1.9980   41.3290    0.5330 C.3    67  LEU67       0.0001
     28  CD2        3.9960   41.7410   -0.9700 C.3    67  LEU67       0.0001
     29  N          4.1570   36.1490   -8.1590 N.3    80  LEU80      -0.1245
     30  CA         4.9880   36.9930   -7.3030 C.3    80  LEU80       0.1561
     31  C          6.4400   36.5970   -7.6000 C.2    80  LEU80       0.2260
     32  O          6.8460   35.4370   -7.3930 O.2    80  LEU80      -0.2867
     33  CB         4.6770   36.7850   -5.8170 C.3    80  LEU80       0.0270
     34  CG         4.9120   37.9320   -4.8510 C.3    80  LEU80       0.0019
     35  CD1        3.9160   39.0930   -5.1960 C.3    80  LEU80       0.0001
     36  CD2        4.8000   37.4930   -3.3570 C.3    80  LEU80       0.0001
     37  N          9.3920   37.1990   -6.2990 N.3    82  ASN82      -0.1240
     38  CA        10.3080   36.8630   -5.2480 C.3    82  ASN82       0.1653
     39  C          9.7330   35.7440   -4.3570 C.2    82  ASN82       0.2266
     40  O         10.2600   35.4630   -3.2430 O.2    82  ASN82      -0.2867
     41  CB        10.7750   38.1280   -4.4720 C.3    82  ASN82       0.1155
     42  CG         9.6190   38.8920   -3.8520 C.2    82  ASN82       0.2627
     43  OD1        8.5330   38.9220   -4.4050 O.2    82  ASN82      -0.2716
     44  ND2        9.8430   39.4800   -2.6940 N.am   82  ASN82      -0.0877
     45  N          7.3920   37.5100   -0.1790 N.3    85  GLY85      -0.1210
     46  CA         8.1920   38.6400    0.2430 C.3    85  GLY85       0.1956
     47  C          8.5390   38.5120    1.6890 C.2    85  GLY85       0.2612
     48  O          7.7330   38.0540    2.4660 O.2    85  GLY85      -0.2717
     49  N          9.7540   38.8910    2.0680 N.am   86  LEU86      -0.1965
     50  CA        10.0930   38.9980    3.4760 C.3    86  LEU86       0.1728
     51  C         10.2140   40.4810    3.8790 C.2    86  LEU86       0.2616
     52  O         10.9540   41.2460    3.3000 O.2    86  LEU86      -0.2715
     53  CB        11.3270   38.1330    3.8830 C.3    86  LEU86       0.0311
     54  CG        12.0930   38.5270    5.1700 C.3    86  LEU86       0.0022
     55  CD1       11.2570   38.3040    6.4290 C.3    86  LEU86       0.0001
     56  CD2       13.4010   37.8230    5.2660 C.3    86  LEU86       0.0001
     57  N          9.4050   40.8890    4.8480 N.am   87  ILE87      -0.1963
     58  CA         9.3890   42.2760    5.2310 C.3    87  ILE87       0.1727
     59  C          9.9900   42.4070    6.6010 C.2    87  ILE87       0.2616
     60  O          9.4440   41.9130    7.5770 O.2    87  ILE87      -0.2715
     61  CB         7.9970   42.8750    5.0820 C.3    87  ILE87       0.0290
     62  CG1        7.6390   42.8800    3.5750 C.3    87  ILE87       0.0022
     63  CG2        8.0090   44.2930    5.7150 C.3    87  ILE87       0.0023
     64  CD1        6.2560   42.9930    3.2870 C.3    87  ILE87       0.0001
     65  N         11.1730   43.0080    6.6650 N.am   88  ASP88      -0.1971
     66  CA        11.9280   42.9730    7.8920 C.3    88  ASP88       0.1709
     67  C         11.2800   43.8370    8.9690 C.2    88  ASP88       0.2293
     68  O         10.4790   44.7140    8.6570 O.2    88  ASP88      -0.2864
     69  CB        13.3510   43.4290    7.6290 C.3    88  ASP88       0.1436
     70  CG        14.3230   42.7630    8.5420 C.2    88  ASP88       0.3671
     71  OD1       14.7910   43.4270    9.5260 O.co2  88  ASP88      -0.2456
     72  OD2       14.5800   41.5460    8.2740 O.co2  88  ASP88      -0.2456
     73  N         11.8500   47.6030    8.3180 N.3    91  TYR91      -0.1241
     74  CA        11.3260   48.2760    7.1380 C.3    91  TYR91       0.1605
     75  C         10.2050   49.2940    7.4510 C.2    91  TYR91       0.2264
     76  O          9.1530   48.9290    8.0200 O.2    91  TYR91      -0.2867
     77  CB        10.8470   47.2600    6.1330 C.3    91  TYR91       0.0534
     78  CG        10.4170   47.8620    4.8580 C.ar   91  TYR91      -0.0201
     79  CD1       11.3240   48.5430    4.0430 C.ar   91  TYR91      -0.0009
     80  CD2        9.1000   47.7310    4.4230 C.ar   91  TYR91      -0.0009
     81  CE1       10.9290   49.0650    2.8150 C.ar   91  TYR91       0.0417
     82  CE2        8.6970   48.2770    3.1860 C.ar   91  TYR91       0.0417
     83  CZ         9.6260   48.9310    2.4010 C.ar   91  TYR91       0.1957
     84  OH         9.2150   49.4790    1.2160 O.3    91  TYR91      -0.2866
     85  N          6.9850   52.0020    1.7770 N.3    94  GLU94      -0.1231
     86  CA         5.7440   51.5260    1.2000 C.3    94  GLU94       0.1699
     87  C          5.8710   50.0130    0.8950 C.2    94  GLU94       0.2592
     88  O          6.9720   49.4990    0.6190 O.2    94  GLU94      -0.2718
     89  CB         5.3650   52.3220   -0.0420 C.3    94  GLU94       0.0402
     90  CG         4.0290   51.8990   -0.5780 C.3    94  GLU94       0.1161
     91  CD         3.4650   52.8070   -1.6800 C.2    94  GLU94       0.3649
     92  OE1        2.2310   52.7560   -1.8940 O.co2  94  GLU94      -0.2457
     93  OE2        4.2420   53.5580   -2.3310 O.co2  94  GLU94      -0.2457
     94  N          4.7520   49.3030    0.9500 N.am   95  ILE95      -0.1966
     95  CA         4.7470   47.8820    0.7610 C.3    95  ILE95       0.1727
     96  C          4.3260   47.6350   -0.6720 C.2    95  ILE95       0.2616
     97  O          3.2760   48.1450   -1.1000 O.2    95  ILE95      -0.2715
     98  CB         3.8380   47.1840    1.8300 C.3    95  ILE95       0.0290
     99  CG1        4.4810   47.3660    3.2220 C.3    95  ILE95       0.0022
    100  CG2        3.6180   45.6810    1.4610 C.3    95  ILE95       0.0023
    101  CD1        3.8850   46.5150    4.2880 C.3    95  ILE95       0.0001
    102  N          5.1690   46.8730   -1.3960 N.am   96  ILE96      -0.1977
    103  CA         5.1370   46.6820   -2.8600 C.3    96  ILE96       0.1596
    104  C          5.0020   45.1950   -3.2430 C.2    96  ILE96       0.2287
    105  O          5.6580   44.3570   -2.6640 O.2    96  ILE96      -0.2864
    106  CB         6.5020   47.1420   -3.4540 C.3    96  ILE96       0.0276
    107  CG1        6.9270   48.4650   -2.7750 C.3    96  ILE96       0.0022
    108  CG2        6.4990   47.0350   -4.9910 C.3    96  ILE96       0.0022
    109  CD1        7.4220   49.5130   -3.6460 C.3    96  ILE96       0.0001
    110  N          6.0160   42.6990   -6.0440 N.3    98  ALA98      -0.1245
    111  CA         6.7240   42.3820   -7.3210 C.3    98  ALA98       0.1562
    112  C          5.9450   41.3750   -8.2010 C.2    98  ALA98       0.2260
    113  O          5.9620   40.1910   -7.9110 O.2    98  ALA98      -0.2867
    114  CB         8.1470   41.9150   -7.0420 C.3    98  ALA98       0.0290
@<TRIPOS>BOND
     1     1     2    1
     2     9     7   ar
     3     9    11   ar
     4     7     6   ar
     5     2     3    1
     6     2     5    1
     7    11    10   ar
     8     6     5    1
     9     6     8   ar
    10     3     4    2
    11   112   113    2
    12   112   111    1
    13    29    30    1
    14    10     8   ar
    15    31    32    2
    16    31    30    1
    17   111   114    1
    18   111   110    1
    19    30    33    1
    20    19    20    1
    21    19    18    1
    22    12    13    1
    23    37    38    1
    24    33    34    1
    25    18    17    1
    26    17    16    1
    27    38    41    1
    28    38    39    1
    29    35    34    1
    30   108   106    1
    31    15    14    2
    32    13    16    1
    33    13    14    1
    34    34    36    1
    35    41    42    1
    36    43    42    2
    37    39    40    2
    38    42    44   am
    39   109   107    1
    40   106   103    1
    41   106   107    1
    42   104   103    1
    43   104   105    2
    44   103   102    1
    45    93    91   ar
    46    92    91   ar
    47    91    90    1
    48   102    96   am
    49    97    96    2
    50    28    26    1
    51    96    95    1
    52    90    89    1
    53    45    46    1
    54    26    27    1
    55    26    25    1
    56    89    86    1
    57    46    47    1
    58    24    23    2
    59    88    87    2
    60    95    94    1
    61    95    98    1
    62    23    22    1
    63    87    94   am
    64    87    86    1
    65    25    22    1
    66    86    85    1
    67    84    83    1
    68   100    98    1
    69    47    49   am
    70    47    48    2
    71    22    21    1
    72    98    99    1
    73    49    50    1
    74    83    81   ar
    75    83    82   ar
    76    81    79   ar
    77    82    80   ar
    78    99   101    1
    79    64    62    1
    80    52    51    2
    81    50    51    1
    82    50    53    1
    83    62    61    1
    84    51    57   am
    85    53    54    1
    86    79    78   ar
    87    80    78   ar
    88    57    58    1
    89    78    77    1
    90    61    58    1
    91    61    63    1
    92    54    56    1
    93    54    55    1
    94    58    59    1
    95    77    74    1
    96    59    65   am
    97    59    60    2
    98    65    66    1
    99    74    75    1
   100    74    73    1
   101    75    76    2
   102    69    66    1
   103    69    70    1
   104    66    67    1
   105    72    70   ar
   106    70    71   ar
   107    68    67    2
