@<TRIPOS>MOLECULE
tmp/3t64A00.pdb
 119 113 0 0 0
SMALL
GASTEIGER

@<TRIPOS>ATOM
      1  N         -5.5370   22.9200  -11.9230 N.3    46  PHE46      -0.1241
      2  CA        -5.8490   22.7680  -10.4940 C.3    46  PHE46       0.1605
      3  C         -5.9830   21.2840  -10.1950 C.2    46  PHE46       0.2264
      4  O         -7.0380   20.6630  -10.4330 O.2    46  PHE46      -0.2867
      5  CB        -7.0810   23.6030  -10.1310 C.3    46  PHE46       0.0534
      6  CG        -6.8580   25.0740  -10.3380 C.ar   46  PHE46      -0.0203
      7  CD1       -7.0510   25.6510  -11.5950 C.ar   46  PHE46      -0.0042
      8  CD2       -6.3910   25.8620   -9.3070 C.ar   46  PHE46      -0.0042
      9  CE1       -6.7970   27.0240  -11.7900 C.ar   46  PHE46      -0.0003
     10  CE2       -6.1510   27.2130   -9.4890 C.ar   46  PHE46      -0.0003
     11  CZ        -6.3410   27.7950  -10.7370 C.ar   46  PHE46      -0.0000
     12  N         -6.2960   17.9940   -8.2320 N.3    48  LYS48      -0.1245
     13  CA        -6.9370   17.5170   -7.0060 C.3    48  LYS48       0.1561
     14  C         -6.0970   16.4230   -6.3620 C.2    48  LYS48       0.2260
     15  O         -5.7300   15.4410   -7.0240 O.2    48  LYS48      -0.2867
     16  CB        -8.3360   16.9720   -7.3410 C.3    48  LYS48       0.0271
     17  CG        -9.3310   18.0450   -7.7710 C.3    48  LYS48       0.0035
     18  CD       -10.6790   17.4150   -8.1540 C.3    48  LYS48       0.0206
     19  CE       -11.6960   18.4630   -8.5450 C.3    48  LYS48       0.1093
     20  NZ       -12.8700   17.8250   -9.2300 N.3    48  LYS48      -0.1314
     21  N          1.2850   24.5450    2.0720 N.3    74  LEU74      -0.1245
     22  CA         1.5400   23.6140    1.0030 C.3    74  LEU74       0.1561
     23  C          2.7790   24.1090    0.2160 C.2    74  LEU74       0.2260
     24  O          2.7270   25.1450   -0.4230 O.2    74  LEU74      -0.2867
     25  CB         0.3090   23.5270    0.1000 C.3    74  LEU74       0.0270
     26  CG         0.4330   22.5740   -1.1070 C.3    74  LEU74       0.0019
     27  CD1        0.4940   21.1030   -0.7160 C.3    74  LEU74       0.0001
     28  CD2       -0.7260   22.7740   -2.1080 C.3    74  LEU74       0.0001
     29  N          4.5550   25.8680   -8.7400 N.3    87  LEU87      -0.1245
     30  CA         3.3380   26.1490   -7.9680 C.3    87  LEU87       0.1561
     31  C          2.8970   27.5970   -8.1880 C.2    87  LEU87       0.2260
     32  O          3.6290   28.5420   -7.8590 O.2    87  LEU87      -0.2867
     33  CB         3.5600   25.8830   -6.4630 C.3    87  LEU87       0.0270
     34  CG         2.2700   25.5650   -5.6870 C.3    87  LEU87       0.0019
     35  CD1        1.6770   24.2330   -6.0920 C.3    87  LEU87       0.0001
     36  CD2        2.6760   25.5470   -4.2290 C.3    87  LEU87       0.0001
     37  N          0.7040   29.6960   -6.9360 N.3    89  ASN89      -0.1240
     38  CA         0.5790   30.6220   -5.8060 C.3    89  ASN89       0.1653
     39  C          1.7890   30.6300   -4.8580 C.2    89  ASN89       0.2266
     40  O          1.7130   31.1490   -3.7370 O.2    89  ASN89      -0.2867
     41  CB        -0.7410   30.3580   -5.0630 C.3    89  ASN89       0.1155
     42  CG        -0.8980   28.9150   -4.6390 C.2    89  ASN89       0.2627
     43  OD1       -0.4630   27.9870   -5.3260 O.2    89  ASN89      -0.2716
     44  ND2       -1.5680   28.7080   -3.5000 N.am   89  ASN89      -0.0877
     45  N          1.1310   27.4920   -0.7170 N.3    92  GLY92      -0.1210
     46  CA        -0.3280   27.4860   -0.4480 C.3    92  GLY92       0.1956
     47  C         -0.5440   27.6740    1.0330 C.2    92  GLY92       0.2612
     48  O          0.1690   27.0770    1.8540 O.2    92  GLY92      -0.2717
     49  N         -1.5250   28.5040    1.3680 N.am   93  LEU93      -0.1965
     50  CA        -1.8610   28.7550    2.7620 C.3    93  LEU93       0.1728
     51  C         -3.2330   28.1310    2.9840 C.2    93  LEU93       0.2616
     52  O         -4.2270   28.5630    2.3860 O.2    93  LEU93      -0.2715
     53  CB        -1.8780   30.2590    3.0440 C.3    93  LEU93       0.0311
     54  CG        -1.7800   30.7070    4.5100 C.3    93  LEU93       0.0022
     55  CD1       -1.8570   32.2220    4.5980 C.3    93  LEU93       0.0001
     56  CD2       -2.8680   30.0890    5.3760 C.3    93  LEU93       0.0001
     57  N         -3.2740   27.0990    3.8210 N.am   94  ILE94      -0.1963
     58  CA        -4.5220   26.3830    4.0900 C.3    94  ILE94       0.1727
     59  C         -5.0060   26.8890    5.4310 C.2    94  ILE94       0.2616
     60  O         -4.3860   26.6030    6.4310 O.2    94  ILE94      -0.2715
     61  CB        -4.2990   24.8330    4.1750 C.3    94  ILE94       0.0290
     62  CG1       -3.4740   24.2960    2.9880 C.3    94  ILE94       0.0022
     63  CG2       -5.6590   24.1030    4.2800 C.3    94  ILE94       0.0023
     64  CD1       -4.1430   24.4570    1.6660 C.3    94  ILE94       0.0001
     65  N         -6.0880   27.6640    5.4600 N.am   95  ASP95      -0.1971
     66  CA        -6.5460   28.2100    6.7360 C.3    95  ASP95       0.1709
     67  C         -7.1600   27.1080    7.6080 C.2    95  ASP95       0.2293
     68  O         -7.6640   26.0980    7.0860 O.2    95  ASP95      -0.2864
     69  CB        -7.5410   29.3570    6.5240 C.3    95  ASP95       0.1436
     70  CG        -6.9090   30.5530    5.8200 C.2    95  ASP95       0.3671
     71  OD1       -6.2380   31.3720    6.5030 O.co2  95  ASP95      -0.2456
     72  OD2       -7.0680   30.6580    4.5750 O.co2  95  ASP95      -0.2456
     73  N        -10.6060   25.3420    6.6290 N.3    98  TYR98      -0.1241
     74  CA       -10.8430   24.7780    5.3130 C.3    98  TYR98       0.1605
     75  C        -11.1170   23.2800    5.4210 C.2    98  TYR98       0.2264
     76  O        -10.3450   22.5370    6.0280 O.2    98  TYR98      -0.2867
     77  CB        -9.6470   25.0490    4.3710 C.3    98  TYR98       0.0534
     78  CG        -9.8400   24.5320    2.9670 C.ar   98  TYR98      -0.0201
     79  CD1      -10.7700   25.1190    2.0960 C.ar   98  TYR98      -0.0009
     80  CD2       -9.0740   23.4720    2.4910 C.ar   98  TYR98      -0.0009
     81  CE1      -10.9390   24.6450    0.7900 C.ar   98  TYR98       0.0417
     82  CE2       -9.2260   22.9980    1.1950 C.ar   98  TYR98       0.0417
     83  CZ       -10.1610   23.5890    0.3450 C.ar   98  TYR98       0.1957
     84  OH       -10.3310   23.0990   -0.9360 O.3    98  TYR98      -0.2866
     85  N        -11.2090   19.7390   -0.5180 N.3   101  GLU101     -0.1231
     86  CA       -10.0970   18.9400   -1.0370 C.3   101  GLU101      0.1699
     87  C         -8.8490   19.8120   -1.2130 C.2   101  GLU101      0.2592
     88  O         -8.9480   20.9610   -1.6740 O.2   101  GLU101     -0.2718
     89  CB       -10.4940   18.3330   -2.3760 C.3   101  GLU101      0.0402
     90  CG        -9.5020   17.3170   -2.9310 C.3   101  GLU101      0.1161
     91  CD       -10.0720   16.5550   -4.0990 C.2   101  GLU101      0.3649
     92  OE1       -9.4120   15.6160   -4.5740 O.co2 101  GLU101     -0.2457
     93  OE2      -11.2080   16.8700   -4.5330 O.co2 101  GLU101     -0.2457
     94  N         -7.6880   19.2460   -0.8990 N.am  102  ILE102     -0.1966
     95  CA        -6.4400   19.9760   -1.0940 C.3   102  ILE102      0.1727
     96  C         -6.0560   19.9020   -2.5710 C.2   102  ILE102      0.2616
     97  O         -6.0780   18.8390   -3.1920 O.2   102  ILE102     -0.2715
     98  CB        -5.3220   19.4680   -0.1850 C.3   102  ILE102      0.0290
     99  CG1       -5.7710   19.5740    1.2770 C.3   102  ILE102      0.0022
    100  CG2       -4.0370   20.2830   -0.4100 C.3   102  ILE102      0.0023
    101  CD1       -4.8040   18.9570    2.2370 C.3   102  ILE102      0.0001
    102  N         -5.7530   21.0700   -3.1230 N.am  103  ILE103     -0.1963
    103  CA        -5.4790   21.2200   -4.5490 C.3   103  ILE103      0.1727
    104  C         -4.0970   21.8610   -4.7350 C.2   103  ILE103      0.2616
    105  O         -3.7050   22.7660   -3.9890 O.2   103  ILE103     -0.2715
    106  CB        -6.6000   22.0810   -5.1890 C.3   103  ILE103      0.0290
    107  CG1       -7.8670   21.2270   -5.3530 C.3   103  ILE103      0.0022
    108  CG2       -6.1720   22.6490   -6.5570 C.3   103  ILE103      0.0023
    109  CD1       -9.1190   22.0210   -5.3430 C.3   103  ILE103      0.0001
    110  N         -3.3450   21.3750   -5.7330 N.am  104  ALA104     -0.1963
    111  CA        -2.0890   22.0450   -6.1510 C.3   104  ALA104      0.1728
    112  C         -2.3200   22.7290   -7.4950 C.2   104  ALA104      0.2616
    113  O         -2.6770   22.0560   -8.4590 O.2   104  ALA104     -0.2715
    114  CB        -0.9700   21.0090   -6.2850 C.3   104  ALA104      0.0334
    115  N         -2.1700   24.0530   -7.5340 N.am  105  ALA105     -0.1977
    116  CA        -2.3030   24.8140   -8.7750 C.3   105  ALA105      0.1597
    117  C         -0.9400   24.7960   -9.4660 C.2   105  ALA105      0.2287
    118  O         -0.0100   25.4700   -9.0160 O.2   105  ALA105     -0.2864
    119  CB        -2.7190   26.2550   -8.4660 C.3   105  ALA105      0.0319
@<TRIPOS>BOND
     1     1     2    1
     2     9     7   ar
     3     9    11   ar
     4     7     6   ar
     5    11    10   ar
     6     2     3    1
     7     2     5    1
     8     4     3    2
     9     6     5    1
    10     6     8   ar
    11    10     8   ar
    12   117   118    2
    13   117   116    1
    14    20    19    1
    15   116   119    1
    16   116   115    1
    17    29    30    1
    18    19    18    1
    19   113   112    2
    20    12    13    1
    21    31    30    1
    22    31    32    2
    23    18    17    1
    24    30    33    1
    25    17    16    1
    26   115   112   am
    27   112   111    1
    28    16    13    1
    29    15    14    2
    30    13    14    1
    31    37    38    1
    32   108   106    1
    33    33    34    1
    34   114   111    1
    35   111   110    1
    36    35    34    1
    37    38    41    1
    38    38    39    1
    39   110   104   am
    40    34    36    1
    41   107   109    1
    42   107   106    1
    43    43    42    2
    44   106   103    1
    45    41    42    1
    46    39    40    2
    47   104   103    1
    48   104   105    2
    49    42    44   am
    50    92    91   ar
    51   103   102    1
    52    93    91   ar
    53    91    90    1
    54    97    96    2
    55   102    96   am
    56    90    89    1
    57    96    95    1
    58    89    86    1
    59    28    26    1
    60    88    87    2
    61    87    86    1
    62    87    94   am
    63    26    27    1
    64    26    25    1
    65    95    94    1
    66    95    98    1
    67    86    85    1
    68    84    83    1
    69    45    46    1
    70    46    47    1
    71    24    23    2
    72   100    98    1
    73    98    99    1
    74    25    22    1
    75    23    22    1
    76    83    81   ar
    77    83    82   ar
    78    81    79   ar
    79    22    21    1
    80    47    49   am
    81    47    48    2
    82    82    80   ar
    83    99   101    1
    84    49    50    1
    85    64    62    1
    86    79    78   ar
    87    52    51    2
    88    80    78   ar
    89    50    51    1
    90    50    53    1
    91    78    77    1
    92    51    57   am
    93    62    61    1
    94    53    54    1
    95    57    58    1
    96    58    61    1
    97    58    59    1
    98    61    63    1
    99    77    74    1
   100    54    55    1
   101    54    56    1
   102    72    70   ar
   103    74    75    1
   104    74    73    1
   105    75    76    2
   106    59    65   am
   107    59    60    2
   108    65    66    1
   109    70    71   ar
   110    70    69    1
   111    69    66    1
   112    66    67    1
   113    68    67    2
