@<TRIPOS>MOLECULE
tmp/3t6aD00.pdb
 80 75 0 0 0
SMALL
GASTEIGER

@<TRIPOS>ATOM
      1  N         31.5610   80.3070   74.2410 N.3   184  GLY184     -0.1210
      2  CA        30.3760   80.7000   74.9800 C.3   184  GLY184      0.1956
      3  C         30.6540   80.9900   76.4400 C.2   184  GLY184      0.2611
      4  O         29.7600   80.8240   77.2880 O.2   184  GLY184     -0.2717
      5  N         31.8820   81.4350   76.7250 N.am  185  ARG185     -0.1979
      6  CA        32.3240   81.7670   78.0840 C.3   185  ARG185      0.1597
      7  C         32.2850   83.2520   78.4250 C.2   185  ARG185      0.2287
      8  O         32.7960   83.6420   79.4690 O.2   185  ARG185     -0.2864
      9  CB        33.7690   81.3160   78.3100 C.3   185  ARG185      0.0334
     10  CG        34.1440   80.0440   77.6020 C.3   185  ARG185      0.0492
     11  CD        33.2310   78.9370   78.0280 C.3   185  ARG185      0.2205
     12  NE        33.1970   78.8120   79.4800 N.pl3 185  ARG185     -0.0865
     13  CZ        34.0000   78.0130   80.1700 C.cat 185  ARG185      0.5346
     14  NH1       34.9030   77.2690   79.5360 N.pl3 185  ARG185      0.1354
     15  NH2       33.8960   77.9570   81.4910 N.pl3 185  ARG185      0.1354
     16  N         30.4920   85.2280   79.7930 N.3   187  SER187     -0.1217
     17  CA        29.8250   85.6920   81.0070 C.3   187  SER187      0.1889
     18  C         30.7540   85.6260   82.2080 C.2   187  SER187      0.2288
     19  O         30.4940   86.2280   83.2550 O.2   187  SER187     -0.2866
     20  CB        28.5810   84.8400   81.2850 C.3   187  SER187      0.2089
     21  OG        28.9540   83.5160   81.6450 O.3   187  SER187     -0.2183
     22  N         24.8330   75.0610   74.4160 N.3   231  LEU231     -0.1231
     23  CA        24.2170   75.3130   75.7110 C.3   231  LEU231      0.1693
     24  C         24.8280   76.5310   76.4250 C.2   231  LEU231      0.2592
     25  O         24.1310   77.2900   77.0980 O.2   231  LEU231     -0.2718
     26  CB        24.3350   74.0720   76.5820 C.3   231  LEU231      0.0284
     27  CG        23.7280   74.1460   77.9780 C.3   231  LEU231      0.0019
     28  CD1       22.2720   74.5440   77.8750 C.3   231  LEU231      0.0001
     29  CD2       23.8640   72.7940   78.6570 C.3   231  LEU231      0.0001
     30  N         26.1320   76.7280   76.2830 N.am  232  ASN232     -0.1974
     31  CA        26.7610   77.9070   76.8810 C.3   232  ASN232      0.1688
     32  C         26.1670   79.2120   76.3540 C.2   232  ASN232      0.2292
     33  O         25.8350   80.1140   77.1210 O.2   232  ASN232     -0.2864
     34  CB        28.2680   77.9100   76.6360 C.3   232  ASN232      0.1181
     35  CG        28.9930   76.8990   77.4910 C.2   232  ASN232      0.2629
     36  OD1       28.4130   76.3100   78.3940 O.2   232  ASN232     -0.2716
     37  ND2       30.2710   76.7040   77.2190 N.am  232  ASN232     -0.0877
     38  N         22.2410   79.4780   77.2830 N.3   235  ALA235     -0.1231
     39  CA        22.0830   79.8820   78.6910 C.3   235  ALA235      0.1694
     40  C         22.5280   81.3150   78.9080 C.2   235  ALA235      0.2592
     41  O         21.9280   82.0380   79.6990 O.2   235  ALA235     -0.2718
     42  CB        22.8600   78.9820   79.6390 C.3   235  ALA235      0.0304
     43  N         23.6140   81.7060   78.2460 N.am  236  THR236     -0.1953
     44  CA        24.0890   83.0810   78.3360 C.3   236  THR236      0.1897
     45  C         23.0310   84.0270   77.7560 C.2   236  THR236      0.2313
     46  O         22.7490   85.0710   78.3410 O.2   236  THR236     -0.2863
     47  CB        25.4680   83.2640   77.6420 C.3   236  THR236      0.1794
     48  OG1       26.4430   82.4700   78.3230 O.3   236  THR236     -0.2208
     49  CG2       25.9190   84.7250   77.6650 C.3   236  THR236      0.0378
     50  N         19.8100   83.5110   77.7140 N.3   238  ARG238     -0.1231
     51  CA        18.7380   83.6520   78.6920 C.3   238  ARG238      0.1694
     52  C         19.1050   84.7500   79.6890 C.2   238  ARG238      0.2592
     53  O         18.3140   85.6650   79.9390 O.2   238  ARG238     -0.2718
     54  CB        18.4160   82.3570   79.4410 C.3   238  ARG238      0.0321
     55  CG        17.3930   82.6000   80.5640 C.3   238  ARG238      0.0489
     56  CD        16.9490   81.3530   81.3060 C.3   238  ARG238      0.2205
     57  NE        18.0550   80.6630   81.9640 N.pl3 238  ARG238     -0.0865
     58  CZ        17.9130   79.5460   82.6770 C.cat 238  ARG238      0.5346
     59  NH1       16.7070   79.0100   82.8270 N.pl3 238  ARG238      0.1354
     60  NH2       18.9710   78.9660   83.2410 N.pl3 238  ARG238      0.1354
     61  N         20.3080   84.6570   80.2540 N.am  239  PHE239     -0.1976
     62  CA        20.7970   85.6590   81.2070 C.3   239  PHE239      0.1639
     63  C         20.8300   87.0800   80.6080 C.2   239  PHE239      0.2290
     64  O         20.3480   88.0410   81.2160 O.2   239  PHE239     -0.2864
     65  CB        22.1790   85.2610   81.7070 C.3   239  PHE239      0.0560
     66  CG        22.7990   86.2590   82.6300 C.ar  239  PHE239     -0.0200
     67  CD1       22.2510   86.5000   83.8750 C.ar  239  PHE239     -0.0042
     68  CD2       23.9450   86.9390   82.2630 C.ar  239  PHE239     -0.0042
     69  CE1       22.8340   87.4200   84.7400 C.ar  239  PHE239     -0.0003
     70  CE2       24.5310   87.8560   83.1240 C.ar  239  PHE239     -0.0003
     71  CZ        23.9770   88.0950   84.3620 C.ar  239  PHE239     -0.0000
     72  N         17.3280   88.7070   80.5250 N.3   242  GLU242     -0.1245
     73  CA        16.8750   89.0990   81.8630 C.3   242  GLU242      0.1567
     74  C         17.6870   90.2450   82.4630 C.2   242  GLU242      0.2260
     75  O         17.1830   91.0060   83.2970 O.2   242  GLU242     -0.2867
     76  CB        16.8770   87.9060   82.8320 C.3   242  GLU242      0.0388
     77  CG        15.7210   86.9260   82.6340 C.3   242  GLU242      0.1160
     78  CD        15.6450   85.8480   83.7190 C.2   242  GLU242      0.3649
     79  OE1       15.3900   84.6680   83.3800 O.co2 242  GLU242     -0.2457
     80  OE2       15.8260   86.1780   84.9130 O.co2 242  GLU242     -0.2457
@<TRIPOS>BOND
     1     1     2    1
     2    22    23    1
     3     2     3    1
     4    23    24    1
     5    23    26    1
     6    30    24   am
     7    30    31    1
     8    32    31    1
     9    32    33    2
    10    24    25    2
    11     3     5   am
    12     3     4    2
    13    26    27    1
    14    34    31    1
    15    34    35    1
    16     5     6    1
    17    37    35   am
    18    38    39    1
    19    35    36    2
    20    10    11    1
    21    10     9    1
    22    47    49    1
    23    47    48    1
    24    47    44    1
    25    50    51    1
    26    45    44    1
    27    45    46    2
    28    28    27    1
    29    27    29    1
    30    11    12    1
    31     6     9    1
    32     6     7    1
    33    43    44    1
    34    43    40   am
    35     7     8    2
    36    39    40    1
    37    39    42    1
    38    51    54    1
    39    51    52    1
    40    40    41    2
    41    54    55    1
    42    12    13    2
    43    14    13    1
    44    52    53    2
    45    52    61   am
    46    16    17    1
    47    13    15    1
    48    61    62    1
    49    72    73    1
    50    55    56    1
    51    63    62    1
    52    63    64    2
    53    17    20    1
    54    17    18    1
    55    62    65    1
    56    20    21    1
    57    56    57    1
    58    65    66    1
    59    73    74    1
    60    73    76    1
    61    57    58    2
    62    18    19    2
    63    68    66   ar
    64    68    70   ar
    65    74    75    2
    66    66    67   ar
    67    77    76    1
    68    77    78    1
    69    58    59    1
    70    58    60    1
    71    70    71   ar
    72    79    78   ar
    73    78    80   ar
    74    67    69   ar
    75    71    69   ar
