@<TRIPOS>MOLECULE
tmp/3t6dD00.pdb
 163 159 0 0 0
SMALL
GASTEIGER

@<TRIPOS>ATOM
      1  N        -71.5750 -102.9340   38.5380 N.3   212  LEU212     -0.1231
      2  CA       -72.9770 -103.1500   38.7180 C.3   212  LEU212      0.1693
      3  C        -73.8260 -102.0280   38.1510 C.2   212  LEU212      0.2591
      4  O        -74.7980 -102.2590   37.4020 O.2   212  LEU212     -0.2718
      5  CB       -73.2890 -103.3730   40.1650 C.3   212  LEU212      0.0284
      6  CG       -74.6770 -103.8890   40.5330 C.3   212  LEU212      0.0019
      7  CD1      -74.5740 -104.2360   42.0810 C.3   212  LEU212      0.0001
      8  CD2      -75.7620 -102.8010   40.2680 C.3   212  LEU212      0.0001
      9  N        -73.4410 -100.8200   38.4570 N.am  213  LEU213     -0.1980
     10  CA       -74.2480  -99.6690   38.0600 C.3   213  LEU213      0.1596
     11  C        -74.1670  -99.3690   36.5300 C.2   213  LEU213      0.2287
     12  O        -75.1390  -98.9240   35.9520 O.2   213  LEU213     -0.2864
     13  CB       -73.8360  -98.4420   38.8320 C.3   213  LEU213      0.0297
     14  CG       -74.8410  -97.6870   39.7140 C.3   213  LEU213      0.0022
     15  CD1      -74.4220  -96.1890   39.7710 C.3   213  LEU213      0.0001
     16  CD2      -76.3290  -97.8080   39.2840 C.3   213  LEU213      0.0001
     17  N        -76.3410 -102.0950   34.8980 N.3   216  ALA216     -0.1231
     18  CA       -77.7310 -101.8230   35.2140 C.3   216  ALA216      0.1694
     19  C        -78.2460 -100.6080   34.4810 C.2   216  ALA216      0.2592
     20  O        -79.3340 -100.6590   33.9150 O.2   216  ALA216     -0.2718
     21  CB       -77.9970 -101.7280   36.7810 C.3   216  ALA216      0.0304
     22  N        -77.4850  -99.5300   34.4890 N.am  217  HIS217     -0.1976
     23  CA       -77.9050  -98.3040   33.8810 C.3   217  HIS217      0.1656
     24  C        -77.8910  -98.4440   32.3410 C.2   217  HIS217      0.2291
     25  O        -78.8080  -98.0150   31.6800 O.2   217  HIS217     -0.2864
     26  CB       -77.0350  -97.1140   34.3420 C.3   217  HIS217      0.0771
     27  CG       -77.3830  -95.8130   33.6570 C.ar  217  HIS217      0.0820
     28  ND1      -78.6250  -95.2250   33.7740 N.ar  217  HIS217     -0.2267
     29  CD2      -76.6820  -95.0410   32.7900 C.ar  217  HIS217      0.1154
     30  CE1      -78.6630  -94.1380   33.0110 C.ar  217  HIS217      0.1986
     31  NE2      -77.4900  -94.0020   32.4080 N.ar  217  HIS217     -0.2212
     32  N        -80.6570 -100.5510   31.3890 N.3   220  THR220     -0.1203
     33  CA       -81.9500  -99.9060   31.6410 C.3   220  THR220      0.1994
     34  C        -82.2730  -98.9980   30.4580 C.2   220  THR220      0.2617
     35  O        -83.3570  -99.0190   29.9470 O.2   220  THR220     -0.2717
     36  CB       -81.9630  -99.1050   32.9660 C.3   220  THR220      0.1784
     37  OG1      -81.8510 -100.0020   34.0500 O.3   220  THR220     -0.2211
     38  CG2      -83.2470  -98.2510   33.1560 C.3   220  THR220      0.0376
     39  N        -81.3430  -98.1550   30.0620 N.am  221  ILE221     -0.1979
     40  CA       -81.5760  -97.2580   28.9770 C.3   221  ILE221      0.1595
     41  C        -81.7730  -97.9560   27.6420 C.2   221  ILE221      0.2287
     42  O        -82.5790  -97.5310   26.8600 O.2   221  ILE221     -0.2864
     43  CB       -80.4420  -96.2700   28.8890 C.3   221  ILE221      0.0276
     44  CG1      -80.3800  -95.4870   30.2180 C.3   221  ILE221      0.0022
     45  CG2      -80.5670  -95.3540   27.5690 C.3   221  ILE221      0.0022
     46  CD1      -81.6920  -94.7280   30.6560 C.3   221  ILE221      0.0001
     47  N        -88.5400  -92.9470   31.2910 N.3   243  VAL243     -0.1245
     48  CA       -87.8730  -92.9110   32.5760 C.3   243  VAL243      0.1561
     49  C        -88.8860  -93.1670   33.6850 C.2   243  VAL243      0.2260
     50  O        -88.5190  -93.6170   34.7340 O.2   243  VAL243     -0.2867
     51  CB       -87.0590  -91.6010   32.7880 C.3   243  VAL243      0.0252
     52  CG1      -86.0020  -91.5380   31.7530 C.3   243  VAL243      0.0019
     53  CG2      -87.9540  -90.3590   32.7970 C.3   243  VAL243      0.0019
     54  N        -88.4180  -96.9630   33.5040 N.3   246  ALA246     -0.1231
     55  CA       -87.1440  -97.2720   34.1470 C.3   246  ALA246      0.1694
     56  C        -87.2820  -97.2090   35.6680 C.2   246  ALA246      0.2591
     57  O        -86.8530  -98.1050   36.3840 O.2   246  ALA246     -0.2718
     58  CB       -86.0380  -96.2700   33.6450 C.3   246  ALA246      0.0304
     59  N        -87.9030  -96.1520   36.1780 N.am  247  ALA247     -0.1980
     60  CA       -87.9450  -95.9510   37.6360 C.3   247  ALA247      0.1597
     61  C        -88.8180  -97.0260   38.2220 C.2   247  ALA247      0.2287
     62  O        -88.4780  -97.5590   39.2710 O.2   247  ALA247     -0.2864
     63  CB       -88.5040  -94.5750   38.0080 C.3   247  ALA247      0.0319
     64  N        -87.1460 -100.5450   38.5670 N.3   250  TRP250     -0.1241
     65  CA       -86.3300 -100.6390   39.7430 C.3   250  TRP250      0.1605
     66  C        -87.1390 -100.6210   41.0340 C.2   250  TRP250      0.2264
     67  O        -86.9020 -101.4220   41.9030 O.2   250  TRP250     -0.2867
     68  CB       -85.2720  -99.5480   39.6800 C.3   250  TRP250      0.0550
     69  CG       -84.2910  -99.8850   38.6540 C.ar  250  TRP250      0.0003
     70  CD1      -84.0900  -99.2600   37.4630 C.ar  250  TRP250      0.0946
     71  CD2      -83.4060 -101.0020   38.6870 C.ar  250  TRP250      0.0152
     72  NE1      -83.1030  -99.9150   36.7610 N.ar  250  TRP250     -0.2442
     73  CE2      -82.6940 -101.0050   37.4770 C.ar  250  TRP250      0.0810
     74  CE3      -83.1950 -102.0450   39.6030 C.ar  250  TRP250      0.0012
     75  CZ2      -81.7070 -101.9760   37.1700 C.ar  250  TRP250      0.0191
     76  CZ3      -82.2080 -103.0220   39.3110 C.ar  250  TRP250      0.0001
     77  CH2      -81.4970 -102.9870   38.0900 C.ar  250  TRP250      0.0015
     78  N        -88.5890 -103.9250   41.5170 N.3   253  THR253     -0.1203
     79  CA       -87.5930 -104.9810   41.7440 C.3   253  THR253      0.1994
     80  C        -86.9630 -104.8300   43.1560 C.2   253  THR253      0.2617
     81  O        -87.0740 -105.7270   43.9800 O.2   253  THR253     -0.2717
     82  CB       -86.4710 -104.9380   40.7050 C.3   253  THR253      0.1784
     83  OG1      -87.0430 -105.0600   39.4020 O.3   253  THR253     -0.2211
     84  CG2      -85.4180 -106.0930   40.9260 C.3   253  THR253      0.0376
     85  N        -86.3360 -103.6730   43.4220 N.am  254  ILE254     -0.1979
     86  CA       -85.6300 -103.4270   44.6620 C.3   254  ILE254      0.1595
     87  C        -86.3360 -102.5470   45.7640 C.2   254  ILE254      0.2287
     88  O        -85.7750 -102.3250   46.7880 O.2   254  ILE254     -0.2864
     89  CB       -84.1980 -102.8730   44.3540 C.3   254  ILE254      0.0276
     90  CG1      -84.2260 -101.5150   43.6670 C.3   254  ILE254      0.0022
     91  CG2      -83.3520 -103.9690   43.5500 C.3   254  ILE254      0.0022
     92  CD1      -82.7170 -100.9120   43.4750 C.3   254  ILE254      0.0001
     93  N        -87.1060  -99.3250   45.6140 N.3   256  PHE256     -0.1227
     94  CA       -86.7760  -97.9320   45.5330 C.3   256  PHE256      0.1736
     95  C        -86.1710  -97.6400   44.1690 C.2   256  PHE256      0.2595
     96  O        -85.8560  -98.5540   43.3930 O.2   256  PHE256     -0.2718
     97  CB       -85.8770  -97.5050   46.6910 C.3   256  PHE256      0.0547
     98  CG       -84.4740  -98.0770   46.6400 C.ar  256  PHE256     -0.0202
     99  CD1      -84.2050  -99.3390   47.1230 C.ar  256  PHE256     -0.0042
    100  CD2      -83.4350  -97.3410   46.1380 C.ar  256  PHE256     -0.0042
    101  CE1      -82.9520  -99.8800   47.0490 C.ar  256  PHE256     -0.0003
    102  CE2      -82.1820  -97.8500   46.1050 C.ar  256  PHE256     -0.0003
    103  CZ       -81.9310  -99.1200   46.5560 C.ar  256  PHE256     -0.0000
    104  N        -86.0410  -96.3650   43.8440 N.am  257  ASN257     -0.1960
    105  CA       -85.6210  -95.9870   42.5200 C.3   257  ASN257      0.1819
    106  C        -84.9340  -94.6310   42.4550 C.2   257  ASN257      0.2621
    107  O        -84.9980  -93.8790   43.4010 O.2   257  ASN257     -0.2715
    108  CB       -86.7950  -96.0090   41.6020 C.3   257  ASN257      0.1195
    109  CG       -87.9020  -95.0410   42.0240 C.2   257  ASN257      0.2630
    110  OD1      -88.8130  -95.4190   42.7610 O.2   257  ASN257     -0.2716
    111  ND2      -87.8820  -93.8180   41.4780 N.am  257  ASN257     -0.0877
    112  N        -84.2860  -94.3400   41.3290 N.am  258  ALA258     -0.1963
    113  CA       -83.5970  -93.0420   41.1290 C.3   258  ALA258      0.1728
    114  C        -84.4530  -92.2560   40.1650 C.2   258  ALA258      0.2617
    115  O        -85.6030  -92.6240   39.8940 O.2   258  ALA258     -0.2715
    116  CB       -82.2150  -93.2340   40.5800 C.3   258  ALA258      0.0334
    117  N        -83.9440  -91.1090   39.7470 N.am  259  THR259     -0.1937
    118  CA       -84.4680  -90.4180   38.5830 C.3   259  THR259      0.2028
    119  C        -83.4040  -90.4850   37.4650 C.2   259  THR259      0.2642
    120  O        -82.2460  -90.8830   37.7220 O.2   259  THR259     -0.2714
    121  CB       -84.7150  -88.9620   38.8970 C.3   259  THR259      0.1808
    122  OG1      -83.4620  -88.3210   39.1720 O.3   259  THR259     -0.2208
    123  CG2      -85.7260  -88.7790   40.0930 C.3   259  THR259      0.0379
    124  N        -83.7830  -90.1340   36.2340 N.am  260  ILE260     -0.1977
    125  CA       -82.8280  -90.1550   35.1300 C.3   260  ILE260      0.1596
    126  C        -81.6710  -89.1580   35.4450 C.2   260  ILE260      0.2287
    127  O        -80.5250  -89.4490   35.1580 O.2   260  ILE260     -0.2864
    128  CB       -83.4630  -89.9060   33.7340 C.3   260  ILE260      0.0276
    129  CG1      -82.4760  -90.1730   32.5980 C.3   260  ILE260      0.0022
    130  CG2      -84.0950  -88.4570   33.5940 C.3   260  ILE260      0.0022
    131  CD1      -81.8620  -91.7020   32.5600 C.3   260  ILE260      0.0001
    132  N        -79.4650  -90.8690   38.7740 N.3   263  VAL263     -0.1245
    133  CA       -78.6940  -92.1010   38.5480 C.3   263  VAL263      0.1561
    134  C        -77.2890  -91.7400   38.0210 C.2   263  VAL263      0.2260
    135  O        -76.3190  -92.4060   38.3350 O.2   263  VAL263     -0.2867
    136  CB       -79.4370  -93.1110   37.6520 C.3   263  VAL263      0.0252
    137  CG1      -79.6390  -92.5390   36.2160 C.3   263  VAL263      0.0019
    138  CG2      -78.6740  -94.3770   37.6190 C.3   263  VAL263      0.0019
    139  N        -75.2530  -90.9520   41.1560 N.3   266  TRP266     -0.1241
    140  CA       -74.8160  -92.1550   41.7730 C.3   266  TRP266      0.1605
    141  C        -73.5990  -92.6780   41.0440 C.2   266  TRP266      0.2264
    142  O        -72.6420  -93.1290   41.6630 O.2   266  TRP266     -0.2867
    143  CB       -75.9160  -93.2240   41.6970 C.3   266  TRP266      0.0550
    144  CG       -77.0310  -93.1560   42.7340 C.ar  266  TRP266      0.0003
    145  CD1      -78.2140  -92.5480   42.6050 C.ar  266  TRP266      0.0946
    146  CD2      -77.0340  -93.7460   44.0130 C.ar  266  TRP266      0.0152
    147  NE1      -78.9610  -92.7080   43.6960 N.ar  266  TRP266     -0.2442
    148  CE2      -78.2580  -93.4380   44.5980 C.ar  266  TRP266      0.0810
    149  CE3      -76.1320  -94.5590   44.7070 C.ar  266  TRP266      0.0012
    150  CZ2      -78.6300  -93.8990   45.8440 C.ar  266  TRP266      0.0191
    151  CZ3      -76.4900  -94.9850   45.9540 C.ar  266  TRP266      0.0001
    152  CH2      -77.7330  -94.6640   46.5020 C.ar  266  TRP266      0.0015
    153  N        -69.9210  -93.0870   42.7460 N.3   270  PHE270     -0.1241
    154  CA       -69.2130  -94.3860   42.8020 C.3   270  PHE270      0.1605
    155  C        -67.8570  -94.3590   42.1740 C.2   270  PHE270      0.2264
    156  O        -66.9360  -94.8780   42.7210 O.2   270  PHE270     -0.2867
    157  CB       -70.0340  -95.4580   42.1430 C.3   270  PHE270      0.0534
    158  CG       -70.9960  -96.0950   43.0770 C.ar  270  PHE270     -0.0203
    159  CD1      -71.7900  -95.3170   43.9370 C.ar  270  PHE270     -0.0042
    160  CD2      -71.1180  -97.4290   43.1400 C.ar  270  PHE270     -0.0042
    161  CE1      -72.7290  -95.9230   44.7950 C.ar  270  PHE270     -0.0003
    162  CE2      -72.0400  -98.0170   44.0280 C.ar  270  PHE270     -0.0003
    163  CZ       -72.8380  -97.2380   44.8590 C.ar  270  PHE270     -0.0000
@<TRIPOS>BOND
     1    42    41    2
     2    45    43    1
     3    41    40    1
     4    43    40    1
     5    43    44    1
     6    40    39    1
     7    35    34    2
     8    39    34   am
     9    44    46    1
    10    34    33    1
    11    47    48    1
    12    32    33    1
    13    33    36    1
    14    25    24    2
    15    52    51    1
    16    24    23    1
    17    31    29   ar
    18    31    30   ar
    19   131   129    1
    20    48    51    1
    21    48    49    1
    22   129   128    1
    23    51    53    1
    24    29    27   ar
    25    36    38    1
    26    36    37    1
    27    30    28   ar
    28    54    55    1
    29   130   128    1
    30    58    55    1
    31    27    28   ar
    32    27    26    1
    33    49    50    2
    34   128   125    1
    35    23    26    1
    36    23    22    1
    37    20    19    2
    38    55    56    1
    39    19    22   am
    40    19    18    1
    41    17    18    1
    42   125   126    1
    43   125   124    1
    44   127   126    2
    45    18    21    1
    46    56    59   am
    47    56    57    2
    48    12    11    2
    49    59    60    1
    50   137   136    1
    51   124   119   am
    52    11    10    1
    53    72    70   ar
    54    72    73   ar
    55    75    73   ar
    56    75    77   ar
    57     4     3    2
    58    70    69   ar
    59   119   120    2
    60   119   118    1
    61    73    71   ar
    62   138   136    1
    63    60    63    1
    64    60    61    1
    65   136   133    1
    66   134   135    2
    67   134   133    1
    68    10     9    1
    69    10    13    1
    70    77    76   ar
    71     3     9   am
    72     3     2    1
    73    61    62    2
    74     1     2    1
    75   133   132    1
    76    64    65    1
    77   118   121    1
    78   118   117    1
    79    69    71   ar
    80    69    68    1
    81    71    74   ar
    82     2     5    1
    83    13    14    1
    84   121   122    1
    85   121   123    1
    86    16    14    1
    87    76    74   ar
    88    83    82    1
    89    68    65    1
    90    14    15    1
    91    65    66    1
    92   117   114   am
    93   115   114    2
    94     5     6    1
    95   114   113    1
    96     8     6    1
    97     6     7    1
    98   116   113    1
    99    82    84    1
   100    82    79    1
   101    66    67    2
   102   141   142    2
   103   141   140    1
   104   113   112    1
   105   139   140    1
   106   112   106   am
   107   111   109   am
   108    78    79    1
   109   108   109    1
   110   108   105    1
   111   143   140    1
   112   143   144    1
   113    79    80    1
   114   109   110    2
   115   157   154    1
   116   157   158    1
   117   155   156    2
   118   155   154    1
   119   106   105    1
   120   106   107    2
   121   105   104    1
   122   145   144   ar
   123   145   147   ar
   124   144   146   ar
   125   153   154    1
   126   158   160   ar
   127   158   159   ar
   128   160   162   ar
   129    80    85   am
   130    80    81    2
   131    96    95    2
   132    85    86    1
   133    92    90    1
   134    91    89    1
   135    90    89    1
   136   147   148   ar
   137   104    95   am
   138   159   161   ar
   139   146   148   ar
   140   146   149   ar
   141   162   163   ar
   142    95    94    1
   143    89    86    1
   144   148   150   ar
   145    86    87    1
   146   149   151   ar
   147   161   163   ar
   148    94    93    1
   149    94    97    1
   150    87    88    2
   151   150   152   ar
   152   151   152   ar
   153   102   100   ar
   154   102   103   ar
   155   100    98   ar
   156   103   101   ar
   157    98    97    1
   158    98    99   ar
   159   101    99   ar
