@<TRIPOS>MOLECULE
tmp/3t6dD20.pdb
 90 93 0 0 0
SMALL
GASTEIGER

@<TRIPOS>ATOM
      1  N        -55.6660 -107.1260   51.4780 N.3   195  TYR195     -0.1227
      2  CA       -57.0780 -107.5670   51.7180 C.3   195  TYR195      0.1736
      3  C        -57.6540 -107.1270   53.0480 C.2   195  TYR195      0.2595
      4  O        -58.8840 -106.9560   53.1610 O.2   195  TYR195     -0.2718
      5  CB       -57.2830 -109.0760   51.5410 C.3   195  TYR195      0.0548
      6  CG       -57.0860 -109.5890   50.1360 C.ar  195  TYR195     -0.0200
      7  CD1      -57.9750 -109.2470   49.1460 C.ar  195  TYR195     -0.0009
      8  CD2      -56.0710 -110.4930   49.8240 C.ar  195  TYR195     -0.0009
      9  CE1      -57.8330 -109.6970   47.8560 C.ar  195  TYR195      0.0417
     10  CE2      -55.9040 -110.9690   48.5450 C.ar  195  TYR195      0.0417
     11  CZ       -56.7800 -110.5790   47.5530 C.ar  195  TYR195      0.1957
     12  OH       -56.6520 -111.0340   46.2630 O.3   195  TYR195     -0.2866
     13  N        -56.7800 -106.8610   54.0390 N.am  196  TYR196     -0.1962
     14  CA       -57.1780 -106.4400   55.3890 C.3   196  TYR196      0.1771
     15  C        -57.2230 -104.9400   55.5810 C.2   196  TYR196      0.2620
     16  O        -57.4410 -104.4410   56.7060 O.2   196  TYR196     -0.2715
     17  CB       -56.2830 -107.1800   56.4120 C.3   196  TYR196      0.0574
     18  CG       -56.7600 -108.6220   56.5520 C.ar  196  TYR196     -0.0198
     19  CD1      -57.7640 -108.9550   57.4280 C.ar  196  TYR196     -0.0009
     20  CD2      -56.2510 -109.6250   55.7560 C.ar  196  TYR196     -0.0009
     21  CE1      -58.2150 -110.2770   57.5430 C.ar  196  TYR196      0.0417
     22  CE2      -56.7120 -110.9550   55.8380 C.ar  196  TYR196      0.0417
     23  CZ       -57.6720 -111.2780   56.7290 C.ar  196  TYR196      0.1957
     24  OH       -58.1660 -112.5780   56.7860 O.3   196  TYR196     -0.2866
     25  N        -56.9990 -104.1890   54.4950 N.am  197  CYS197     -0.1954
     26  CA       -57.1040 -102.7250   54.5450 C.3   197  CYS197      0.1828
     27  C        -58.5410 -102.3130   54.2460 C.2   197  CYS197      0.2467
     28  O        -59.0470 -102.6050   53.1820 O.2   197  CYS197     -0.2730
     29  CB       -56.1180 -102.0730   53.5720 C.3   197  CYS197      0.0996
     30  SG       -56.3160 -100.3200   53.3830 S.3   197  CYS197     -0.0797
     31  N        -59.2320 -101.6760   55.2010 N.am  198  PRO198     -0.2726
     32  CA       -60.6400 -101.3350   54.9170 C.3   198  PRO198      0.1402
     33  C        -60.9000 -100.5150   53.6840 C.2   198  PRO198      0.2269
     34  O        -61.9390 -100.6480   53.0730 O.2   198  PRO198     -0.2865
     35  CB       -61.0550 -100.5490   56.1860 C.3   198  PRO198      0.0296
     36  CG       -60.1990 -101.1770   57.2810 C.3   198  PRO198      0.0237
     37  CD       -58.8820 -101.3890   56.6030 C.3   198  PRO198      0.0939
     38  N        -58.9950 -100.4720   50.9080 N.3   200  HIS200     -0.1226
     39  CA       -58.9260 -101.3640   49.7840 C.3   200  HIS200      0.1752
     40  C        -60.3410 -101.9550   49.5510 C.2   200  HIS200      0.2596
     41  O        -60.9080 -101.9440   48.4350 O.2   200  HIS200     -0.2718
     42  CB       -57.9170 -102.4910   50.1070 C.3   200  HIS200      0.0759
     43  CG       -57.5340 -103.3190   48.9390 C.ar  200  HIS200      0.0818
     44  ND1      -57.7840 -104.6550   48.8810 N.ar  200  HIS200     -0.2268
     45  CD2      -56.8550 -103.0090   47.8140 C.ar  200  HIS200      0.1154
     46  CE1      -57.2860 -105.1380   47.7510 C.ar  200  HIS200      0.1986
     47  NE2      -56.7390 -104.1500   47.0620 N.ar  200  HIS200     -0.2212
     48  N        -60.9330 -102.3970   50.6360 N.am  201  GLY201     -0.1957
     49  CA       -62.2820 -102.9630   50.6070 C.3   201  GLY201      0.1869
     50  C        -63.2910 -101.9560   50.0780 C.2   201  GLY201      0.2309
     51  O        -64.0920 -102.3020   49.1950 O.2   201  GLY201     -0.2863
     52  N        -53.6340 -105.2640   62.3090 N.3   295  TRP295     -0.1227
     53  CA       -54.5410 -104.1990   62.7360 C.3   295  TRP295      0.1737
     54  C        -55.9440 -104.7710   62.8200 C.2   295  TRP295      0.2595
     55  O        -56.6910 -104.4720   63.7810 O.2   295  TRP295     -0.2718
     56  CB       -54.4520 -103.0680   61.7610 C.3   295  TRP295      0.0564
     57  CG       -55.3150 -101.8530   62.0700 C.ar  295  TRP295      0.0003
     58  CD1      -54.9970 -100.8290   62.8520 C.ar  295  TRP295      0.0946
     59  CD2      -56.6090 -101.5720   61.5330 C.ar  295  TRP295      0.0152
     60  NE1      -56.0180  -99.9030   62.8710 N.ar  295  TRP295     -0.2442
     61  CE2      -57.0310 -100.3570   62.0820 C.ar  295  TRP295      0.0810
     62  CE3      -57.5090 -102.2930   60.7310 C.ar  295  TRP295      0.0012
     63  CZ2      -58.2770  -99.7960   61.7880 C.ar  295  TRP295      0.0191
     64  CZ3      -58.7510 -101.7350   60.4570 C.ar  295  TRP295      0.0001
     65  CH2      -59.1140 -100.4960   60.9530 C.ar  295  TRP295      0.0015
     66  N        -56.3060 -105.6500   61.8670 N.am  296  CYS296     -0.1970
     67  CA       -57.6440 -106.2730   61.9260 C.3   296  CYS296      0.1712
     68  C        -57.7550 -107.2760   63.0860 C.2   296  CYS296      0.2296
     69  O        -58.7850 -107.3490   63.7060 O.2   296  CYS296     -0.2864
     70  CB       -58.0460 -106.9400   60.6160 C.3   296  CYS296      0.0983
     71  SG       -58.4900 -105.8310   59.3210 S.3   296  CYS296     -0.0798
     72  N        -58.2780 -105.3490   66.3370 N.3   299  HIS299     -0.1226
     73  CA       -59.6110 -104.8140   66.4270 C.3   299  HIS299      0.1752
     74  C        -60.7230 -105.8880   66.3610 C.2   299  HIS299      0.2597
     75  O        -61.8860 -105.5420   66.2960 O.2   299  HIS299     -0.2718
     76  CB       -59.8420 -103.6890   65.3800 C.3   299  HIS299      0.0759
     77  CG       -59.0690 -102.4480   65.6850 C.ar  299  HIS299      0.0818
     78  ND1      -59.3420 -101.6680   66.7880 N.ar  299  HIS299     -0.2268
     79  CD2      -58.0170 -101.8620   65.0670 C.ar  299  HIS299      0.1154
     80  CE1      -58.4660 -100.6720   66.8550 C.ar  299  HIS299      0.1986
     81  NE2      -57.6500 -100.7620   65.8230 N.ar  299  HIS299     -0.2212
     82  N        -60.3660 -107.1640   66.3990 N.am  300  GLY300     -0.1942
     83  CA       -61.3200 -108.2440   66.6360 C.3   300  GLY300      0.2014
     84  C        -61.9670 -108.8580   65.4010 C.2   300  GLY300      0.2638
     85  O        -62.8150 -109.7800   65.5330 O.2   300  GLY300     -0.2714
     86  N        -61.5260 -108.4340   64.2090 N.am  301  ALA301     -0.1977
     87  CA       -62.2360 -108.7120   62.9700 C.3   301  ALA301      0.1597
     88  C        -61.7340 -109.8910   62.1190 C.2   301  ALA301      0.2287
     89  O        -62.4920 -110.4440   61.3120 O.2   301  ALA301     -0.2864
     90  CB       -62.2780 -107.4600   62.1010 C.3   301  ALA301      0.0319
@<TRIPOS>BOND
     1    12    11    1
     2    47    46   ar
     3    47    45   ar
     4    11     9   ar
     5    11    10   ar
     6    46    44   ar
     7    45    43   ar
     8     9     7   ar
     9    41    40    2
    10    10     8   ar
    11    44    43   ar
    12    43    42    1
    13     7     6   ar
    14    51    50    2
    15    40    39    1
    16    40    48   am
    17    39    42    1
    18    39    38    1
    19     8     6   ar
    20    50    49    1
    21     6     5    1
    22    49    48    1
    23     1     2    1
    24     5     2    1
    25     2     3    1
    26     3     4    2
    27     3    13   am
    28    34    33    2
    29    28    27    2
    30    30    29    1
    31    29    26    1
    32    33    32    1
    33    13    14    1
    34    27    26    1
    35    27    31   am
    36    25    26    1
    37    25    15   am
    38    32    31    1
    39    32    35    1
    40    31    37    1
    41    14    15    1
    42    14    17    1
    43    15    16    2
    44    20    22   ar
    45    20    18   ar
    46    22    23   ar
    47    35    36    1
    48    17    18    1
    49    18    19   ar
    50    37    36    1
    51    23    24    1
    52    23    21   ar
    53    19    21   ar
    54    71    70    1
    55    64    62   ar
    56    64    65   ar
    57    70    67    1
    58    62    59   ar
    59    65    63   ar
    60    89    88    2
    61    59    57   ar
    62    59    61   ar
    63    56    57    1
    64    56    53    1
    65    63    61   ar
    66    66    67    1
    67    66    54   am
    68    67    68    1
    69    57    58   ar
    70    61    60   ar
    71    90    87    1
    72    88    87    1
    73    52    53    1
    74    53    54    1
    75    54    55    2
    76    58    60   ar
    77    87    86    1
    78    68    69    2
    79    86    84   am
    80    79    77   ar
    81    79    81   ar
    82    76    77    1
    83    76    73    1
    84    84    85    2
    85    84    83    1
    86    77    78   ar
    87    81    80   ar
    88    75    74    2
    89    72    73    1
    90    74    82   am
    91    74    73    1
    92    82    83    1
    93    78    80   ar
