@<TRIPOS>MOLECULE
tmp/3t6dC03.pdb
 81 75 0 0 0
SMALL
GASTEIGER

@<TRIPOS>ATOM
      1  N        -78.0390 -119.9650   44.6410 N.3    94  LEU94      -0.1245
      2  CA       -78.3000 -120.0810   43.2120 C.3    94  LEU94       0.1561
      3  C        -79.7630 -119.9760   42.9100 C.2    94  LEU94       0.2260
      4  O        -80.1470 -119.3500   41.9310 O.2    94  LEU94      -0.2867
      5  CB       -77.7240 -121.3820   42.6530 C.3    94  LEU94       0.0270
      6  CG       -77.3870 -121.3580   41.1500 C.3    94  LEU94       0.0019
      7  CD1      -76.5370 -120.1150   40.7110 C.3    94  LEU94       0.0001
      8  CD2      -76.6990 -122.7220   40.6970 C.3    94  LEU94       0.0001
      9  N        -81.3500 -116.9060   40.5520 N.3    98  ILE98      -0.1245
     10  CA       -82.1290 -117.2330   39.3930 C.3    98  ILE98       0.1561
     11  C        -83.5750 -116.7280   39.5210 C.2    98  ILE98       0.2260
     12  O        -84.1420 -116.2200   38.5560 O.2    98  ILE98      -0.2867
     13  CB       -82.0290 -118.7050   39.0850 C.3    98  ILE98       0.0252
     14  CG1      -80.5820 -118.9980   38.6160 C.3    98  ILE98       0.0019
     15  CG2      -83.0070 -119.1140   37.9910 C.3    98  ILE98       0.0019
     16  CD1      -80.2570 -120.5090   38.5880 C.3    98  ILE98       0.0001
     17  N        -83.5670 -113.0040   38.9340 N.3   101  MET101     -0.1245
     18  CA       -83.4230 -112.6960   37.4770 C.3   101  MET101      0.1570
     19  C        -84.7580 -112.9080   36.7190 C.2   101  MET101      0.2261
     20  O        -85.2300 -112.0330   35.9440 O.2   101  MET101     -0.2867
     21  CB       -82.2870 -113.5780   36.9140 C.3   101  MET101      0.0387
     22  CG       -81.8980 -113.3360   35.4590 C.3   101  MET101      0.0595
     23  SD       -83.0480 -114.0890   34.3210 S.3   101  MET101     -0.1393
     24  CE       -82.2210 -115.7020   34.3660 C.3   101  MET101      0.0692
     25  N        -77.5820 -111.9980   34.3640 N.3   122  CYS122     -0.1235
     26  CA       -77.0690 -113.3640   34.1310 C.3   122  CYS122      0.1677
     27  C        -75.5430 -113.4250   34.1660 C.2   122  CYS122      0.2270
     28  O        -74.9750 -114.4470   34.4480 O.2   122  CYS122     -0.2867
     29  CB       -77.5100 -113.9150   32.7710 C.3   122  CYS122      0.0956
     30  SG       -79.2190 -114.3110   32.7390 S.3   122  CYS122     -0.0801
     31  N        -74.3300 -114.0020   37.8120 N.3   125  ILE125     -0.1231
     32  CA       -74.8020 -115.3230   38.2090 C.3   125  ILE125      0.1692
     33  C        -73.9050 -116.3860   37.5420 C.2   125  ILE125      0.2592
     34  O        -73.5120 -117.3820   38.1860 O.2   125  ILE125     -0.2718
     35  CB       -76.2350 -115.5560   37.7790 C.3   125  ILE125      0.0266
     36  CG1      -77.2220 -114.6210   38.5120 C.3   125  ILE125      0.0019
     37  CG2      -76.6980 -117.0290   38.0180 C.3   125  ILE125      0.0020
     38  CD1      -78.7230 -114.8420   37.9870 C.3   125  ILE125      0.0001
     39  N        -73.5920 -116.1800   36.2600 N.am  126  PHE126     -0.1976
     40  CA       -72.7070 -117.0680   35.5440 C.3   126  PHE126      0.1639
     41  C        -71.3100 -117.1250   36.2150 C.2   126  PHE126      0.2290
     42  O        -70.7760 -118.1880   36.4190 O.2   126  PHE126     -0.2864
     43  CB       -72.5810 -116.6380   34.0820 C.3   126  PHE126      0.0560
     44  CG       -71.4550 -117.3510   33.3440 C.ar  126  PHE126     -0.0200
     45  CD1      -71.5710 -118.6730   33.0320 C.ar  126  PHE126     -0.0042
     46  CD2      -70.2850 -116.6780   32.9940 C.ar  126  PHE126     -0.0042
     47  CE1      -70.5330 -119.3400   32.3380 C.ar  126  PHE126     -0.0003
     48  CE2      -69.2450 -117.3450   32.3100 C.ar  126  PHE126     -0.0003
     49  CZ       -69.3830 -118.6630   31.9890 C.ar  126  PHE126     -0.0000
     50  N        -71.3520 -119.1220   39.2740 N.3   129  CYS129     -0.1235
     51  CA       -71.3270 -120.5160   38.8640 C.3   129  CYS129      0.1677
     52  C        -69.9510 -121.0120   38.4080 C.2   129  CYS129      0.2270
     53  O        -69.6100 -122.1470   38.6500 O.2   129  CYS129     -0.2867
     54  CB       -72.3580 -120.7850   37.7720 C.3   129  CYS129      0.0956
     55  SG       -74.0560 -120.6370   38.3560 S.3   129  CYS129     -0.0801
     56  N        -69.3110 -123.8560   41.0430 N.3   133  VAL133     -0.1231
     57  CA       -69.8090 -125.1070   40.3950 C.3   133  VAL133      0.1692
     58  C        -68.8470 -125.6260   39.2710 C.2   133  VAL133      0.2592
     59  O        -68.3570 -126.7340   39.3650 O.2   133  VAL133     -0.2718
     60  CB       -71.2210 -124.8940   39.8570 C.3   133  VAL133      0.0266
     61  CG1      -71.8350 -126.2210   39.3440 C.3   133  VAL133      0.0020
     62  CG2      -72.0940 -124.2340   40.9160 C.3   133  VAL133      0.0020
     63  N        -68.5400 -124.8150   38.2530 N.am  134  PHE134     -0.1976
     64  CA       -67.8820 -125.3140   37.0470 C.3   134  PHE134      0.1639
     65  C        -66.4320 -125.6290   37.2930 C.2   134  PHE134      0.2290
     66  O        -66.0030 -126.7250   36.9580 O.2   134  PHE134     -0.2864
     67  CB       -68.0410 -124.3880   35.8280 C.3   134  PHE134      0.0560
     68  CG       -69.4670 -124.0870   35.4760 C.ar  134  PHE134     -0.0200
     69  CD1      -70.4420 -125.0690   35.5370 C.ar  134  PHE134     -0.0042
     70  CD2      -69.8380 -122.8150   35.0820 C.ar  134  PHE134     -0.0042
     71  CE1      -71.7880 -124.7570   35.2030 C.ar  134  PHE134     -0.0003
     72  CE2      -71.1710 -122.4990   34.7580 C.ar  134  PHE134     -0.0003
     73  CZ       -72.1300 -123.4620   34.8240 C.ar  134  PHE134     -0.0000
     74  N        -66.2980 -128.5980   39.6410 N.3   137  LEU137     -0.1245
     75  CA       -66.5920 -129.8370   38.8740 C.3   137  LEU137      0.1561
     76  C        -65.3770 -130.2900   38.0520 C.2   137  LEU137      0.2260
     77  O        -65.0640 -131.4550   38.0720 O.2   137  LEU137     -0.2867
     78  CB       -67.7660 -129.6880   37.9230 C.3   137  LEU137      0.0270
     79  CG       -69.1700 -129.6880   38.5250 C.3   137  LEU137      0.0019
     80  CD1      -70.1710 -129.1610   37.4670 C.3   137  LEU137      0.0001
     81  CD2      -69.5380 -131.1010   39.0450 C.3   137  LEU137      0.0001
@<TRIPOS>BOND
     1    49    48   ar
     2    49    47   ar
     3    48    46   ar
     4    47    45   ar
     5    30    29    1
     6    29    26    1
     7    46    44   ar
     8    45    44   ar
     9    44    43    1
    10    43    40    1
    11    26    27    1
    12    26    25    1
    13    27    28    2
    14    23    24    1
    15    23    22    1
    16    72    73   ar
    17    72    70   ar
    18    73    71   ar
    19    70    68   ar
    20    71    69   ar
    21    22    21    1
    22    68    69   ar
    23    68    67    1
    24    40    41    1
    25    40    39    1
    26    67    64    1
    27    20    19    2
    28    41    42    2
    29    39    33   am
    30    19    18    1
    31    21    18    1
    32    66    65    2
    33    64    65    1
    34    64    63    1
    35    80    79    1
    36    18    17    1
    37    33    34    2
    38    33    32    1
    39    54    55    1
    40    54    51    1
    41    35    37    1
    42    35    32    1
    43    35    36    1
    44    31    32    1
    45    78    79    1
    46    78    75    1
    47    38    36    1
    48    15    13    1
    49    76    77    2
    50    76    75    1
    51    63    58   am
    52    52    53    2
    53    52    51    1
    54    79    81    1
    55    12    11    2
    56    16    14    1
    57    14    13    1
    58    51    50    1
    59    75    74    1
    60    13    10    1
    61    58    59    2
    62    58    57    1
    63    61    60    1
    64    10    11    1
    65    10     9    1
    66    60    57    1
    67    60    62    1
    68    57    56    1
    69     8     6    1
    70     7     6    1
    71     6     5    1
    72     4     3    2
    73     5     2    1
    74     3     2    1
    75     2     1    1
