@<TRIPOS>MOLECULE
tmp/3t6dA00.pdb
 216 211 0 0 0
SMALL
GASTEIGER

@<TRIPOS>ATOM
      1  N         -4.1210 -148.3620   53.6690 N.3    56  TYR56      -0.1227
      2  CA        -3.8460 -147.4340   52.5680 C.3    56  TYR56       0.1736
      3  C         -3.0330 -146.2710   53.0880 C.2    56  TYR56       0.2595
      4  O         -2.8350 -146.1590   54.2820 O.2    56  TYR56      -0.2718
      5  CB        -5.1600 -146.9370   51.9370 C.3    56  TYR56       0.0548
      6  CG        -5.9770 -148.0130   51.2120 C.ar   56  TYR56      -0.0200
      7  CD1       -5.3610 -149.0420   50.4920 C.ar   56  TYR56      -0.0009
      8  CD2       -7.3740 -147.9680   51.2110 C.ar   56  TYR56      -0.0009
      9  CE1       -6.1160 -150.0100   49.8280 C.ar   56  TYR56       0.0417
     10  CE2       -8.1260 -148.9470   50.5560 C.ar   56  TYR56       0.0417
     11  CZ        -7.4910 -149.9510   49.8650 C.ar   56  TYR56       0.1957
     12  OH        -8.2480 -150.8990   49.2140 O.3    56  TYR56      -0.2866
     13  N         -2.5740 -145.3960   52.2000 N.am   57  LYS57      -0.1966
     14  CA        -1.5510 -144.4050   52.5600 C.3    57  LYS57       0.1728
     15  C         -2.0280 -142.9990   52.8600 C.2    57  LYS57       0.2616
     16  O         -1.4170 -142.3040   53.6740 O.2    57  LYS57      -0.2715
     17  CB        -0.4740 -144.3590   51.4700 C.3    57  LYS57       0.0311
     18  CG         0.3060 -145.6830   51.3380 C.3    57  LYS57       0.0038
     19  CD         1.1920 -145.9810   52.5800 C.3    57  LYS57       0.0206
     20  CE         1.7020 -147.4270   52.5950 C.3    57  LYS57       0.1093
     21  NZ         0.6330 -148.3800   53.0380 N.3    57  LYS57      -0.1314
     22  N         -3.1120 -142.5740   52.2160 N.am   58  ASN58      -0.1958
     23  CA        -3.5310 -141.1900   52.2630 C.3    58  ASN58       0.1819
     24  C         -5.0560 -141.0680   52.4100 C.2    58  ASN58       0.2621
     25  O         -5.7000 -140.4150   51.6040 O.2    58  ASN58      -0.2715
     26  CB        -3.0720 -140.4770   50.9880 C.3    58  ASN58       0.1195
     27  CG        -3.4590 -139.0320   50.9770 C.2    58  ASN58       0.2630
     28  OD1       -3.7390 -138.4710   52.0310 O.2    58  ASN58      -0.2716
     29  ND2       -3.5300 -138.4220   49.8090 N.am   58  ASN58      -0.0877
     30  N         -5.6070 -141.7480   53.4120 N.am   59  VAL59      -0.1963
     31  CA        -7.0000 -141.7670   53.6690 C.3    59  VAL59       0.1727
     32  C         -7.2470 -140.9640   54.9270 C.2    59  VAL59       0.2616
     33  O         -6.7990 -141.3670   55.9950 O.2    59  VAL59      -0.2715
     34  CB        -7.5480 -143.1880   53.8830 C.3    59  VAL59       0.0290
     35  CG1       -9.0090 -143.0710   54.3630 C.3    59  VAL59       0.0023
     36  CG2       -7.4610 -144.0160   52.5850 C.3    59  VAL59       0.0023
     37  N         -8.0020 -139.8750   54.8000 N.am   60  LYS60      -0.1963
     38  CA        -8.1360 -138.8800   55.8700 C.3    60  LYS60       0.1728
     39  C         -9.5410 -138.7060   56.3900 C.2    60  LYS60       0.2616
     40  O         -9.6950 -138.1070   57.4370 O.2    60  LYS60      -0.2715
     41  CB        -7.6260 -137.5000   55.4070 C.3    60  LYS60       0.0311
     42  CG        -6.1180 -137.4360   55.1890 C.3    60  LYS60       0.0038
     43  CD        -5.7020 -136.0230   54.7560 C.3    60  LYS60       0.0206
     44  CE        -4.1740 -135.8660   54.6040 C.3    60  LYS60       0.1093
     45  NZ        -3.7980 -134.7060   53.7070 N.3    60  LYS60      -0.1314
     46  N        -10.5620 -139.2000   55.6780 N.am   61  VAL61      -0.1963
     47  CA       -11.9540 -139.0770   56.1090 C.3    61  VAL61       0.1727
     48  C        -12.5600 -140.4310   56.4370 C.2    61  VAL61       0.2616
     49  O        -13.2720 -140.5740   57.4200 O.2    61  VAL61      -0.2715
     50  CB       -12.8450 -138.3020   55.0560 C.3    61  VAL61       0.0290
     51  CG1      -14.3360 -138.1870   55.5000 C.3    61  VAL61       0.0023
     52  CG2      -12.2860 -136.8960   54.8190 C.3    61  VAL61       0.0023
     53  N        -12.2950 -141.4370   55.6130 N.am   62  LEU62      -0.1977
     54  CA       -12.9760 -142.7320   55.7430 C.3    62  LEU62       0.1596
     55  C        -12.0580 -143.8360   56.3090 C.2    62  LEU62       0.2287
     56  O        -12.2730 -145.0290   56.0810 O.2    62  LEU62      -0.2864
     57  CB       -13.5010 -143.1490   54.3790 C.3    62  LEU62       0.0297
     58  CG       -14.4460 -142.2460   53.6110 C.3    62  LEU62       0.0022
     59  CD1      -14.4160 -142.5960   52.0940 C.3    62  LEU62       0.0001
     60  CD2      -15.8860 -142.2820   54.1500 C.3    62  LEU62       0.0001
     61  N        -14.6490 -149.6770   51.9900 N.3    70  PHE70      -0.1227
     62  CA       -14.0800 -148.4860   51.3830 C.3    70  PHE70       0.1736
     63  C        -14.1950 -148.5670   49.8200 C.2    70  PHE70       0.2595
     64  O        -14.6280 -147.6230   49.1420 O.2    70  PHE70      -0.2718
     65  CB       -12.6180 -148.3810   51.8090 C.3    70  PHE70       0.0547
     66  CG       -11.9050 -147.1580   51.3000 C.ar   70  PHE70      -0.0202
     67  CD1      -11.9360 -145.9660   52.0050 C.ar   70  PHE70      -0.0042
     68  CD2      -11.1480 -147.2170   50.1480 C.ar   70  PHE70      -0.0042
     69  CE1      -11.2380 -144.8590   51.5420 C.ar   70  PHE70      -0.0003
     70  CE2      -10.4750 -146.1200   49.6680 C.ar   70  PHE70      -0.0003
     71  CZ       -10.5260 -144.9310   50.3500 C.ar   70  PHE70      -0.0000
     72  N        -13.7970 -149.6900   49.2490 N.am   71  LEU71      -0.1980
     73  CA       -13.9040 -149.8290   47.7700 C.3    71  LEU71       0.1596
     74  C        -15.3530 -149.7330   47.3020 C.2    71  LEU71       0.2287
     75  O        -15.6690 -149.1700   46.2560 O.2    71  LEU71      -0.2864
     76  CB       -13.1920 -151.0940   47.2940 C.3    71  LEU71       0.0297
     77  CG       -11.6860 -151.0280   47.5520 C.3    71  LEU71       0.0022
     78  CD1      -10.9210 -152.3610   47.3090 C.3    71  LEU71       0.0001
     79  CD2      -11.0650 -149.9060   46.7100 C.3    71  LEU71       0.0001
     80  N        -16.0970 -146.1970   47.0530 N.3    74  MET74      -0.1230
     81  CA       -15.4350 -145.5950   45.8800 C.3    74  MET74       0.1702
     82  C        -16.2390 -145.9100   44.6110 C.2    74  MET74       0.2593
     83  O        -16.4220 -145.0530   43.7130 O.2    74  MET74      -0.2718
     84  CB       -14.0110 -146.1070   45.7500 C.3    74  MET74       0.0401
     85  CG       -12.9640 -145.4190   46.6350 C.3    74  MET74       0.0596
     86  SD       -12.8630 -143.6760   46.3780 S.3    74  MET74      -0.1393
     87  CE       -12.7050 -143.0980   48.1000 C.3    74  MET74       0.0692
     88  N        -16.7820 -147.1300   44.5770 N.am   75  THR75      -0.1953
     89  CA       -17.6090 -147.5630   43.4460 C.3    75  THR75       0.1897
     90  C        -18.8360 -146.7100   43.3680 C.2    75  THR75       0.2313
     91  O        -19.2150 -146.2540   42.2740 O.2    75  THR75      -0.2863
     92  CB       -17.9370 -149.0810   43.5290 C.3    75  THR75       0.1794
     93  OG1      -16.6840 -149.7820   43.5520 O.3    75  THR75      -0.2208
     94  CG2      -18.7940 -149.5490   42.3260 C.3    75  THR75       0.0378
     95  N        -19.2760 -143.6930   44.6540 N.3    77  MET77      -0.1230
     96  CA       -18.9050 -142.3000   44.2710 C.3    77  MET77       0.1702
     97  C        -18.7520 -142.1510   42.7540 C.2    77  MET77       0.2593
     98  O        -19.2030 -141.2090   42.1730 O.2    77  MET77      -0.2718
     99  CB       -17.6010 -141.9330   44.9490 C.3    77  MET77       0.0401
    100  CG       -17.7540 -141.6490   46.4380 C.3    77  MET77       0.0596
    101  SD       -16.2030 -141.5650   47.3810 S.3    77  MET77      -0.1393
    102  CE       -15.2570 -140.2960   46.5280 C.3    77  MET77       0.0692
    103  N        -18.0850 -143.1020   42.1210 N.am   78  THR78      -0.1953
    104  CA       -17.9150 -143.1630   40.6870 C.3    78  THR78       0.1897
    105  C        -19.2600 -143.2810   39.9890 C.2    78  THR78       0.2313
    106  O        -19.5000 -142.5800   39.0320 O.2    78  THR78      -0.2863
    107  CB       -16.9760 -144.3510   40.3110 C.3    78  THR78       0.1794
    108  OG1      -15.8320 -144.2790   41.1680 O.3    78  THR78      -0.2208
    109  CG2      -16.4910 -144.2900   38.8350 C.3    78  THR78       0.0378
    110  N        -20.8720 -139.5920   40.7020 N.3    81  VAL81      -0.1231
    111  CA       -20.2420 -138.3220   40.2540 C.3    81  VAL81       0.1692
    112  C        -19.5700 -138.4380   38.8570 C.2    81  VAL81       0.2592
    113  O        -19.7950 -137.6090   37.9980 O.2    81  VAL81      -0.2718
    114  CB       -19.2050 -137.7950   41.2970 C.3    81  VAL81       0.0266
    115  CG1      -18.4610 -136.5480   40.7260 C.3    81  VAL81       0.0020
    116  CG2      -19.8580 -137.5710   42.6830 C.3    81  VAL81       0.0020
    117  N        -18.7920 -139.4930   38.5930 N.am   82  SER82      -0.1952
    118  CA       -18.1010 -139.5700   37.3270 C.3    82  SER82       0.1924
    119  C        -18.2750 -140.9070   36.6600 C.2    82  SER82       0.2314
    120  O        -17.2920 -141.6020   36.3660 O.2    82  SER82      -0.2863
    121  CB       -16.6290 -139.2550   37.5580 C.3    82  SER82       0.2116
    122  OG       -16.0690 -140.0430   38.6100 O.3    82  SER82      -0.2180
    123  N        -15.0730 -142.3390   35.0960 N.3    86  GLY86      -0.1210
    124  CA       -14.5720 -143.4120   35.9450 C.3    86  GLY86       0.1956
    125  C        -13.5890 -142.9960   37.0370 C.2    86  GLY86       0.2612
    126  O        -13.4440 -141.8120   37.3200 O.2    86  GLY86      -0.2717
    127  N        -12.9210 -143.9940   37.6330 N.am   87  CYS87      -0.1970
    128  CA       -12.0530 -143.8180   38.8020 C.3    87  CYS87       0.1712
    129  C        -10.9650 -142.7610   38.5350 C.2    87  CYS87       0.2296
    130  O        -10.5680 -142.0360   39.4260 O.2    87  CYS87      -0.2864
    131  CB       -11.3190 -145.1440   39.1740 C.3    87  CYS87       0.0983
    132  SG       -12.4090 -146.5410   39.4830 S.3    87  CYS87      -0.0798
    133  N        -11.0530 -140.0820   36.8800 N.3    89  TYR89      -0.1227
    134  CA       -11.4340 -138.6490   37.0000 C.3    89  TYR89       0.1736
    135  C        -10.7340 -138.0380   38.2320 C.2    89  TYR89       0.2596
    136  O        -10.2570 -136.9130   38.1790 O.2    89  TYR89      -0.2718
    137  CB       -12.9170 -138.4590   37.1850 C.3    89  TYR89       0.0548
    138  CG       -13.3740 -137.0250   36.9750 C.ar   89  TYR89      -0.0200
    139  CD1      -13.3660 -136.4970   35.6960 C.ar   89  TYR89      -0.0009
    140  CD2      -13.7950 -136.2070   38.0310 C.ar   89  TYR89      -0.0009
    141  CE1      -13.7450 -135.2240   35.4480 C.ar   89  TYR89       0.0417
    142  CE2      -14.1790 -134.8850   37.8030 C.ar   89  TYR89       0.0417
    143  CZ       -14.1390 -134.4080   36.4790 C.ar   89  TYR89       0.1957
    144  OH       -14.5210 -133.1330   36.0670 O.3    89  TYR89      -0.2866
    145  N        -10.6710 -138.7960   39.3240 N.am   90  CYS90      -0.1956
    146  CA       -10.1200 -138.3240   40.5770 C.3    90  CYS90       0.1843
    147  C         -8.7070 -138.8210   40.8160 C.2    90  CYS90       0.2625
    148  O         -7.9190 -138.1810   41.5230 O.2    90  CYS90      -0.2714
    149  CB       -11.0450 -138.7560   41.7530 C.3    90  CYS90       0.0997
    150  SG       -12.6240 -137.9110   41.6340 S.3    90  CYS90      -0.0797
    151  N         -8.3970 -139.9780   40.2590 N.am   91  HIS91      -0.1973
    152  CA        -7.1400 -140.6660   40.5610 C.3    91  HIS91       0.1656
    153  C         -6.1790 -140.7810   39.4150 C.2    91  HIS91       0.2291
    154  O         -6.5580 -140.9400   38.2410 O.2    91  HIS91      -0.2864
    155  CB        -7.3930 -142.1090   41.0090 C.3    91  HIS91       0.0771
    156  CG        -8.0250 -142.2240   42.3610 C.ar   91  HIS91       0.0820
    157  ND1       -7.3010 -142.1070   43.5280 N.ar   91  HIS91      -0.2267
    158  CD2       -9.3120 -142.4520   42.7300 C.ar   91  HIS91       0.1154
    159  CE1       -8.1240 -142.2410   44.5560 C.ar   91  HIS91       0.1986
    160  NE2       -9.3440 -142.4560   44.1020 N.ar   91  HIS91      -0.2212
    161  N         -2.8850 -144.4390   43.5310 N.3    96  LEU96      -0.1231
    162  CA        -4.2190 -144.1120   44.0380 C.3    96  LEU96       0.1693
    163  C         -4.1700 -143.1530   45.2290 C.2    96  LEU96       0.2591
    164  O         -5.1480 -142.4410   45.5120 O.2    96  LEU96      -0.2718
    165  CB        -4.9530 -145.4220   44.3630 C.3    96  LEU96       0.0284
    166  CG        -5.2980 -146.2670   43.1160 C.3    96  LEU96       0.0019
    167  CD1       -6.0060 -147.5770   43.4810 C.3    96  LEU96       0.0001
    168  CD2       -6.2050 -145.4440   42.1640 C.3    96  LEU96       0.0001
    169  N         -3.0180 -143.1090   45.8930 N.am   97  ALA97      -0.1980
    170  CA        -2.7720 -142.1490   46.9660 C.3    97  ALA97       0.1597
    171  C         -2.4240 -140.7350   46.4900 C.2    97  ALA97       0.2287
    172  O         -2.4480 -139.8340   47.3000 O.2    97  ALA97      -0.2864
    173  CB        -1.6850 -142.6780   47.9240 C.3    97  ALA97       0.0319
    174  N         -9.8450 -133.0450   41.1440 N.3   103  PRO103     -0.2102
    175  CA       -11.1080 -133.5700   41.6850 C.3   103  PRO103      0.1504
    176  C        -10.9320 -134.4350   42.9450 C.2   103  PRO103      0.2575
    177  O        -11.8410 -134.5500   43.7100 O.2   103  PRO103     -0.2718
    178  CB       -11.7180 -134.3410   40.4840 C.3   103  PRO103      0.0282
    179  CG       -11.1740 -133.6730   39.2940 C.3   103  PRO103      0.0208
    180  CD        -9.7500 -133.3450   39.6950 C.3   103  PRO103      0.0893
    181  N         -9.7610 -134.9820   43.1690 N.am  104  TYR104     -0.1977
    182  CA        -9.4740 -135.7260   44.3870 C.3   104  TYR104      0.1639
    183  C         -9.6520 -134.8910   45.6420 C.2   104  TYR104      0.2290
    184  O        -10.4580 -135.2600   46.5210 O.2   104  TYR104     -0.2864
    185  CB        -8.0620 -136.2540   44.3420 C.3   104  TYR104      0.0560
    186  CG        -7.6620 -137.0970   45.5270 C.ar  104  TYR104     -0.0198
    187  CD1       -7.4370 -136.5280   46.7750 C.ar  104  TYR104     -0.0009
    188  CD2       -7.4700 -138.4470   45.3920 C.ar  104  TYR104     -0.0009
    189  CE1       -7.0730 -137.3080   47.8640 C.ar  104  TYR104      0.0417
    190  CE2       -7.0800 -139.2280   46.4700 C.ar  104  TYR104      0.0417
    191  CZ        -6.8880 -138.6480   47.7060 C.ar  104  TYR104      0.1957
    192  OH        -6.5090 -139.4400   48.7730 O.3   104  TYR104     -0.2866
    193  N        -13.2620 -133.7870   46.0960 N.3   107  ALA107     -0.1231
    194  CA       -14.0590 -134.9520   46.5170 C.3   107  ALA107      0.1694
    195  C        -13.9250 -135.2050   48.0060 C.2   107  ALA107      0.2591
    196  O        -14.8760 -135.6070   48.6700 O.2   107  ALA107     -0.2718
    197  CB       -13.6560 -136.2110   45.7640 C.3   107  ALA107      0.0304
    198  N        -12.7450 -134.9580   48.5300 N.am  108  ARG108     -0.1980
    199  CA       -12.5010 -135.1860   49.9560 C.3   108  ARG108      0.1597
    200  C        -13.3040 -134.1620   50.7820 C.2   108  ARG108      0.2287
    201  O        -13.9410 -134.5070   51.7460 O.2   108  ARG108     -0.2864
    202  CB       -11.0180 -135.0600   50.2650 C.3   108  ARG108      0.0334
    203  CG       -10.7280 -135.2930   51.7380 C.3   108  ARG108      0.0492
    204  CD        -9.2350 -135.1680   52.0070 C.3   108  ARG108      0.2205
    205  NE        -8.6000 -136.4460   51.8580 N.pl3 108  ARG108     -0.0865
    206  CZ        -7.3610 -136.6280   51.4190 C.cat 108  ARG108      0.5346
    207  NH1       -6.6160 -135.5760   51.0590 N.pl3 108  ARG108      0.1354
    208  NH2       -6.8750 -137.8770   51.3520 N.pl3 108  ARG108      0.1354
    209  N        -16.9680 -135.1370   50.6230 N.3   111  LEU111     -0.1245
    210  CA       -17.2000 -136.2070   51.5900 C.3   111  LEU111      0.1561
    211  C        -17.5220 -135.6090   52.9690 C.2   111  LEU111      0.2260
    212  O        -18.5570 -135.9380   53.6040 O.2   111  LEU111     -0.2867
    213  CB       -15.9550 -137.0930   51.6480 C.3   111  LEU111      0.0270
    214  CG       -15.9500 -138.2210   50.6160 C.3   111  LEU111      0.0019
    215  CD1      -14.6250 -139.0010   50.5450 C.3   111  LEU111      0.0001
    216  CD2      -17.1210 -139.2490   50.8620 C.3   111  LEU111      0.0001
@<TRIPOS>BOND
     1   123   124    1
     2   141   139   ar
     3   141   143   ar
     4   139   138   ar
     5   124   125    1
     6   144   143    1
     7   120   119    2
     8   143   142   ar
     9   119   118    1
    10   133   134    1
    11   138   137    1
    12   138   140   ar
    13   134   137    1
    14   134   135    1
    15   125   126    2
    16   125   127   am
    17   118   121    1
    18   118   117    1
    19   121   122    1
    20   127   128    1
    21   142   140   ar
    22   113   112    2
    23   136   135    2
    24   135   145   am
    25   154   153    2
    26   129   128    1
    27   129   130    2
    28   117   112   am
    29   128   131    1
    30   109   107    1
    31   112   111    1
    32   106   105    2
    33   131   132    1
    34   179   180    1
    35   179   178    1
    36   145   146    1
    37   153   152    1
    38   180   174    1
    39   105   104    1
    40   111   110    1
    41   111   114    1
    42   151   152    1
    43   151   147   am
    44   107   104    1
    45   107   108    1
    46   178   175    1
    47   152   155    1
    48   146   147    1
    49   146   149    1
    50   104   103    1
    51   115   114    1
    52   147   148    2
    53   155   156    1
    54   174   175    1
    55   114   116    1
    56   150   149    1
    57   175   176    1
    58   103    97   am
    59   168   166    1
    60    98    97    2
    61    91    90    2
    62    94    92    1
    63   156   158   ar
    64   156   157   ar
    65   158   160   ar
    66    97    96    1
    67   176   181   am
    68   176   177    2
    69   166   167    1
    70   166   165    1
    71   181   182    1
    72    90    89    1
    73    89    92    1
    74    89    88    1
    75   157   159   ar
    76    92    93    1
    77   161   162    1
    78    83    82    2
    79   162   165    1
    80   162   163    1
    81   160   159   ar
    82    96    95    1
    83    96    99    1
    84   185   182    1
    85   185   186    1
    86   182   183    1
    87    88    82   am
    88    82    81    1
    89    99   100    1
    90   163   164    2
    91   163   169   am
    92   188   186   ar
    93   188   190   ar
    94   186   187   ar
    95   183   184    2
    96    84    81    1
    97    84    85    1
    98   197   194    1
    99    81    80    1
   100   169   170    1
   101   193   194    1
   102    75    74    2
   103    86    85    1
   104    86    87    1
   105   100   101    1
   106   190   191   ar
   107   171   170    1
   108   171   172    2
   109   194   195    1
   110   102   101    1
   111    79    77    1
   112   187   189   ar
   113   170   173    1
   114    76    77    1
   115    76    73    1
   116    74    73    1
   117    78    77    1
   118   191   189   ar
   119   191   192    1
   120    73    72    1
   121   195   198   am
   122   195   196    2
   123   198   199    1
   124    64    63    2
   125    12    11    1
   126    72    63   am
   127    70    68   ar
   128    70    71   ar
   129    29    27   am
   130    63    62    1
   131     9    11   ar
   132     9     7   ar
   133    11    10   ar
   134   199   202    1
   135   199   200    1
   136    68    66   ar
   137   202   203    1
   138    71    69   ar
   139     7     6   ar
   140   215   214    1
   141    10     8   ar
   142   214   216    1
   143   214   213    1
   144   209   210    1
   145   200   201    2
   146    27    26    1
   147    27    28    2
   148    26    23    1
   149   207   206    1
   150     8     6   ar
   151     6     5    1
   152    66    65    1
   153    66    67   ar
   154    18    17    1
   155    18    19    1
   156   208   206    1
   157    62    65    1
   158    62    61    1
   159   206   205    2
   160    17    14    1
   161    69    67   ar
   162   210   213    1
   163   210   211    1
   164    25    24    2
   165   203   204    1
   166   205   204    1
   167     5     2    1
   168    59    58    1
   169    13    14    1
   170    13     3   am
   171    22    23    1
   172    22    15   am
   173    23    24    1
   174    24    30   am
   175    14    15    1
   176     2     3    1
   177     2     1    1
   178    19    20    1
   179    36    34    1
   180    20    21    1
   181    15    16    2
   182   211   212    2
   183     3     4    2
   184    30    31    1
   185    58    60    1
   186    58    57    1
   187    31    34    1
   188    31    32    1
   189    45    44    1
   190    34    35    1
   191    57    54    1
   192    44    43    1
   193    43    42    1
   194    37    32   am
   195    37    38    1
   196    52    50    1
   197    32    33    2
   198    50    51    1
   199    50    47    1
   200    42    41    1
   201    41    38    1
   202    53    54    1
   203    53    48   am
   204    46    47    1
   205    46    39   am
   206    54    55    1
   207    38    39    1
   208    56    55    2
   209    47    48    1
   210    39    40    2
   211    48    49    2
