@<TRIPOS>MOLECULE
tmp/3t6dD09.pdb
 90 88 0 0 0
SMALL
GASTEIGER

@<TRIPOS>ATOM
      1  N        -41.8660  -86.3890   26.7990 N.3    64  THR64      -0.1218
      2  CA       -40.6260  -86.3990   27.5760 C.3    64  THR64       0.1862
      3  C        -40.5950  -87.5220   28.6250 C.2    64  THR64       0.2287
      4  O        -39.6380  -88.3310   28.6720 O.2    64  THR64      -0.2866
      5  CB       -40.4280  -85.0670   28.2790 C.3    64  THR64       0.1770
      6  OG1      -40.6070  -84.0150   27.3210 O.3    64  THR64      -0.2211
      7  CG2      -39.0340  -84.9830   28.8830 C.3    64  THR64       0.0375
      8  N        -40.0910  -90.7490   26.6860 N.3    67  LEU67      -0.1231
      9  CA       -38.7180  -90.8860   26.2560 C.3    67  LEU67       0.1693
     10  C        -37.7660  -91.2540   27.4000 C.2    67  LEU67       0.2591
     11  O        -36.7910  -91.9930   27.2100 O.2    67  LEU67      -0.2718
     12  CB       -38.2310  -89.5760   25.6090 C.3    67  LEU67       0.0284
     13  CG       -38.7530  -89.3180   24.1800 C.3    67  LEU67       0.0019
     14  CD1      -38.1010  -88.0520   23.6060 C.3    67  LEU67       0.0001
     15  CD2      -38.4960  -90.5380   23.2400 C.3    67  LEU67       0.0001
     16  N        -37.9940  -90.6820   28.5740 N.am   68  ILE68      -0.1980
     17  CA       -37.1030  -91.0080   29.6650 C.3    68  ILE68       0.1595
     18  C        -37.2700  -92.4790   30.0140 C.2    68  ILE68       0.2287
     19  O        -36.2730  -93.1810   30.2390 O.2    68  ILE68      -0.2864
     20  CB       -37.3640  -90.1610   30.8960 C.3    68  ILE68       0.0276
     21  CG1      -36.9020  -88.7240   30.6770 C.3    68  ILE68       0.0022
     22  CG2      -36.6360  -90.7510   32.1030 C.3    68  ILE68       0.0022
     23  CD1      -37.6630  -87.6780   31.6870 C.3    68  ILE68       0.0001
     24  N        -35.8790  -94.6960   26.9210 N.3    71  PHE71      -0.1227
     25  CA       -34.4250  -94.7950   26.8630 C.3    71  PHE71       0.1736
     26  C        -33.8370  -95.6030   28.0260 C.2    71  PHE71       0.2595
     27  O        -32.8840  -96.3140   27.8320 O.2    71  PHE71      -0.2718
     28  CB       -33.7830  -93.4020   26.6880 C.3    71  PHE71       0.0547
     29  CG       -33.8270  -92.8870   25.2490 C.ar   71  PHE71      -0.0202
     30  CD1      -34.7020  -91.8580   24.8730 C.ar   71  PHE71      -0.0042
     31  CD2      -33.0070  -93.4500   24.2650 C.ar   71  PHE71      -0.0042
     32  CE1      -34.7660  -91.3790   23.5400 C.ar   71  PHE71      -0.0003
     33  CE2      -33.0450  -92.9720   22.9230 C.ar   71  PHE71      -0.0003
     34  CZ       -33.9360  -91.9310   22.5650 C.ar   71  PHE71      -0.0000
     35  N        -34.4550  -95.5840   29.2040 N.am   72  ASN72      -0.1974
     36  CA       -33.9970  -96.4290   30.3290 C.3    72  ASN72       0.1688
     37  C        -34.2710  -97.9090   30.0600 C.2    72  ASN72       0.2292
     38  O        -33.4000  -98.7350   30.2230 O.2    72  ASN72      -0.2864
     39  CB       -34.5300  -95.9190   31.7080 C.3    72  ASN72       0.1181
     40  CG       -33.6800  -94.7800   32.2610 C.2    72  ASN72       0.2629
     41  OD1      -32.6590  -95.0260   32.8920 O.2    72  ASN72      -0.2716
     42  ND2      -34.0490  -93.5210   31.9460 N.am   72  ASN72      -0.0877
     43  N        -31.6290  -99.0160   27.6770 N.3    75  ALA75      -0.1245
     44  CA       -30.3790  -99.2620   28.3990 C.3    75  ALA75       0.1562
     45  C        -30.4310 -100.6370   29.0540 C.2    75  ALA75       0.2260
     46  O        -29.4460 -101.3380   29.0860 O.2    75  ALA75      -0.2867
     47  CB       -30.0960  -98.1860   29.4190 C.3    75  ALA75       0.0290
     48  N        -29.3960 -101.6420   24.4890 N.3    79  PHE79      -0.1241
     49  CA       -29.7030 -101.0160   23.1940 C.3    79  PHE79       0.1605
     50  C        -29.9470 -101.9690   22.0270 C.2    79  PHE79       0.2264
     51  O        -30.0250 -101.5260   20.8820 O.2    79  PHE79      -0.2867
     52  CB       -28.6660  -99.9280   22.8630 C.3    79  PHE79       0.0534
     53  CG       -28.5090  -98.9340   23.9710 C.ar   79  PHE79      -0.0203
     54  CD1      -29.4740  -97.9390   24.1680 C.ar   79  PHE79      -0.0042
     55  CD2      -27.4480  -99.0440   24.8800 C.ar   79  PHE79      -0.0042
     56  CE1      -29.3720  -97.0440   25.2320 C.ar   79  PHE79      -0.0003
     57  CE2      -27.3110  -98.1390   25.9470 C.ar   79  PHE79      -0.0003
     58  CZ       -28.2790  -97.1470   26.1310 C.ar   79  PHE79      -0.0000
     59  N        -28.8550  -90.5830   39.3680 N.3   107  LEU107     -0.1231
     60  CA       -29.4280  -90.9990   38.0850 C.3   107  LEU107      0.1693
     61  C        -29.4150  -92.5130   37.8800 C.2   107  LEU107      0.2592
     62  O        -30.3940  -93.0370   37.3350 O.2   107  LEU107     -0.2718
     63  CB       -28.7350  -90.3060   36.8980 C.3   107  LEU107      0.0284
     64  CG       -29.1230  -88.8330   36.6600 C.3   107  LEU107      0.0019
     65  CD1      -28.2970  -88.1270   35.4860 C.3   107  LEU107      0.0001
     66  CD2      -30.6260  -88.7180   36.4580 C.3   107  LEU107      0.0001
     67  N        -28.3650  -93.1910   38.3610 N.am  108  HIS108     -0.1976
     68  CA       -28.2080  -94.6520   38.2460 C.3   108  HIS108      0.1656
     69  C        -28.9890  -95.4590   39.2990 C.2   108  HIS108      0.2291
     70  O        -28.8740  -96.6700   39.3390 O.2   108  HIS108     -0.2864
     71  CB       -26.7180  -95.0720   38.3060 C.3   108  HIS108      0.0771
     72  CG       -26.1080  -95.0340   39.6880 C.ar  108  HIS108      0.0820
     73  ND1      -25.6010  -93.8770   40.2540 N.ar  108  HIS108     -0.2267
     74  CD2      -25.8960  -96.0170   40.6010 C.ar  108  HIS108      0.1154
     75  CE1      -25.1200  -94.1460   41.4590 C.ar  108  HIS108      0.1986
     76  NE2      -25.2940  -95.4340   41.6970 N.ar  108  HIS108     -0.2212
     77  N        -33.6540  -90.9330   37.2980 N.3   112  TRP112     -0.1241
     78  CA       -34.4360  -90.8450   36.0530 C.3   112  TRP112      0.1605
     79  C        -35.8800  -91.1150   36.3540 C.2   112  TRP112      0.2264
     80  O        -36.7630  -90.5100   35.7490 O.2   112  TRP112     -0.2867
     81  CB       -33.9330  -91.8030   34.9470 C.3   112  TRP112      0.0550
     82  CG       -32.6770  -91.3740   34.2970 C.ar  112  TRP112      0.0003
     83  CD1      -31.4840  -92.0330   34.3180 C.ar  112  TRP112      0.0946
     84  CD2      -32.4750  -90.2200   33.4870 C.ar  112  TRP112      0.0152
     85  NE1      -30.5680  -91.3660   33.5920 N.ar  112  TRP112     -0.2442
     86  CE2      -31.1440  -90.2510   33.0550 C.ar  112  TRP112      0.0810
     87  CE3      -33.2830  -89.1580   33.0910 C.ar  112  TRP112      0.0012
     88  CZ2      -30.5850  -89.2320   32.2720 C.ar  112  TRP112      0.0191
     89  CZ3      -32.7320  -88.1700   32.2950 C.ar  112  TRP112      0.0001
     90  CH2      -31.3960  -88.2160   31.9040 C.ar  112  TRP112      0.0015
@<TRIPOS>BOND
     1    51    50    2
     2    50    49    1
     3    34    33   ar
     4    34    32   ar
     5    52    49    1
     6    52    53    1
     7    33    31   ar
     8    49    48    1
     9    15    13    1
    10    32    30   ar
    11    14    13    1
    12    53    54   ar
    13    53    55   ar
    14    54    56   ar
    15    13    12    1
    16    31    29   ar
    17    30    29   ar
    18    55    57   ar
    19    56    58   ar
    20    29    28    1
    21    12     9    1
    22    57    58   ar
    23     9     8    1
    24     9    10    1
    25    28    25    1
    26     1     2    1
    27    25    24    1
    28    25    26    1
    29    11    10    2
    30     6     5    1
    31    10    16   am
    32     2     5    1
    33     2     3    1
    34    43    44    1
    35    27    26    2
    36    26    35   am
    37     5     7    1
    38    44    45    1
    39    44    47    1
    40    16    17    1
    41     3     4    2
    42    45    46    2
    43    35    36    1
    44    17    18    1
    45    17    20    1
    46    18    19    2
    47    37    38    2
    48    37    36    1
    49    36    39    1
    50    21    20    1
    51    21    23    1
    52    20    22    1
    53    39    40    1
    54    90    88   ar
    55    90    89   ar
    56    42    40   am
    57    40    41    2
    58    88    86   ar
    59    89    87   ar
    60    86    84   ar
    61    86    85   ar
    62    87    84   ar
    63    84    82   ar
    64    85    83   ar
    65    82    83   ar
    66    82    81    1
    67    81    78    1
    68    65    64    1
    69    80    79    2
    70    78    79    1
    71    78    77    1
    72    66    64    1
    73    64    63    1
    74    63    60    1
    75    62    61    2
    76    61    60    1
    77    61    67   am
    78    60    59    1
    79    68    71    1
    80    68    67    1
    81    68    69    1
    82    71    72    1
    83    69    70    2
    84    72    73   ar
    85    72    74   ar
    86    73    75   ar
    87    74    76   ar
    88    75    76   ar
