@<TRIPOS>MOLECULE
tmp/3t6dD06.pdb
 92 87 0 0 0
SMALL
GASTEIGER

@<TRIPOS>ATOM
      1  N        -63.8850  -69.5210   23.4930 N.3    23  TRP23      -0.1241
      2  CA       -62.6210  -69.3450   22.8550 C.3    23  TRP23       0.1605
      3  C        -62.2810  -70.6940   22.2510 C.2    23  TRP23       0.2264
      4  O        -62.8740  -71.7320   22.6130 O.2    23  TRP23      -0.2867
      5  CB       -61.5340  -68.9370   23.8550 C.3    23  TRP23       0.0550
      6  CG       -61.2500  -70.0180   24.8740 C.ar   23  TRP23       0.0003
      7  CD1      -60.3230  -71.0310   24.7850 C.ar   23  TRP23       0.0946
      8  CD2      -61.9280  -70.2050   26.1150 C.ar   23  TRP23       0.0152
      9  NE1      -60.3790  -71.8120   25.9120 N.ar   23  TRP23      -0.2442
     10  CE2      -61.3570  -71.3240   26.7410 C.ar   23  TRP23       0.0810
     11  CE3      -62.9640  -69.5280   26.7620 C.ar   23  TRP23       0.0012
     12  CZ2      -61.7860  -71.7730   27.9740 C.ar   23  TRP23       0.0191
     13  CZ3      -63.3730  -69.9740   28.0010 C.ar   23  TRP23       0.0001
     14  CH2      -62.7810  -71.0740   28.5930 C.ar   23  TRP23       0.0015
     15  N        -59.7850  -80.6880   19.0830 N.3    50  TYR50      -0.1241
     16  CA       -59.2760  -79.4190   19.5870 C.3    50  TYR50       0.1605
     17  C        -57.7970  -79.5620   19.9470 C.2    50  TYR50       0.2264
     18  O        -57.3480  -80.5660   20.5040 O.2    50  TYR50      -0.2867
     19  CB       -60.0940  -78.9630   20.7770 C.3    50  TYR50       0.0534
     20  CG       -59.6700  -77.6550   21.4060 C.ar   50  TYR50      -0.0201
     21  CD1      -59.9700  -76.4250   20.8050 C.ar   50  TYR50      -0.0009
     22  CD2      -59.0030  -77.6430   22.6240 C.ar   50  TYR50      -0.0009
     23  CE1      -59.5800  -75.2070   21.4090 C.ar   50  TYR50       0.0417
     24  CE2      -58.5930  -76.4570   23.2200 C.ar   50  TYR50       0.0417
     25  CZ       -58.8940  -75.2480   22.6410 C.ar   50  TYR50       0.1957
     26  OH       -58.4680  -74.0940   23.2720 O.3    50  TYR50      -0.2866
     27  N        -53.3520  -74.7340   23.8700 N.3    53  ALA53      -0.1231
     28  CA       -52.0980  -74.7460   24.5980 C.3    53  ALA53       0.1694
     29  C        -51.9750  -75.8750   25.6140 C.2    53  ALA53       0.2592
     30  O        -50.9210  -76.4880   25.7290 O.2    53  ALA53      -0.2718
     31  CB       -51.8820  -73.3930   25.2600 C.3    53  ALA53       0.0304
     32  N        -53.0500  -76.1840   26.3310 N.am   54  SER54      -0.1952
     33  CA       -52.9540  -77.1740   27.3950 C.3    54  SER54       0.1924
     34  C        -52.7760  -78.6110   26.8690 C.2    54  SER54       0.2314
     35  O        -51.9620  -79.3860   27.3980 O.2    54  SER54      -0.2863
     36  CB       -54.1000  -76.9940   28.3940 C.3    54  SER54       0.2116
     37  OG       -55.3160  -77.4580   27.8590 O.3    54  SER54      -0.2180
     38  N        -49.1570  -78.7450   25.6060 N.3    57  ALA57      -0.1245
     39  CA       -48.2870  -78.9190   26.7740 C.3    57  ALA57       0.1562
     40  C        -48.4010  -80.3730   27.3270 C.2    57  ALA57       0.2260
     41  O        -47.3860  -81.0260   27.6020 O.2    57  ALA57      -0.2867
     42  CB       -48.6090  -77.8510   27.8480 C.3    57  ALA57       0.0290
     43  N        -44.8470  -82.6210   27.7000 N.3    61  PHE61      -0.1241
     44  CA       -44.4730  -83.2440   28.9910 C.3    61  PHE61       0.1605
     45  C        -44.6350  -84.7540   28.9360 C.2    61  PHE61       0.2264
     46  O        -43.7960  -85.4820   29.4230 O.2    61  PHE61      -0.2867
     47  CB       -45.3270  -82.6990   30.1730 C.3    61  PHE61       0.0534
     48  CG       -45.1780  -81.2040   30.4160 C.ar   61  PHE61      -0.0203
     49  CD1      -43.9450  -80.6440   30.6310 C.ar   61  PHE61      -0.0042
     50  CD2      -46.2880  -80.3860   30.4510 C.ar   61  PHE61      -0.0042
     51  CE1      -43.8100  -79.2760   30.8500 C.ar   61  PHE61      -0.0003
     52  CE2      -46.1760  -79.0400   30.6980 C.ar   61  PHE61      -0.0003
     53  CZ       -44.9270  -78.4670   30.8850 C.ar   61  PHE61      -0.0000
     54  N        -46.5060  -85.9540   35.8790 N.3   121  THR121     -0.1203
     55  CA       -47.3790  -85.0960   36.6540 C.3   121  THR121      0.1994
     56  C        -47.7190  -83.8060   35.9080 C.2   121  THR121      0.2617
     57  O        -48.8530  -83.3190   35.9530 O.2   121  THR121     -0.2717
     58  CB       -46.7320  -84.7540   38.0220 C.3   121  THR121      0.1784
     59  OG1      -46.5030  -85.9830   38.7360 O.3   121  THR121     -0.2211
     60  CG2      -47.6270  -83.7950   38.8640 C.3   121  THR121      0.0376
     61  N        -46.7140  -83.2080   35.2780 N.am  122  LEU122     -0.1979
     62  CA       -46.9450  -81.9810   34.5530 C.3   122  LEU122      0.1596
     63  C        -47.9240  -82.2870   33.4080 C.2   122  LEU122      0.2287
     64  O        -48.8370  -81.5030   33.1080 O.2   122  LEU122     -0.2864
     65  CB       -45.6350  -81.3790   34.0710 C.3   122  LEU122      0.0297
     66  CG       -44.7260  -80.8230   35.2040 C.3   122  LEU122      0.0022
     67  CD1      -43.3440  -80.4060   34.6630 C.3   122  LEU122      0.0001
     68  CD2      -45.4040  -79.6770   35.9910 C.3   122  LEU122      0.0001
     69  N        -51.5660  -82.7280   34.8720 N.3   125  GLY125     -0.1210
     70  CA       -52.0090  -81.3650   35.1620 C.3   125  GLY125      0.1956
     71  C        -52.5100  -80.5690   33.9500 C.2   125  GLY125      0.2612
     72  O        -53.5920  -79.9930   33.9640 O.2   125  GLY125     -0.2717
     73  N        -51.7140  -80.5940   32.9070 N.am  126  SER126     -0.1952
     74  CA       -51.9980  -79.9260   31.6620 C.3   126  SER126      0.1924
     75  C        -53.2330  -80.5300   31.0320 C.2   126  SER126      0.2314
     76  O        -54.0900  -79.8000   30.5480 O.2   126  SER126     -0.2863
     77  CB       -50.8000  -80.0530   30.7070 C.3   126  SER126      0.2116
     78  OG       -49.6650  -79.4130   31.2590 O.3   126  SER126     -0.2180
     79  N        -56.2770  -79.2940   32.8030 N.3   129  ILE129     -0.1245
     80  CA       -56.6780  -77.9120   32.4210 C.3   129  ILE129      0.1561
     81  C        -57.5060  -77.9740   31.1290 C.2   129  ILE129      0.2260
     82  O        -58.5300  -77.3330   31.0240 O.2   129  ILE129     -0.2867
     83  CB       -55.4690  -77.0310   32.2470 C.3   129  ILE129      0.0252
     84  CG1      -54.7630  -76.8660   33.6050 C.3   129  ILE129      0.0019
     85  CG2      -55.8440  -75.6040   31.6870 C.3   129  ILE129      0.0019
     86  CD1      -53.5490  -75.9140   33.5110 C.3   129  ILE129      0.0001
     87  N        -61.1660  -76.6140   31.1170 N.3   133  SER133     -0.1217
     88  CA       -61.3810  -75.5360   30.1640 C.3   133  SER133      0.1889
     89  C        -62.3600  -75.8430   29.0440 C.2   133  SER133      0.2288
     90  O        -63.1590  -74.9740   28.6810 O.2   133  SER133     -0.2866
     91  CB       -60.0660  -75.0780   29.5490 C.3   133  SER133      0.2089
     92  OG       -59.4070  -74.3740   30.5640 O.3   133  SER133     -0.2183
@<TRIPOS>BOND
     1    15    16    1
     2    16    17    1
     3    16    19    1
     4    17    18    2
     5    19    20    1
     6    21    20   ar
     7    21    23   ar
     8    20    22   ar
     9    23    25   ar
    10     3     4    2
    11     3     2    1
    12    22    24   ar
    13    25    24   ar
    14    25    26    1
    15     2     1    1
    16     2     5    1
    17     5     6    1
    18    27    28    1
    19    28    31    1
    20    28    29    1
    21     7     6   ar
    22     7     9   ar
    23     6     8   ar
    24    38    39    1
    25    29    30    2
    26    29    32   am
    27     9    10   ar
    28     8    10   ar
    29     8    11   ar
    30    32    33    1
    31    10    12   ar
    32    11    13   ar
    33    39    40    1
    34    39    42    1
    35    34    33    1
    36    34    35    2
    37    40    41    2
    38    33    36    1
    39    43    44    1
    40    37    36    1
    41    12    14   ar
    42    13    14   ar
    43    90    89    2
    44    45    44    1
    45    45    46    2
    46    44    47    1
    47    89    88    1
    48    91    88    1
    49    91    92    1
    50    88    87    1
    51    47    48    1
    52    48    50   ar
    53    48    49   ar
    54    50    52   ar
    55    76    75    2
    56    49    51   ar
    57    52    53   ar
    58    77    78    1
    59    77    74    1
    60    51    53   ar
    61    82    81    2
    62    75    74    1
    63    81    80    1
    64    74    73    1
    65    85    83    1
    66    83    80    1
    67    83    84    1
    68    80    79    1
    69    73    71   am
    70    64    63    2
    71    63    62    1
    72    86    84    1
    73    71    72    2
    74    71    70    1
    75    65    62    1
    76    65    66    1
    77    62    61    1
    78    67    66    1
    79    69    70    1
    80    66    68    1
    81    61    56   am
    82    54    55    1
    83    56    57    2
    84    56    55    1
    85    55    58    1
    86    58    59    1
    87    58    60    1
