@<TRIPOS>MOLECULE
tmp/3t6dA02.pdb
 257 251 0 0 0
SMALL
GASTEIGER

@<TRIPOS>ATOM
      1  N        -31.6270 -110.3700   55.8530 N.3   200  GLN200     -0.1231
      2  CA       -32.7850 -110.9050   56.5200 C.3   200  GLN200      0.1698
      3  C        -33.8850 -111.1320   55.4620 C.2   200  GLN200      0.2592
      4  O        -34.2430 -110.2170   54.6950 O.2   200  GLN200     -0.2718
      5  CB       -33.1960 -109.8670   57.6110 C.3   200  GLN200      0.0381
      6  CG       -34.4630 -110.1250   58.3370 C.3   200  GLN200      0.0905
      7  CD       -34.5110 -111.5270   58.9330 C.2   200  GLN200      0.2608
      8  OE1      -35.1180 -112.4530   58.3490 O.2   200  GLN200     -0.2717
      9  NE2      -33.8320 -111.7050   60.0800 N.am  200  GLN200     -0.0878
     10  N        -34.4860 -112.3200   55.4590 N.am  201  VAL201     -0.1966
     11  CA       -35.5530 -112.6300   54.4900 C.3   201  VAL201      0.1727
     12  C        -36.8420 -111.8950   54.9120 C.2   201  VAL201      0.2616
     13  O        -37.5980 -111.3720   54.0780 O.2   201  VAL201     -0.2715
     14  CB       -35.8290 -114.1450   54.3250 C.3   201  VAL201      0.0290
     15  CG1      -37.0160 -114.3380   53.3970 C.3   201  VAL201      0.0023
     16  CG2      -34.6010 -114.8980   53.7480 C.3   201  VAL201      0.0023
     17  N        -37.0660 -111.8100   56.2080 N.am  202  ARG202     -0.1963
     18  CA       -38.2760 -111.1950   56.7190 C.3   202  ARG202      0.1729
     19  C        -38.3500 -109.6980   56.4590 C.2   202  ARG202      0.2616
     20  O        -37.3830 -109.0250   56.6350 O.2   202  ARG202     -0.2715
     21  CB       -38.4430 -111.5010   58.2080 C.3   202  ARG202      0.0348
     22  CG       -38.6150 -113.0000   58.4160 C.3   202  ARG202      0.0492
     23  CD       -38.9440 -113.4020   59.8020 C.3   202  ARG202      0.2205
     24  NE       -38.7820 -114.8540   59.9010 N.pl3 202  ARG202     -0.0865
     25  CZ       -39.2240 -115.6230   60.8940 C.cat 202  ARG202      0.5346
     26  NH1      -39.9380 -115.0970   61.9150 N.pl3 202  ARG202      0.1354
     27  NH2      -38.9550 -116.9300   60.8490 N.pl3 202  ARG202      0.1354
     28  N        -39.5300 -109.2260   56.0760 N.am  203  VAL203     -0.1963
     29  CA       -39.7670 -107.8680   55.6210 C.3   203  VAL203      0.1727
     30  C        -41.0590 -107.2850   56.1690 C.2   203  VAL203      0.2616
     31  O        -41.2840 -106.0810   56.0220 O.2   203  VAL203     -0.2715
     32  CB       -39.8700 -107.7640   54.0280 C.3   203  VAL203      0.0290
     33  CG1      -38.5190 -107.9870   53.4000 C.3   203  VAL203      0.0023
     34  CG2      -40.9150 -108.7380   53.4280 C.3   203  VAL203      0.0023
     35  N        -41.9100 -108.1040   56.7960 N.am  204  VAL204     -0.1977
     36  CA       -43.2080 -107.6340   57.2660 C.3   204  VAL204      0.1596
     37  C        -43.1810 -107.2330   58.7410 C.2   204  VAL204      0.2287
     38  O        -42.6160 -107.9200   59.5660 O.2   204  VAL204     -0.2864
     39  CB       -44.2840 -108.7060   57.0130 C.3   204  VAL204      0.0276
     40  CG1      -45.7220 -108.1610   57.3050 C.3   204  VAL204      0.0022
     41  CG2      -44.1530 -109.2390   55.5440 C.3   204  VAL204      0.0022
     42  N        -44.3130 -106.8360   62.6020 N.3   206  GLN206     -0.1245
     43  CA       -45.0050 -107.6910   63.5540 C.3   206  GLN206      0.1566
     44  C        -45.8210 -106.9540   64.5500 C.2   206  GLN206      0.2260
     45  O        -46.2110 -107.5680   65.5090 O.2   206  GLN206     -0.2867
     46  CB       -44.0070 -108.6050   64.3010 C.3   206  GLN206      0.0367
     47  CG       -43.3270 -109.6470   63.3520 C.3   206  GLN206      0.0905
     48  CD       -44.2600 -110.8090   62.8490 C.2   206  GLN206      0.2608
     49  OE1      -45.2610 -111.1450   63.4820 O.2   206  GLN206     -0.2717
     50  NE2      -43.8850 -111.4380   61.7060 N.am  206  GLN206     -0.0878
     51  N        -37.4110 -110.2990   48.6080 N.3   229  THR229     -0.1203
     52  CA       -38.0010 -111.4560   49.2950 C.3   229  THR229      0.1994
     53  C        -39.0410 -112.1510   48.4520 C.2   229  THR229      0.2617
     54  O        -39.0800 -113.3820   48.4010 O.2   229  THR229     -0.2717
     55  CB       -38.5700 -111.0620   50.6720 C.3   229  THR229      0.1784
     56  OG1      -37.4520 -110.7830   51.5320 O.3   229  THR229     -0.2211
     57  CG2      -39.4500 -112.1930   51.2800 C.3   229  THR229      0.0376
     58  N        -39.9060 -111.3860   47.8010 N.am  230  PHE230     -0.1975
     59  CA       -40.8180 -111.9820   46.8440 C.3   230  PHE230      0.1639
     60  C        -40.0270 -112.7840   45.7370 C.2   230  PHE230      0.2290
     61  O        -40.3630 -113.9160   45.4550 O.2   230  PHE230     -0.2864
     62  CB       -41.7040 -110.9040   46.2640 C.3   230  PHE230      0.0560
     63  CG       -42.7710 -111.3880   45.3180 C.ar  230  PHE230     -0.0200
     64  CD1      -43.3790 -112.5710   45.4760 C.ar  230  PHE230     -0.0042
     65  CD2      -43.2600 -110.5370   44.3590 C.ar  230  PHE230     -0.0042
     66  CE1      -44.3840 -112.9870   44.6220 C.ar  230  PHE230     -0.0003
     67  CE2      -44.2920 -110.9290   43.5220 C.ar  230  PHE230     -0.0003
     68  CZ       -44.8160 -112.1680   43.6540 C.ar  230  PHE230     -0.0000
     69  N        -38.8510 -115.9920   47.0190 N.3   233  MET233     -0.1230
     70  CA       -39.9350 -116.9000   47.2680 C.3   233  MET233      0.1702
     71  C        -40.4400 -117.5260   45.9440 C.2   233  MET233      0.2592
     72  O        -40.8300 -118.7270   45.8760 O.2   233  MET233     -0.2718
     73  CB       -41.0400 -116.1840   48.0900 C.3   233  MET233      0.0401
     74  CG       -40.7690 -115.9670   49.5430 C.3   233  MET233      0.0596
     75  SD       -40.4580 -117.4290   50.5150 S.3   233  MET233     -0.1393
     76  CE       -39.0630 -116.7560   51.5080 C.3   233  MET233      0.0692
     77  N        -40.3870 -116.7330   44.8780 N.am  234  MET234     -0.1979
     78  CA       -40.7290 -117.2040   43.5130 C.3   234  MET234      0.1605
     79  C        -39.6880 -118.2630   43.1090 C.2   234  MET234      0.2287
     80  O        -40.0200 -119.3460   42.6590 O.2   234  MET234     -0.2864
     81  CB       -40.7120 -116.0490   42.5530 C.3   234  MET234      0.0413
     82  CG       -41.8390 -115.0140   42.8110 C.3   234  MET234      0.0598
     83  SD       -43.3730 -115.7430   42.2470 S.3   234  MET234     -0.1393
     84  CE       -43.3580 -115.2330   40.4910 C.3   234  MET234      0.0692
     85  N        -37.6730 -120.1250   45.0910 N.3   236  ILE236     -0.1231
     86  CA       -37.8290 -121.3150   45.9310 C.3   236  ILE236      0.1692
     87  C        -39.0240 -122.1480   45.4760 C.2   236  ILE236      0.2592
     88  O        -38.9570 -123.3600   45.4010 O.2   236  ILE236     -0.2718
     89  CB       -38.0510 -120.8850   47.3900 C.3   236  ILE236      0.0266
     90  CG1      -36.7260 -120.4990   48.0390 C.3   236  ILE236      0.0019
     91  CG2      -38.6960 -121.9700   48.2250 C.3   236  ILE236      0.0020
     92  CD1      -37.0840 -119.9490   49.5780 C.3   236  ILE236      0.0001
     93  N        -40.1480 -121.4870   45.2040 N.am  237  SER237     -0.1952
     94  CA       -41.3030 -122.1710   44.7920 C.3   237  SER237      0.1924
     95  C        -41.0060 -122.9650   43.5250 C.2   237  SER237      0.2314
     96  O        -41.3410 -124.1320   43.4350 O.2   237  SER237     -0.2863
     97  CB       -42.5030 -121.2270   44.5560 C.3   237  SER237      0.2116
     98  OG       -42.8030 -120.4720   45.7090 O.3   237  SER237     -0.2180
     99  N        -38.7090 -126.0330   43.9600 N.3   240  LEU240     -0.1245
    100  CA       -39.3580 -127.2270   44.4810 C.3   240  LEU240      0.1561
    101  C        -40.5270 -127.7120   43.6890 C.2   240  LEU240      0.2260
    102  O        -41.1330 -128.7450   44.0550 O.2   240  LEU240     -0.2867
    103  CB       -39.8320 -127.0790   45.9200 C.3   240  LEU240      0.0270
    104  CG       -38.9480 -126.5950   47.0280 C.3   240  LEU240      0.0019
    105  CD1      -39.4350 -127.1490   48.3920 C.3   240  LEU240      0.0001
    106  CD2      -37.4950 -126.7460   46.7880 C.3   240  LEU240      0.0001
    107  N        -43.3530 -126.1720   43.3870 N.3   242  THR242     -0.1203
    108  CA       -44.5660 -125.9860   44.1940 C.3   242  THR242      0.1994
    109  C        -45.0340 -124.5220   44.1810 C.2   242  THR242      0.2618
    110  O        -44.4540 -123.6670   43.4970 O.2   242  THR242     -0.2717
    111  CB       -44.3090 -126.4990   45.6610 C.3   242  THR242      0.1784
    112  OG1      -45.5310 -126.7710   46.3080 O.3   242  THR242     -0.2211
    113  CG2      -43.4070 -125.5160   46.5230 C.3   242  THR242      0.0376
    114  N        -46.0730 -124.2470   44.9600 N.am  243  ASN243     -0.1960
    115  CA       -46.5640 -122.8630   45.1370 C.3   243  ASN243      0.1819
    116  C        -46.5550 -122.3960   46.6110 C.2   243  ASN243      0.2621
    117  O        -46.1680 -123.1310   47.5380 O.2   243  ASN243     -0.2715
    118  CB       -47.9010 -122.7560   44.4870 C.3   243  ASN243      0.1195
    119  CG       -49.0010 -123.4570   45.2880 C.2   243  ASN243      0.2630
    120  OD1      -49.4500 -123.0010   46.3650 O.2   243  ASN243     -0.2716
    121  ND2      -49.4750 -124.5170   44.7420 N.am  243  ASN243     -0.0877
    122  N        -46.9720 -121.1630   46.8350 N.am  244  CYS244     -0.1968
    123  CA       -46.8330 -120.5370   48.1250 C.3   244  CYS244      0.1712
    124  C        -47.5990 -121.2610   49.2250 C.2   244  CYS244      0.2296
    125  O        -47.1980 -121.2410   50.4010 O.2   244  CYS244     -0.2864
    126  CB       -47.3130 -119.0600   48.0280 C.3   244  CYS244      0.0983
    127  SG       -46.7110 -118.1530   46.6290 S.3   244  CYS244     -0.0798
    128  N        -47.8720 -124.2760   49.8180 N.3   246  PHE246     -0.1227
    129  CA       -47.2250 -125.4410   50.3530 C.3   246  PHE246      0.1736
    130  C        -46.6820 -125.1200   51.7540 C.2   246  PHE246      0.2596
    131  O        -46.5800 -126.0030   52.5840 O.2   246  PHE246     -0.2718
    132  CB       -46.0830 -125.8130   49.4320 C.3   246  PHE246      0.0547
    133  CG       -45.4840 -127.1570   49.6870 C.ar  246  PHE246     -0.0202
    134  CD1      -46.1960 -128.2680   49.4710 C.ar  246  PHE246     -0.0042
    135  CD2      -44.1600 -127.2820   50.0850 C.ar  246  PHE246     -0.0042
    136  CE1      -45.6260 -129.5590   49.6870 C.ar  246  PHE246     -0.0003
    137  CE2      -43.5860 -128.5460   50.3080 C.ar  246  PHE246     -0.0003
    138  CZ       -44.3340 -129.6860   50.0830 C.ar  246  PHE246     -0.0000
    139  N        -46.3210 -123.8440   51.9930 N.am  247  CYS247     -0.1956
    140  CA       -45.6790 -123.4090   53.2450 C.3   247  CYS247      0.1843
    141  C        -46.5110 -122.3860   54.0560 C.2   247  CYS247      0.2625
    142  O        -46.4200 -122.3130   55.2770 O.2   247  CYS247     -0.2714
    143  CB       -44.3330 -122.8420   52.8810 C.3   247  CYS247      0.0997
    144  SG       -43.2730 -124.1210   52.2370 S.3   247  CYS247     -0.0797
    145  N        -47.3300 -121.6140   53.3580 N.am  248  HIS248     -0.1973
    146  CA       -47.9870 -120.4730   53.9430 C.3   248  HIS248      0.1656
    147  C        -49.4970 -120.4610   53.6820 C.2   248  HIS248      0.2291
    148  O        -49.9520 -120.8240   52.6290 O.2   248  HIS248     -0.2864
    149  CB       -47.5320 -119.1740   53.2370 C.3   248  HIS248      0.0771
    150  CG       -46.0830 -118.8290   53.3250 C.ar  248  HIS248      0.0820
    151  ND1      -45.5830 -118.0130   54.3420 N.ar  248  HIS248     -0.2267
    152  CD2      -45.0900 -118.9190   52.3980 C.ar  248  HIS248      0.1154
    153  CE1      -44.3180 -117.6880   54.0600 C.ar  248  HIS248      0.1986
    154  NE2      -43.9830 -118.2550   52.9020 N.ar  248  HIS248     -0.2212
    155  N        -48.4390 -114.2090   55.5270 N.3   253  PHE253     -0.1227
    156  CA       -47.1460 -114.7720   55.1950 C.3   253  PHE253      0.1736
    157  C        -46.2170 -114.7310   56.4070 C.2   253  PHE253      0.2595
    158  O        -45.3700 -115.6090   56.5570 O.2   253  PHE253     -0.2718
    159  CB       -46.4770 -114.0360   54.0160 C.3   253  PHE253      0.0547
    160  CG       -47.1400 -114.2880   52.7070 C.ar  253  PHE253     -0.0202
    161  CD1      -47.1570 -115.5740   52.1680 C.ar  253  PHE253     -0.0042
    162  CD2      -47.6930 -113.2510   51.9800 C.ar  253  PHE253     -0.0042
    163  CE1      -47.7750 -115.8320   50.9700 C.ar  253  PHE253     -0.0003
    164  CE2      -48.3500 -113.4880   50.7630 C.ar  253  PHE253     -0.0003
    165  CZ       -48.4220 -114.7920   50.2710 C.ar  253  PHE253     -0.0000
    166  N        -46.3830 -113.7120   57.2390 N.am  254  GLU254     -0.1979
    167  CA       -45.4570 -113.4140   58.3080 C.3   254  GLU254      0.1602
    168  C        -45.6960 -114.1900   59.5900 C.2   254  GLU254      0.2287
    169  O        -44.9520 -114.0540   60.5650 O.2   254  GLU254     -0.2864
    170  CB       -45.4180 -111.9140   58.5870 C.3   254  GLU254      0.0415
    171  CG       -46.7180 -111.2590   59.0780 C.3   254  GLU254      0.1163
    172  CD       -47.7860 -110.9340   57.9870 C.2   254  GLU254      0.3649
    173  OE1      -47.5990 -111.2300   56.7610 O.co2 254  GLU254     -0.2457
    174  OE2      -48.8630 -110.3720   58.3960 O.co2 254  GLU254     -0.2457
    175  N        -46.4720 -117.7060   61.9070 N.3   256  TRP256     -0.1241
    176  CA       -46.1600 -119.1150   62.0510 C.3   256  TRP256      0.1605
    177  C        -47.3550 -119.7870   62.6960 C.2   256  TRP256      0.2264
    178  O        -48.4850 -119.3700   62.4520 O.2   256  TRP256     -0.2867
    179  CB       -44.8760 -119.2580   62.8280 C.3   256  TRP256      0.0550
    180  CG       -43.7270 -118.8580   61.9940 C.ar  256  TRP256      0.0003
    181  CD1      -43.2010 -117.5970   61.8570 C.ar  256  TRP256      0.0946
    182  CD2      -42.9610 -119.7120   61.1430 C.ar  256  TRP256      0.0152
    183  NE1      -42.1320 -117.6260   60.9760 N.ar  256  TRP256     -0.2442
    184  CE2      -41.9710 -118.9070   60.5170 C.ar  256  TRP256      0.0810
    185  CE3      -42.9850 -121.0940   60.8750 C.ar  256  TRP256      0.0012
    186  CZ2      -41.0240 -119.4300   59.6150 C.ar  256  TRP256      0.0191
    187  CZ3      -42.0690 -121.6100   59.9280 C.ar  256  TRP256      0.0001
    188  CH2      -41.0820 -120.7710   59.3390 C.ar  256  TRP256      0.0015
    189  N        -43.7740 -127.8360   56.4600 N.3   263  GLN263     -0.1231
    190  CA       -42.8350 -127.6410   55.3590 C.3   263  GLN263      0.1698
    191  C        -42.1480 -126.2730   55.4020 C.2   263  GLN263      0.2592
    192  O        -40.9720 -126.1430   55.0120 O.2   263  GLN263     -0.2718
    193  CB       -43.5060 -127.8580   54.0300 C.3   263  GLN263      0.0381
    194  CG       -43.8030 -129.3430   53.7670 C.3   263  GLN263      0.0905
    195  CD       -44.7650 -129.9800   54.7580 C.2   263  GLN263      0.2608
    196  OE1      -45.8290 -129.4440   55.0770 O.2   263  GLN263     -0.2717
    197  NE2      -44.3840 -131.1360   55.2600 N.am  263  GLN263     -0.0878
    198  N        -42.8300 -125.2660   55.9210 N.am  264  ARG264     -0.1980
    199  CA       -42.2140 -123.9640   56.0680 C.3   264  ARG264      0.1597
    200  C        -41.0600 -123.9650   57.0680 C.2   264  ARG264      0.2287
    201  O        -40.0580 -123.3680   56.8190 O.2   264  ARG264     -0.2864
    202  CB       -43.2270 -122.8890   56.4520 C.3   264  ARG264      0.0334
    203  CG       -42.7470 -121.4990   56.1350 C.3   264  ARG264      0.0492
    204  CD       -43.6080 -120.4090   56.7110 C.3   264  ARG264      0.2205
    205  NE       -42.8860 -119.1590   56.7000 N.pl3 264  ARG264     -0.0865
    206  CZ       -43.2700 -118.0520   57.2990 C.cat 264  ARG264      0.5346
    207  NH1      -44.3910 -118.0170   57.9760 N.pl3 264  ARG264      0.1354
    208  NH2      -42.5190 -116.9830   57.2090 N.pl3 264  ARG264      0.1354
    209  N        -38.1790 -125.6400   55.3820 N.3   267  ALA267     -0.1231
    210  CA       -37.5940 -124.6740   54.4660 C.3   267  ALA267      0.1694
    211  C        -36.6310 -123.6910   55.1890 C.2   267  ALA267      0.2592
    212  O        -35.5260 -123.3940   54.7050 O.2   267  ALA267     -0.2718
    213  CB       -38.7280 -123.9080   53.7130 C.3   267  ALA267      0.0304
    214  N        -37.0720 -123.1790   56.3360 N.am  268  TRP268     -0.1976
    215  CA       -36.2690 -122.2670   57.1500 C.3   268  TRP268      0.1640
    216  C        -34.9420 -122.9190   57.4720 C.2   268  TRP268      0.2290
    217  O        -33.8960 -122.2730   57.3310 O.2   268  TRP268     -0.2864
    218  CB       -37.0170 -121.9180   58.4410 C.3   268  TRP268      0.0576
    219  CG       -36.4010 -120.8930   59.2830 C.ar  268  TRP268      0.0006
    220  CD1      -36.7150 -119.5380   59.3250 C.ar  268  TRP268      0.0946
    221  CD2      -35.4080 -121.1020   60.2690 C.ar  268  TRP268      0.0152
    222  NE1      -35.9430 -118.9050   60.2630 N.ar  268  TRP268     -0.2442
    223  CE2      -35.1280 -119.8370   60.8570 C.ar  268  TRP268      0.0810
    224  CE3      -34.6940 -122.2240   60.6990 C.ar  268  TRP268      0.0012
    225  CZ2      -34.1830 -119.6820   61.8600 C.ar  268  TRP268      0.0191
    226  CZ3      -33.7600 -122.0620   61.7220 C.ar  268  TRP268      0.0001
    227  CH2      -33.5160 -120.8020   62.2830 C.ar  268  TRP268      0.0015
    228  N        -32.6210 -122.9320   54.3720 N.3   271  ILE271     -0.1231
    229  CA       -31.8860 -121.6960   54.0800 C.3   271  ILE271      0.1692
    230  C        -30.5690 -121.6640   54.8650 C.2   271  ILE271      0.2591
    231  O        -29.5240 -121.2250   54.3610 O.2   271  ILE271     -0.2718
    232  CB       -32.7410 -120.4930   54.4580 C.3   271  ILE271      0.0266
    233  CG1      -33.9470 -120.4360   53.5190 C.3   271  ILE271      0.0019
    234  CG2      -31.9300 -119.2230   54.3970 C.3   271  ILE271      0.0020
    235  CD1      -35.1050 -119.4490   53.9180 C.3   271  ILE271      0.0001
    236  N        -30.6300 -122.0940   56.1280 N.am  272  ARG272     -0.1980
    237  CA       -29.4590 -122.0550   57.0100 C.3   272  ARG272      0.1597
    238  C        -28.4560 -123.1070   56.5360 C.2   272  ARG272      0.2287
    239  O        -27.2290 -122.8870   56.5240 O.2   272  ARG272     -0.2864
    240  CB       -29.8350 -122.3290   58.4870 C.3   272  ARG272      0.0334
    241  CG       -30.1840 -121.0520   59.3030 C.3   272  ARG272      0.0492
    242  CD       -31.4920 -120.5210   58.9110 C.3   272  ARG272      0.2205
    243  NE       -31.7920 -119.1530   59.3710 N.pl3 272  ARG272     -0.0865
    244  CZ       -32.8250 -118.4220   58.9160 C.cat 272  ARG272      0.5346
    245  NH1      -33.6490 -118.9080   57.9830 N.pl3 272  ARG272      0.1354
    246  NH2      -33.0300 -117.1850   59.3570 N.pl3 272  ARG272      0.1354
    247  N        -26.6870 -121.8170   53.2960 N.3   275  ARG275     -0.1245
    248  CA       -25.6820 -120.7430   53.6250 C.3   275  ARG275      0.1563
    249  C        -24.4330 -121.3540   54.2090 C.2   275  ARG275      0.2260
    250  O        -23.3540 -120.9380   53.8880 O.2   275  ARG275     -0.2867
    251  CB       -26.2650 -119.7320   54.6100 C.3   275  ARG275      0.0307
    252  CG       -27.4330 -118.9650   53.9940 C.3   275  ARG275      0.0489
    253  CD       -28.1220 -118.1930   55.0500 C.3   275  ARG275      0.2205
    254  NE       -28.8890 -117.1340   54.4660 N.pl3 275  ARG275     -0.0865
    255  CZ       -29.6690 -116.2940   55.1440 C.cat 275  ARG275      0.5346
    256  NH1      -29.8130 -116.4090   56.4670 N.pl3 275  ARG275      0.1354
    257  NH2      -30.2880 -115.3260   54.4910 N.pl3 275  ARG275      0.1354
@<TRIPOS>BOND
     1    84    83    1
     2    83    82    1
     3    81    82    1
     4    81    78    1
     5    80    79    2
     6    79    78    1
     7   107   108    1
     8    96    95    2
     9   110   109    2
    10    78    77    1
    11    67    68   ar
    12    67    65   ar
    13    95    94    1
    14    68    66   ar
    15   101   102    2
    16   101   100    1
    17    99   100    1
    18   109   108    1
    19   109   114   am
    20   108   111    1
    21    65    63   ar
    22   100   103    1
    23   118   115    1
    24   118   119    1
    25    97    94    1
    26    97    98    1
    27    66    64   ar
    28   121   119   am
    29    94    93    1
    30    77    71   am
    31   114   115    1
    32    85    86    1
    33   115   116    1
    34    93    87   am
    35   119   120    2
    36    63    64   ar
    37    63    62    1
    38    88    87    2
    39    61    60    2
    40    87    86    1
    41   111   112    1
    42   111   113    1
    43    60    59    1
    44    72    71    2
    45   103   104    1
    46    86    89    1
    47    71    70    1
    48    62    59    1
    49   116   122   am
    50   116   117    2
    51   127   126    1
    52   106   104    1
    53   122   123    1
    54    59    58    1
    55    69    70    1
    56   104   105    1
    57    70    73    1
    58    89    90    1
    59    89    91    1
    60    58    53   am
    61   126   123    1
    62    90    92    1
    63    73    74    1
    64   123   124    1
    65    54    53    2
    66    53    52    1
    67    51    52    1
    68   124   125    2
    69    52    55    1
    70   132   133    1
    71   132   129    1
    72   134   133   ar
    73   134   136   ar
    74    74    75    1
    75   133   135   ar
    76   136   138   ar
    77   128   129    1
    78   138   137   ar
    79   135   137   ar
    80   165   164   ar
    81   165   163   ar
    82   129   130    1
    83    75    76    1
    84    55    57    1
    85    55    56    1
    86   164   162   ar
    87   163   161   ar
    88   130   139   am
    89   130   131    2
    90   162   160   ar
    91   139   140    1
    92   161   160   ar
    93   144   143    1
    94   152   154   ar
    95   152   150   ar
    96   148   147    2
    97   160   159    1
    98   143   140    1
    99   154   153   ar
   100   149   150    1
   101   149   146    1
   102   140   141    1
   103   247   248    1
   104   150   151   ar
   105   145   146    1
   106   145   141   am
   107    15    14    1
   108    33    32    1
   109    34    32    1
   110   233   235    1
   111   233   232    1
   112   248   249    1
   113   248   251    1
   114   147   146    1
   115   213   210    1
   116    16    14    1
   117   194   193    1
   118   194   195    1
   119   250   249    2
   120   252   251    1
   121   252   253    1
   122   159   156    1
   123    32    29    1
   124   193   190    1
   125   141   142    2
   126   153   151   ar
   127    13    12    2
   128   229   228    1
   129   229   232    1
   130   229   230    1
   131    14    11    1
   132   231   230    2
   133   234   232    1
   134   254   253    1
   135   254   255    2
   136   210   211    1
   137   210   209    1
   138    11    12    1
   139    11    10    1
   140   257   255    1
   141     4     3    2
   142   212   211    2
   143   195   196    2
   144   195   197   am
   145   230   236   am
   146    12    17   am
   147   192   191    2
   148   255   256    1
   149   211   214   am
   150   156   155    1
   151   156   157    1
   152   190   191    1
   153   190   189    1
   154   191   198   am
   155    10     3   am
   156     3     2    1
   157    41    39    1
   158    29    28    1
   159    29    30    1
   160     1     2    1
   161   198   199    1
   162    31    30    2
   163   199   202    1
   164   199   200    1
   165    28    19   am
   166   236   237    1
   167   203   202    1
   168   203   204    1
   169    30    35   am
   170    17    18    1
   171   214   215    1
   172   157   158    2
   173   157   166   am
   174    19    20    2
   175    19    18    1
   176     2     5    1
   177   239   238    2
   178   238   237    1
   179   205   204    1
   180   205   206    2
   181    18    21    1
   182   173   172   ar
   183    35    36    1
   184   201   200    2
   185   237   240    1
   186    39    36    1
   187    39    40    1
   188   215   216    1
   189   215   218    1
   190   208   206    1
   191   166   167    1
   192    36    37    1
   193   206   207    1
   194   217   216    2
   195     5     6    1
   196   245   244    1
   197   172   174   ar
   198   172   171    1
   199    21    22    1
   200   167   170    1
   201   167   168    1
   202     6     7    1
   203     8     7    2
   204    22    23    1
   205   218   219    1
   206   240   241    1
   207   170   171    1
   208    37    38    2
   209   242   241    1
   210   242   243    1
   211   244   246    1
   212   244   243    2
   213     7     9   am
   214   219   220   ar
   215   219   221   ar
   216   220   222   ar
   217   188   186   ar
   218   188   187   ar
   219   168   169    2
   220   186   184   ar
   221    23    24    1
   222    24    25    2
   223   187   185   ar
   224   222   223   ar
   225   221   224   ar
   226   221   223   ar
   227   184   183   ar
   228   184   182   ar
   229   224   226   ar
   230    27    25    1
   231   223   225   ar
   232   185   182   ar
   233    25    26    1
   234   183   181   ar
   235   182   180   ar
   236    50    48   am
   237   226   227   ar
   238   181   180   ar
   239   225   227   ar
   240   175   176    1
   241   180   179    1
   242   176   177    1
   243   176   179    1
   244   178   177    2
   245    42    43    1
   246    48    47    1
   247    48    49    2
   248    47    46    1
   249    43    46    1
   250    43    44    1
   251    44    45    2
