@<TRIPOS>MOLECULE
tmp/3t6dD04.pdb
 236 231 0 0 0
SMALL
GASTEIGER

@<TRIPOS>ATOM
      1  N        -42.1750  -90.2490   28.4500 N.3    66  ILE66      -0.1231
      2  CA       -42.1580  -91.5030   27.6900 C.3    66  ILE66       0.1692
      3  C        -40.7760  -91.7860   27.1720 C.2    66  ILE66       0.2591
      4  O        -40.3240  -92.9290   27.2450 O.2    66  ILE66      -0.2718
      5  CB       -43.1820  -91.5240   26.5280 C.3    66  ILE66       0.0266
      6  CG1      -44.5810  -91.7330   27.1070 C.3    66  ILE66       0.0019
      7  CG2      -42.9240  -92.7050   25.5360 C.3    66  ILE66       0.0020
      8  CD1      -45.6660  -91.5640   26.0870 C.3    66  ILE66       0.0001
      9  N        -40.0910  -90.7490   26.6860 N.am   67  LEU67      -0.1980
     10  CA       -38.7180  -90.8860   26.2560 C.3    67  LEU67       0.1596
     11  C        -37.7660  -91.2540   27.4000 C.2    67  LEU67       0.2287
     12  O        -36.7910  -91.9930   27.2100 O.2    67  LEU67      -0.2864
     13  CB       -38.2310  -89.5760   25.6090 C.3    67  LEU67       0.0297
     14  CG       -38.7530  -89.3180   24.1800 C.3    67  LEU67       0.0022
     15  CD1      -38.1010  -88.0520   23.6060 C.3    67  LEU67       0.0001
     16  CD2      -38.4960  -90.5380   23.2400 C.3    67  LEU67       0.0001
     17  N        -38.5300  -92.9290   30.1010 N.3    69  ILE69      -0.1231
     18  CA       -38.8050  -94.3190   30.4390 C.3    69  ILE69       0.1692
     19  C        -38.2210  -95.2250   29.3370 C.2    69  ILE69       0.2593
     20  O        -37.4950  -96.1810   29.6190 O.2    69  ILE69      -0.2718
     21  CB       -40.3060  -94.5700   30.6190 C.3    69  ILE69       0.0266
     22  CG1      -40.8850  -93.7480   31.8040 C.3    69  ILE69       0.0019
     23  CG2      -40.5630  -96.0440   30.8250 C.3    69  ILE69       0.0020
     24  CD1      -42.3800  -93.4560   31.6690 C.3    69  ILE69       0.0001
     25  N        -38.5360  -94.8960   28.0920 N.am   70  GLY70      -0.1942
     26  CA       -38.1210  -95.6330   26.9100 C.3    70  GLY70       0.2014
     27  C        -36.6260  -95.7840   26.7950 C.2    70  GLY70       0.2638
     28  O        -36.1440  -96.8650   26.6070 O.2    70  GLY70      -0.2714
     29  N        -35.8790  -94.6960   26.9210 N.am   71  PHE71      -0.1973
     30  CA       -34.4250  -94.7950   26.8630 C.3    71  PHE71       0.1639
     31  C        -33.8370  -95.6030   28.0260 C.2    71  PHE71       0.2290
     32  O        -32.8840  -96.3140   27.8320 O.2    71  PHE71      -0.2864
     33  CB       -33.7830  -93.4020   26.6880 C.3    71  PHE71       0.0560
     34  CG       -33.8270  -92.8870   25.2490 C.ar   71  PHE71      -0.0200
     35  CD1      -34.7020  -91.8580   24.8730 C.ar   71  PHE71      -0.0042
     36  CD2      -33.0070  -93.4500   24.2650 C.ar   71  PHE71      -0.0042
     37  CE1      -34.7660  -91.3790   23.5400 C.ar   71  PHE71      -0.0003
     38  CE2      -33.0450  -92.9720   22.9230 C.ar   71  PHE71      -0.0003
     39  CZ       -33.9360  -91.9310   22.5650 C.ar   71  PHE71      -0.0000
     40  N        -35.4410  -98.2400   29.5610 N.3    73  MET73      -0.1230
     41  CA       -35.7300  -99.6270   29.1450 C.3    73  MET73       0.1702
     42  C        -34.7190 -100.1590   28.1120 C.2    73  MET73       0.2592
     43  O        -34.2090 -101.2660   28.2490 O.2    73  MET73      -0.2718
     44  CB       -37.1020  -99.7110   28.5640 C.3    73  MET73       0.0401
     45  CG       -38.1860  -99.5400   29.6450 C.3    73  MET73       0.0596
     46  SD       -39.8110  -99.4120   28.9260 S.3    73  MET73      -0.1393
     47  CE       -39.7970 -100.9510   28.0660 C.3    73  MET73       0.0692
     48  N        -34.4560  -99.3650   27.0780 N.am   74  LEU74      -0.1980
     49  CA       -33.4110  -99.6510   26.1220 C.3    74  LEU74       0.1596
     50  C        -32.0210  -99.8800   26.7380 C.2    74  LEU74       0.2287
     51  O        -31.3080 -100.8570   26.3740 O.2    74  LEU74      -0.2864
     52  CB       -33.3420  -98.5300   25.1230 C.3    74  LEU74       0.0297
     53  CG       -34.1220  -98.8230   23.8570 C.3    74  LEU74       0.0022
     54  CD1      -34.7370  -97.5160   23.2960 C.3    74  LEU74       0.0001
     55  CD2      -33.1460  -99.5070   22.9150 C.3    74  LEU74       0.0001
     56  N        -35.1620 -105.5290   22.9250 N.3    84  PHE84      -0.1241
     57  CA       -36.1680 -104.5810   23.4060 C.3    84  PHE84       0.1605
     58  C        -37.5750 -105.1180   23.1420 C.2    84  PHE84       0.2264
     59  O        -38.4040 -105.2040   24.0730 O.2    84  PHE84      -0.2867
     60  CB       -35.9870 -103.2270   22.7720 C.3    84  PHE84       0.0534
     61  CG       -36.9230 -102.1920   23.2780 C.ar   84  PHE84      -0.0203
     62  CD1      -36.7330 -101.6160   24.5150 C.ar   84  PHE84      -0.0042
     63  CD2      -37.9910 -101.7700   22.5080 C.ar   84  PHE84      -0.0042
     64  CE1      -37.5610 -100.6320   24.9750 C.ar   84  PHE84      -0.0003
     65  CE2      -38.8330 -100.7740   22.9730 C.ar   84  PHE84      -0.0003
     66  CZ       -38.6080 -100.2170   24.2090 C.ar   84  PHE84      -0.0000
     67  N        -39.8640 -106.4800   26.2540 N.3    88  PHE88      -0.1241
     68  CA       -40.5630 -105.2530   26.6010 C.3    88  PHE88       0.1605
     69  C        -41.3400 -105.2800   27.9290 C.2    88  PHE88       0.2264
     70  O        -41.1590 -104.4130   28.7640 O.2    88  PHE88      -0.2867
     71  CB       -41.4910 -104.8390   25.4350 C.3    88  PHE88       0.0534
     72  CG       -42.2810 -103.5830   25.7040 C.ar   88  PHE88      -0.0203
     73  CD1      -41.6440 -102.4190   26.0370 C.ar   88  PHE88      -0.0042
     74  CD2      -43.6560 -103.5780   25.6390 C.ar   88  PHE88      -0.0042
     75  CE1      -42.3730 -101.2530   26.3210 C.ar   88  PHE88      -0.0003
     76  CE2      -44.3820 -102.4180   25.9030 C.ar   88  PHE88      -0.0003
     77  CZ       -43.7260 -101.2630   26.2410 C.ar   88  PHE88      -0.0000
     78  N        -32.6380  -86.6300   46.7290 N.3   104  ILE104     -0.1245
     79  CA       -32.7090  -86.8210   45.2780 C.3   104  ILE104      0.1561
     80  C        -31.7300  -87.9440   44.9080 C.2   104  ILE104      0.2260
     81  O        -30.5150  -87.8270   45.1280 O.2   104  ILE104     -0.2867
     82  CB       -32.3780  -85.5410   44.4730 C.3   104  ILE104      0.0252
     83  CG1      -33.2890  -84.3680   44.8670 C.3   104  ILE104      0.0019
     84  CG2      -32.5360  -85.7900   42.9910 C.3   104  ILE104      0.0019
     85  CD1      -34.7530  -84.6270   44.6430 C.3   104  ILE104      0.0001
     86  N        -36.1390  -92.0190   37.2990 N.3   113  TRP113     -0.1227
     87  CA       -37.5270  -92.3590   37.7050 C.3   113  TRP113      0.1737
     88  C        -38.2470  -91.1070   38.2270 C.2   113  TRP113      0.2595
     89  O        -39.3770  -90.8070   37.8530 O.2   113  TRP113     -0.2718
     90  CB       -37.5160  -93.4230   38.7660 C.3   113  TRP113      0.0564
     91  CG       -38.8740  -93.6960   39.3290 C.ar  113  TRP113      0.0003
     92  CD1      -39.7330  -94.5970   38.8790 C.ar  113  TRP113      0.0946
     93  CD2      -39.4780  -93.0900   40.4630 C.ar  113  TRP113      0.0152
     94  NE1      -40.9130  -94.5330   39.5710 N.ar  113  TRP113     -0.2442
     95  CE2      -40.7750  -93.6420   40.5840 C.ar  113  TRP113      0.0810
     96  CE3      -39.0780  -92.1260   41.3640 C.ar  113  TRP113      0.0012
     97  CZ2      -41.6940  -93.2480   41.5870 C.ar  113  TRP113      0.0191
     98  CZ3      -39.9860  -91.7240   42.3690 C.ar  113  TRP113      0.0001
     99  CH2      -41.2870  -92.2990   42.4610 C.ar  113  TRP113      0.0015
    100  N        -37.5650  -90.3510   39.0660 N.am  114  LEU114     -0.1980
    101  CA       -38.1300  -89.1510   39.6500 C.3   114  LEU114      0.1596
    102  C        -38.4360  -88.0890   38.5660 C.2   114  LEU114      0.2287
    103  O        -39.4710  -87.4630   38.5480 O.2   114  LEU114     -0.2864
    104  CB       -37.1340  -88.6270   40.6860 C.3   114  LEU114      0.0297
    105  CG       -37.6140  -87.6230   41.7250 C.3   114  LEU114      0.0022
    106  CD1      -38.9160  -88.0880   42.4030 C.3   114  LEU114      0.0001
    107  CD2      -36.4670  -87.4100   42.7440 C.3   114  LEU114      0.0001
    108  N        -41.4370  -89.0440   36.6550 N.3   117  GLY117     -0.1210
    109  CA       -42.6210  -88.8260   37.5070 C.3   117  GLY117      0.1956
    110  C        -43.0050  -87.3750   37.4610 C.2   117  GLY117      0.2611
    111  O        -44.1460  -87.0550   37.3730 O.2   117  GLY117     -0.2717
    112  N        -42.0260  -86.4890   37.5540 N.am  118  LEU118     -0.1979
    113  CA       -42.2710  -85.0660   37.3840 C.3   118  LEU118      0.1596
    114  C        -42.9430  -84.7290   36.0430 C.2   118  LEU118      0.2287
    115  O        -43.9560  -84.0120   36.0070 O.2   118  LEU118     -0.2864
    116  CB       -40.9650  -84.2870   37.5510 C.3   118  LEU118      0.0297
    117  CG       -40.9840  -82.8240   37.1330 C.3   118  LEU118      0.0022
    118  CD1      -41.9930  -82.0560   37.9830 C.3   118  LEU118      0.0001
    119  CD2      -39.5230  -82.2350   37.1950 C.3   118  LEU118      0.0001
    120  N        -44.5220  -86.7520   33.9080 N.3   120  MET120     -0.1230
    121  CA       -45.8950  -87.3170   33.9450 C.3   120  MET120      0.1702
    122  C        -46.9010  -86.4570   34.7100 C.2   120  MET120      0.2593
    123  O        -48.0310  -86.2370   34.2270 O.2   120  MET120     -0.2718
    124  CB       -45.9160  -88.7280   34.5160 C.3   120  MET120      0.0401
    125  CG       -47.2820  -89.3960   34.3990 C.3   120  MET120      0.0596
    126  SD       -47.3790  -91.0500   35.1290 S.3   120  MET120     -0.1393
    127  CE       -47.1040  -90.5890   36.8450 C.3   120  MET120      0.0692
    128  N        -46.5060  -85.9540   35.8790 N.am  121  THR121     -0.1953
    129  CA       -47.3790  -85.0960   36.6540 C.3   121  THR121      0.1897
    130  C        -47.7190  -83.8060   35.9080 C.2   121  THR121      0.2313
    131  O        -48.8530  -83.3190   35.9530 O.2   121  THR121     -0.2863
    132  CB       -46.7320  -84.7540   38.0220 C.3   121  THR121      0.1794
    133  OG1      -46.5030  -85.9830   38.7360 O.3   121  THR121     -0.2208
    134  CG2      -47.6270  -83.7950   38.8640 C.3   121  THR121      0.0378
    135  N        -50.3240  -84.7290   33.2490 N.3   124  LEU124     -0.1245
    136  CA       -51.6830  -84.8800   33.8140 C.3   124  LEU124      0.1561
    137  C        -52.3320  -83.5770   34.2060 C.2   124  LEU124      0.2260
    138  O        -53.5170  -83.3360   33.8940 O.2   124  LEU124     -0.2867
    139  CB       -51.7010  -85.8160   35.0280 C.3   124  LEU124      0.0270
    140  CG       -51.1340  -87.2230   34.7890 C.3   124  LEU124      0.0019
    141  CD1      -50.9920  -88.0360   36.1260 C.3   124  LEU124      0.0001
    142  CD2      -51.9770  -87.9480   33.7600 C.3   124  LEU124      0.0001
    143  N        -53.0360  -91.1140   41.8110 N.3   155  VAL155     -0.1231
    144  CA       -51.7330  -91.3740   41.1760 C.3   155  VAL155      0.1692
    145  C        -50.6340  -90.6310   41.9260 C.2   155  VAL155      0.2591
    146  O        -49.5440  -91.1640   42.1580 O.2   155  VAL155     -0.2718
    147  CB       -51.7420  -90.9700   39.6950 C.3   155  VAL155      0.0266
    148  CG1      -50.3270  -90.8020   39.1320 C.3   155  VAL155      0.0020
    149  CG2      -52.5970  -91.9810   38.9060 C.3   155  VAL155      0.0020
    150  N        -50.9450  -89.4350   42.3570 N.am  156  LEU156     -0.1980
    151  CA       -50.0020  -88.6570   43.1850 C.3   156  LEU156      0.1596
    152  C        -49.7560  -89.3180   44.5370 C.2   156  LEU156      0.2287
    153  O        -48.6600  -89.1930   45.0270 O.2   156  LEU156     -0.2864
    154  CB       -50.5010  -87.2240   43.3980 C.3   156  LEU156      0.0297
    155  CG       -50.4750  -86.2350   42.2000 C.3   156  LEU156      0.0022
    156  CD1      -51.0370  -84.8410   42.6080 C.3   156  LEU156      0.0001
    157  CD2      -49.1040  -86.0490   41.5890 C.3   156  LEU156      0.0001
    158  N        -49.8310  -92.7110   45.3250 N.3   158  ILE158     -0.1231
    159  CA       -48.9260  -93.8920   45.1840 C.3   158  ILE158      0.1692
    160  C        -47.5650  -93.5220   44.5470 C.2   158  ILE158      0.2593
    161  O        -46.5650  -94.1760   44.7750 O.2   158  ILE158     -0.2718
    162  CB       -49.6110  -95.0140   44.4000 C.3   158  ILE158      0.0266
    163  CG1      -49.8960  -94.6050   42.9480 C.3   158  ILE158      0.0019
    164  CG2      -50.8470  -95.5020   45.1440 C.3   158  ILE158      0.0020
    165  CD1      -50.7550  -95.6870   42.0510 C.3   158  ILE158      0.0001
    166  N        -47.5220  -92.4180   43.7980 N.am  159  GLY159     -0.1942
    167  CA       -46.3090  -92.0060   43.1640 C.3   159  GLY159      0.2014
    168  C        -45.3780  -91.2270   44.0640 C.2   159  GLY159      0.2639
    169  O        -44.1560  -91.4090   43.9800 O.2   159  GLY159     -0.2714
    170  N        -45.9240  -90.3010   44.8520 N.am  160  CYS160     -0.1967
    171  CA       -45.0830  -89.3670   45.6100 C.3   160  CYS160      0.1712
    172  C        -45.5580  -88.9150   46.9660 C.2   160  CYS160      0.2296
    173  O        -44.7110  -88.6140   47.8080 O.2   160  CYS160     -0.2864
    174  CB       -44.7400  -88.1510   44.7730 C.3   160  CYS160      0.0983
    175  SG       -46.0630  -87.0810   44.4660 S.3   160  CYS160     -0.0798
    176  N        -38.3480  -92.4000   48.7170 N.3   169  TRP169     -0.1241
    177  CA       -38.6570  -92.5280   47.3100 C.3   169  TRP169      0.1605
    178  C        -38.6870  -93.9890   46.8440 C.2   169  TRP169      0.2264
    179  O        -39.2900  -94.3100   45.7980 O.2   169  TRP169     -0.2867
    180  CB       -37.6320  -91.7440   46.4690 C.3   169  TRP169      0.0550
    181  CG       -37.8030  -90.2560   46.5030 C.ar  169  TRP169      0.0003
    182  CD1      -36.8730  -89.3170   46.9300 C.ar  169  TRP169      0.0946
    183  CD2      -38.9610  -89.5100   46.1040 C.ar  169  TRP169      0.0152
    184  NE1      -37.4070  -88.0450   46.8150 N.ar  169  TRP169     -0.2442
    185  CE2      -38.6770  -88.1390   46.3080 C.ar  169  TRP169      0.0810
    186  CE3      -40.1970  -89.8600   45.5820 C.ar  169  TRP169      0.0012
    187  CZ2      -39.5660  -87.1600   45.9960 C.ar  169  TRP169      0.0191
    188  CZ3      -41.0920  -88.8590   45.2730 C.ar  169  TRP169      0.0001
    189  CH2      -40.7680  -87.5260   45.4790 C.ar  169  TRP169      0.0015
    190  N        -44.1760  -96.2410   42.5870 N.3   173  VAL173     -0.1231
    191  CA       -44.4920  -97.1990   41.5290 C.3   173  VAL173      0.1678
    192  C        -43.4290  -97.1050   40.4140 C.2   173  VAL173      0.2434
    193  O        -43.1630  -96.0300   39.9470 O.2   173  VAL173     -0.2733
    194  CB       -45.8980  -96.9460   40.9550 C.3   173  VAL173      0.0265
    195  CG1      -46.3420  -98.0810   39.9860 C.3   173  VAL173      0.0020
    196  CG2      -46.9210  -96.7620   42.0670 C.3   173  VAL173      0.0020
    197  N        -42.8090  -98.2430   40.0090 N.am  174  PRO174     -0.2718
    198  CA       -41.9810  -98.3090   38.8180 C.3   174  PRO174      0.1535
    199  C        -42.7370  -98.0930   37.5400 C.2   174  PRO174      0.2599
    200  O        -43.9170  -98.3980   37.4770 O.2   174  PRO174     -0.2715
    201  CB       -41.3880  -99.7460   38.8410 C.3   174  PRO174      0.0310
    202  CG       -41.7340 -100.3130   40.1410 C.3   174  PRO174      0.0237
    203  CD       -42.9220  -99.5480   40.6700 C.3   174  PRO174      0.0939
    204  N        -42.0740  -97.5640   36.5100 N.am  175  PHE175     -0.1960
    205  CA       -42.6970  -97.5130   35.1620 C.3   175  PHE175      0.1771
    206  C        -42.3650  -98.7780   34.3850 C.2   175  PHE175      0.2620
    207  O        -41.2100  -99.0640   34.2410 O.2   175  PHE175     -0.2715
    208  CB       -42.2010  -96.3060   34.3800 C.3   175  PHE175      0.0574
    209  CG       -42.5440  -95.0040   35.0260 C.ar  175  PHE175     -0.0200
    210  CD1      -43.8090  -94.4260   34.8110 C.ar  175  PHE175     -0.0042
    211  CD2      -41.6080  -94.3450   35.8150 C.ar  175  PHE175     -0.0042
    212  CE1      -44.1290  -93.2330   35.4010 C.ar  175  PHE175     -0.0003
    213  CE2      -41.9110  -93.1640   36.3990 C.ar  175  PHE175     -0.0003
    214  CZ       -43.1740  -92.5860   36.2110 C.ar  175  PHE175     -0.0000
    215  N        -43.3700  -99.5260   33.8980 N.am  176  GLY176     -0.1940
    216  CA       -43.1280 -100.7300   33.0680 C.3   176  GLY176      0.2014
    217  C        -44.3660 -101.6020   33.2040 C.2   176  GLY176      0.2638
    218  O        -45.1030 -101.4170   34.1440 O.2   176  GLY176     -0.2714
    219  N        -44.5980 -102.5140   32.2730 N.am  177  ILE177     -0.1977
    220  CA       -45.8040 -103.3070   32.2500 C.3   177  ILE177      0.1596
    221  C        -45.7750 -104.2700   33.4260 C.2   177  ILE177      0.2287
    222  O        -46.5090 -104.0540   34.3880 O.2   177  ILE177     -0.2864
    223  CB       -46.0350 -104.0400   30.8910 C.3   177  ILE177      0.0276
    224  CG1      -46.1340 -103.0560   29.6810 C.3   177  ILE177      0.0022
    225  CG2      -47.2520 -104.9480   30.9330 C.3   177  ILE177      0.0022
    226  CD1      -47.0030 -101.8650   29.8760 C.3   177  ILE177      0.0001
    227  N        -44.6520 -102.3360   37.1250 N.3   180  HIS180     -0.1241
    228  CA       -45.6950 -101.6800   37.9120 C.3   180  HIS180      0.1621
    229  C        -46.6320 -102.7140   38.6060 C.2   180  HIS180      0.2264
    230  O        -47.1180 -102.4840   39.6840 O.2   180  HIS180     -0.2867
    231  CB       -46.4320 -100.5670   37.1060 C.3   180  HIS180      0.0745
    232  CG       -47.7530 -100.9570   36.5200 C.ar  180  HIS180      0.0817
    233  ND1      -47.8960 -101.9200   35.5330 N.ar  180  HIS180     -0.2268
    234  CD2      -48.9860 -100.4050   36.6970 C.ar  180  HIS180      0.1154
    235  CE1      -49.1810 -101.9890   35.1860 C.ar  180  HIS180      0.1986
    236  NE2      -49.8700 -101.0660   35.8700 N.ar  180  HIS180     -0.2212
@<TRIPOS>BOND
     1    63    65   ar
     2    63    61   ar
     3    39    38   ar
     4    39    37   ar
     5    60    61    1
     6    60    57    1
     7    55    53    1
     8    38    36   ar
     9    56    57    1
    10    65    66   ar
    11    58    57    1
    12    58    59    2
    13    16    14    1
    14    61    62   ar
    15    54    53    1
    16    37    35   ar
    17    15    14    1
    18    53    52    1
    19    14    13    1
    20    66    64   ar
    21    36    34   ar
    22    62    64   ar
    23    35    34   ar
    24    52    49    1
    25    34    33    1
    26    71    72    1
    27    71    68    1
    28     7     5    1
    29    13    10    1
    30    74    72   ar
    31    74    76   ar
    32    72    73   ar
    33    76    77   ar
    34    73    75   ar
    35     8     6    1
    36    49    50    1
    37    49    48    1
    38    77    75   ar
    39    67    68    1
    40    10     9    1
    41    10    11    1
    42    51    50    2
    43     5     6    1
    44     5     2    1
    45    68    69    1
    46    28    27    2
    47     9     3   am
    48    33    30    1
    49    27    26    1
    50    27    29   am
    51    30    29    1
    52    30    31    1
    53    26    25    1
    54    48    42   am
    55     3     4    2
    56     3     2    1
    57    12    11    2
    58     2     1    1
    59    32    31    2
    60    69    70    2
    61    47    46    1
    62    25    19   am
    63    42    43    2
    64    42    41    1
    65    44    41    1
    66    44    45    1
    67    46    45    1
    68    41    40    1
    69    19    20    2
    70    19    18    1
    71   224   226    1
    72   224   223    1
    73    17    18    1
    74    18    21    1
    75    21    23    1
    76    21    22    1
    77   223   225    1
    78   223   220    1
    79    24    22    1
    80   220   219    1
    81   220   221    1
    82   219   217   am
    83   216   217    1
    84   216   215    1
    85   217   218    2
    86   135   136    1
    87   221   222    2
    88   142   140    1
    89   136   137    1
    90   136   139    1
    91   138   137    2
    92   215   206   am
    93   120   121    1
    94   121   124    1
    95   121   122    1
    96   123   122    2
    97   207   206    2
    98   208   209    1
    99   208   205    1
   100   206   205    1
   101   125   124    1
   102   125   126    1
   103   122   128   am
   104   140   139    1
   105   140   141    1
   106   210   209   ar
   107   210   212   ar
   108   209   211   ar
   109   126   127    1
   110   205   204    1
   111   235   233   ar
   112   235   236   ar
   113   212   214   ar
   114   233   232   ar
   115   211   213   ar
   116   236   234   ar
   117   128   129    1
   118   130   131    2
   119   130   129    1
   120   115   114    2
   121   114   113    1
   122   214   213   ar
   123   204   199   am
   124   232   234   ar
   125   232   231    1
   126   129   132    1
   127   108   109    1
   128   231   228    1
   129   227   228    1
   130   117   119    1
   131   117   116    1
   132   117   118    1
   133    86    87    1
   134   111   110    2
   135   113   116    1
   136   113   112    1
   137   110   109    1
   138   110   112   am
   139   200   199    2
   140   199   198    1
   141    87    88    1
   142    87    90    1
   143    89    88    2
   144   228   229    1
   145   132   133    1
   146   132   134    1
   147    88   100   am
   148   103   102    2
   149   102   101    1
   150   229   230    2
   151    90    91    1
   152   198   201    1
   153   198   197    1
   154   201   202    1
   155    92    91   ar
   156    92    94   ar
   157   149   147    1
   158   100   101    1
   159   148   147    1
   160    91    93   ar
   161    94    95   ar
   162   101   104    1
   163   147   144    1
   164   193   192    2
   165   195   194    1
   166   197   192   am
   167   197   203    1
   168   202   203    1
   169   192   191    1
   170    93    95   ar
   171    93    96   ar
   172    95    97   ar
   173   104   105    1
   174   194   191    1
   175   194   196    1
   176   144   143    1
   177   144   145    1
   178    96    98   ar
   179   191   190    1
   180    97    99   ar
   181   157   155    1
   182   105   106    1
   183   105   107    1
   184   145   146    2
   185   145   150   am
   186   165   163    1
   187   155   156    1
   188   155   154    1
   189   150   151    1
   190    98    99   ar
   191   163   162    1
   192    84    82    1
   193   167   166    1
   194   167   168    1
   195   151   154    1
   196   151   152    1
   197   166   160   am
   198   169   168    2
   199   168   170   am
   200   162   164    1
   201   162   159    1
   202   175   174    1
   203    82    83    1
   204    82    79    1
   205   152   153    2
   206   160   161    2
   207   160   159    1
   208    85    83    1
   209   174   171    1
   210   170   171    1
   211    80    81    2
   212    80    79    1
   213   159   158    1
   214   188   189   ar
   215   188   186   ar
   216    79    78    1
   217   189   187   ar
   218   186   183   ar
   219   171   172    1
   220   179   178    2
   221   187   185   ar
   222   183   185   ar
   223   183   181   ar
   224   185   184   ar
   225   180   181    1
   226   180   177    1
   227   181   182   ar
   228   184   182   ar
   229   178   177    1
   230   172   173    2
   231   177   176    1
