@<TRIPOS>MOLECULE
tmp/3t6dA04.pdb
 82 79 0 0 0
SMALL
GASTEIGER

@<TRIPOS>ATOM
      1  N        -10.5620 -139.2000   55.6780 N.3    61  VAL61      -0.1231
      2  CA       -11.9540 -139.0770   56.1090 C.3    61  VAL61       0.1692
      3  C        -12.5600 -140.4310   56.4370 C.2    61  VAL61       0.2591
      4  O        -13.2720 -140.5740   57.4200 O.2    61  VAL61      -0.2718
      5  CB       -12.8450 -138.3020   55.0560 C.3    61  VAL61       0.0266
      6  CG1      -14.3360 -138.1870   55.5000 C.3    61  VAL61       0.0020
      7  CG2      -12.2860 -136.8960   54.8190 C.3    61  VAL61       0.0020
      8  N        -12.2950 -141.4370   55.6130 N.am   62  LEU62      -0.1980
      9  CA       -12.9760 -142.7320   55.7430 C.3    62  LEU62       0.1596
     10  C        -12.0580 -143.8360   56.3090 C.2    62  LEU62       0.2287
     11  O        -12.2730 -145.0290   56.0810 O.2    62  LEU62      -0.2864
     12  CB       -13.5010 -143.1490   54.3790 C.3    62  LEU62       0.0297
     13  CG       -14.4460 -142.2460   53.6110 C.3    62  LEU62       0.0022
     14  CD1      -14.4160 -142.5960   52.0940 C.3    62  LEU62       0.0001
     15  CD2      -15.8860 -142.2820   54.1500 C.3    62  LEU62       0.0001
     16  N        -11.8190 -145.4350   59.0210 N.3    64  ASN64      -0.1225
     17  CA       -12.3790 -146.5220   59.8360 C.3    64  ASN64       0.1785
     18  C        -12.9420 -147.6890   59.0200 C.2    64  ASN64       0.2597
     19  O        -13.0450 -148.8200   59.5270 O.2    64  ASN64      -0.2718
     20  CB       -13.4670 -145.9960   60.7800 C.3    64  ASN64       0.1169
     21  CG       -14.4120 -145.0100   60.1080 C.2    64  ASN64       0.2627
     22  OD1      -13.9930 -144.0090   59.4640 O.2    64  ASN64      -0.2716
     23  ND2      -15.7000 -145.2740   60.2620 N.am   64  ASN64      -0.0877
     24  N        -13.2880 -147.4270   57.7570 N.am   65  LEU65      -0.1980
     25  CA       -13.8540 -148.4770   56.9040 C.3    65  LEU65       0.1596
     26  C        -12.8520 -149.6020   56.7300 C.2    65  LEU65       0.2287
     27  O        -11.6500 -149.3610   56.7160 O.2    65  LEU65      -0.2864
     28  CB       -14.2900 -147.9450   55.5430 C.3    65  LEU65       0.0297
     29  CG       -15.4270 -146.8860   55.5910 C.3    65  LEU65       0.0022
     30  CD1      -15.9870 -146.6650   54.1830 C.3    65  LEU65       0.0001
     31  CD2      -16.5100 -147.3120   56.5330 C.3    65  LEU65       0.0001
     32  N        -21.1830 -135.4890   54.8770 N.3   115  ARG115     -0.1245
     33  CA       -21.2310 -136.0250   56.2250 C.3   115  ARG115      0.1563
     34  C        -21.7670 -134.9530   57.1770 C.2   115  ARG115      0.2260
     35  O        -22.5070 -135.2630   58.1090 O.2   115  ARG115     -0.2867
     36  CB       -19.8340 -136.5240   56.6620 C.3   115  ARG115      0.0307
     37  CG       -19.5680 -137.9510   56.1980 C.3   115  ARG115      0.0489
     38  CD       -18.1470 -138.2780   56.0760 C.3   115  ARG115      0.2205
     39  NE       -17.4440 -138.3780   57.3420 N.pl3 115  ARG115     -0.0865
     40  CZ       -17.1380 -139.5180   57.9700 C.cat 115  ARG115      0.5346
     41  NH1      -17.5380 -140.6910   57.5130 N.pl3 115  ARG115      0.1354
     42  NH2      -16.4180 -139.4800   59.0850 N.pl3 115  ARG115      0.1354
     43  N        -23.6310 -145.7210   55.3820 N.3   326  PRO326     -0.2102
     44  CA       -23.6130 -144.9910   56.6540 C.3   326  PRO326      0.1504
     45  C        -22.3820 -144.1440   56.8420 C.2   326  PRO326      0.2575
     46  O        -22.4330 -143.1830   57.5800 O.2   326  PRO326     -0.2718
     47  CB       -23.7410 -146.0860   57.7190 C.3   326  PRO326      0.0282
     48  CG       -23.3910 -147.3730   57.0360 C.3   326  PRO326      0.0208
     49  CD       -23.7830 -147.1720   55.5920 C.3   326  PRO326      0.0893
     50  N        -21.3220 -144.4350   56.1150 N.am  327  GLU327     -0.1980
     51  CA       -20.1520 -143.5920   56.0460 C.3   327  GLU327      0.1602
     52  C        -20.3970 -142.1800   55.5100 C.2   327  GLU327      0.2287
     53  O        -19.5360 -141.3170   55.6320 O.2   327  GLU327     -0.2864
     54  CB       -19.0910 -144.2750   55.1790 C.3   327  GLU327      0.0415
     55  CG       -19.4750 -144.4610   53.6730 C.3   327  GLU327      0.1163
     56  CD       -20.0610 -145.8320   53.3160 C.2   327  GLU327      0.3649
     57  OE1      -19.8640 -146.2400   52.1480 O.co2 327  GLU327     -0.2457
     58  OE2      -20.7100 -146.5190   54.1480 O.co2 327  GLU327     -0.2457
     59  N        -25.6270 -140.1480   59.3490 N.3   330  PRO330     -0.2102
     60  CA       -25.0600 -139.3100   60.4100 C.3   330  PRO330      0.1504
     61  C        -23.8540 -139.9720   61.0890 C.2   330  PRO330      0.2576
     62  O        -23.8740 -141.1680   61.2960 O.2   330  PRO330     -0.2718
     63  CB       -26.2150 -139.1940   61.3960 C.3   330  PRO330      0.0282
     64  CG       -26.9480 -140.5130   61.2720 C.3   330  PRO330      0.0208
     65  CD       -26.8470 -140.8590   59.7930 C.3   330  PRO330      0.0893
     66  N        -22.8060 -139.2000   61.3630 N.am  331  ILE331     -0.1966
     67  CA       -21.6020 -139.7070   62.0400 C.3   331  ILE331      0.1727
     68  C        -21.7100 -139.5140   63.5640 C.2   331  ILE331      0.2616
     69  O        -21.8730 -138.3990   64.0360 O.2   331  ILE331     -0.2715
     70  CB       -20.2960 -138.9850   61.5080 C.3   331  ILE331      0.0290
     71  CG1      -20.2290 -139.1030   59.9820 C.3   331  ILE331      0.0022
     72  CG2      -18.9910 -139.5750   62.1570 C.3   331  ILE331      0.0023
     73  CD1      -20.4920 -140.5360   59.4610 C.3   331  ILE331      0.0001
     74  N        -21.6160 -140.6030   64.3170 N.am  332  LYS332     -0.1977
     75  CA       -21.6330 -140.5400   65.7810 C.3   332  LYS332      0.1596
     76  C        -20.4110 -139.7800   66.3410 C.2   332  LYS332      0.2287
     77  O        -19.2950 -139.9390   65.8390 O.2   332  LYS332     -0.2864
     78  CB       -21.7200 -141.9620   66.3780 C.3   332  LYS332      0.0298
     79  CG       -21.1400 -142.1050   67.8060 C.3   332  LYS332      0.0038
     80  CD       -21.5110 -143.4280   68.4800 C.3   332  LYS332      0.0206
     81  CE       -20.4540 -143.8450   69.5180 C.3   332  LYS332      0.1093
     82  NZ       -19.1920 -144.3430   68.8770 N.3   332  LYS332     -0.1314
@<TRIPOS>BOND
     1    14    13    1
     2    57    56   ar
     3    56    55    1
     4    56    58   ar
     5    13    15    1
     6    13    12    1
     7    55    54    1
     8    30    29    1
     9    12     9    1
    10     7     5    1
    11    32    33    1
    12     5     6    1
    13     5     2    1
    14    54    51    1
    15    43    49    1
    16    43    44    1
    17    52    53    2
    18    52    51    1
    19    28    29    1
    20    28    25    1
    21    29    31    1
    22    49    48    1
    23     8     9    1
    24     8     3   am
    25     1     2    1
    26     9    10    1
    27    51    50    1
    28    38    37    1
    29    38    39    1
    30    11    10    2
    31     2     3    1
    32    50    45   am
    33    37    36    1
    34    33    36    1
    35    33    34    1
    36     3     4    2
    37    44    45    1
    38    44    47    1
    39    27    26    2
    40    26    25    1
    41    45    46    2
    42    25    24    1
    43    48    47    1
    44    34    35    2
    45    39    40    2
    46    41    40    1
    47    24    18   am
    48    40    42    1
    49    18    19    2
    50    18    17    1
    51    16    17    1
    52    59    65    1
    53    59    60    1
    54    73    71    1
    55    22    21    2
    56    65    64    1
    57    17    20    1
    58    71    70    1
    59    21    23   am
    60    21    20    1
    61    60    61    1
    62    60    63    1
    63    61    62    2
    64    61    66   am
    65    64    63    1
    66    66    67    1
    67    70    67    1
    68    70    72    1
    69    67    68    1
    70    68    69    2
    71    68    74   am
    72    74    75    1
    73    75    76    1
    74    75    78    1
    75    77    76    2
    76    78    79    1
    77    79    80    1
    78    80    81    1
    79    82    81    1
