@<TRIPOS>MOLECULE
tmp/3t6eA03.pdb
 208 196 0 0 0
SMALL
GASTEIGER

@<TRIPOS>ATOM
      1  N        -22.1710  -86.8170   27.6510 N.3   117  ILE117     -0.1245
      2  CA       -22.0610  -85.3810   27.3520 C.3   117  ILE117      0.1561
      3  C        -23.1240  -84.6080   28.1400 C.2   117  ILE117      0.2260
      4  O        -22.8400  -83.6320   28.8350 O.2   117  ILE117     -0.2867
      5  CB       -22.1950  -85.0770   25.8200 C.3   117  ILE117      0.0252
      6  CG1      -21.0100  -85.6940   25.0670 C.3   117  ILE117      0.0019
      7  CG2      -22.2710  -83.6100   25.5590 C.3   117  ILE117      0.0019
      8  CD1      -21.1630  -85.6950   23.5340 C.3   117  ILE117      0.0001
      9  N        -19.9840  -77.4800   29.8730 N.3   124  HIS124     -0.1226
     10  CA       -19.9040  -77.0140   28.4770 C.3   124  HIS124      0.1752
     11  C        -21.2620  -76.8230   27.7940 C.2   124  HIS124      0.2595
     12  O        -21.5530  -75.7510   27.2610 O.2   124  HIS124     -0.2718
     13  CB       -19.0670  -77.9640   27.6190 C.3   124  HIS124      0.0759
     14  CG       -18.6510  -77.3250   26.3530 C.ar  124  HIS124      0.0818
     15  ND1      -17.7470  -76.2920   26.3560 N.ar  124  HIS124     -0.2268
     16  CD2      -19.1250  -77.4160   25.0890 C.ar  124  HIS124      0.1154
     17  CE1      -17.6450  -75.8040   25.1350 C.ar  124  HIS124      0.1986
     18  NE2      -18.4510  -76.4700   24.3430 N.ar  124  HIS124     -0.2212
     19  N        -22.0770  -77.8930   27.7750 N.am  125  VAL125     -0.1980
     20  CA       -23.3180  -77.9360   26.9680 C.3   125  VAL125      0.1595
     21  C        -24.5270  -77.3530   27.6830 C.2   125  VAL125      0.2287
     22  O        -25.6320  -77.1990   27.0770 O.2   125  VAL125     -0.2864
     23  CB       -23.6230  -79.3610   26.4020 C.3   125  VAL125      0.0276
     24  CG1      -22.4320  -79.9050   25.6060 C.3   125  VAL125      0.0022
     25  CG2      -24.0110  -80.4170   27.5150 C.3   125  VAL125      0.0022
     26  N        -26.7620  -81.9390   23.5720 N.3   130  VAL130     -0.1245
     27  CA       -26.5110  -82.4120   22.2270 C.3   130  VAL130      0.1561
     28  C        -27.4430  -83.5900   21.9290 C.2   130  VAL130      0.2260
     29  O        -27.8660  -84.3090   22.8410 O.2   130  VAL130     -0.2867
     30  CB       -25.0380  -82.8130   21.9570 C.3   130  VAL130      0.0252
     31  CG1      -24.0570  -81.6420   22.2840 C.3   130  VAL130      0.0019
     32  CG2      -24.6540  -84.1160   22.6850 C.3   130  VAL130      0.0019
     33  N        -26.4530  -83.1030   16.3200 N.3   134  THR134     -0.1203
     34  CA       -25.4990  -82.0360   16.5590 C.3   134  THR134      0.1994
     35  C        -24.1910  -82.2670   15.7680 C.2   134  THR134      0.2618
     36  O        -23.6780  -81.3680   15.0820 O.2   134  THR134     -0.2717
     37  CB       -25.2080  -81.8760   18.0910 C.3   134  THR134      0.1784
     38  OG1      -26.4420  -81.7280   18.8230 O.3   134  THR134     -0.2211
     39  CG2      -24.2570  -80.6920   18.3370 C.3   134  THR134      0.0376
     40  N        -23.7180  -83.5090   15.8030 N.am  135  CYS135     -0.1969
     41  CA       -22.5580  -83.9340   15.0320 C.3   135  CYS135      0.1712
     42  C        -22.8990  -84.5010   13.6630 C.2   135  CYS135      0.2296
     43  O        -22.3210  -84.0840   12.6680 O.2   135  CYS135     -0.2864
     44  CB       -21.8240  -85.0160   15.8070 C.3   135  CYS135      0.0983
     45  SG       -21.2040  -84.3480   17.3410 S.3   135  CYS135     -0.0798
     46  N         -6.0370  -81.7440   21.0010 N.3   194  LEU194     -0.1245
     47  CA        -7.4280  -82.1770   21.1920 C.3   194  LEU194      0.1561
     48  C         -7.6150  -83.6820   21.1980 C.2   194  LEU194      0.2260
     49  O         -8.6220  -84.1580   21.6730 O.2   194  LEU194     -0.2867
     50  CB        -8.3450  -81.5330   20.1540 C.3   194  LEU194      0.0270
     51  CG        -8.4120  -79.9940   20.1670 C.3   194  LEU194      0.0019
     52  CD1       -9.4550  -79.4720   19.0860 C.3   194  LEU194      0.0001
     53  CD2       -8.7630  -79.5020   21.5550 C.3   194  LEU194      0.0001
     54  N         -9.6970  -72.8340   16.6150 N.3   236  ILE236     -0.1245
     55  CA       -10.9180  -72.6930   17.4640 C.3   236  ILE236      0.1561
     56  C        -11.7550  -71.5120   16.9820 C.2   236  ILE236      0.2260
     57  O        -12.9870  -71.6200   16.8280 O.2   236  ILE236     -0.2867
     58  CB       -10.5140  -72.4880   18.9700 C.3   236  ILE236      0.0252
     59  CG1      -10.0230  -73.8180   19.5490 C.3   236  ILE236      0.0019
     60  CG2      -11.6410  -71.7660   19.8060 C.3   236  ILE236      0.0019
     61  CD1       -9.4860  -73.5240   21.0780 C.3   236  ILE236      0.0001
     62  N        -15.6680  -71.8340   15.4040 N.3   240  LEU240     -0.1245
     63  CA       -16.8040  -71.1960   16.0300 C.3   240  LEU240      0.1561
     64  C        -17.2810  -69.9860   15.2320 C.2   240  LEU240      0.2260
     65  O        -18.2680  -69.3650   15.6210 O.2   240  LEU240     -0.2867
     66  CB       -16.4600  -70.7630   17.4560 C.3   240  LEU240      0.0270
     67  CG       -16.6970  -71.7770   18.5740 C.3   240  LEU240      0.0019
     68  CD1      -15.9070  -73.0610   18.4100 C.3   240  LEU240      0.0001
     69  CD2      -16.4360  -71.1440   19.9710 C.3   240  LEU240      0.0001
     70  N        -13.8690  -62.6510   21.3230 N.3   246  PHE246     -0.1227
     71  CA       -15.0420  -63.2910   21.8670 C.3   246  PHE246      0.1736
     72  C        -14.7050  -63.8800   23.2380 C.2   246  PHE246      0.2595
     73  O        -15.6080  -64.0630   24.0680 O.2   246  PHE246     -0.2718
     74  CB       -15.4310  -64.4210   20.9370 C.3   246  PHE246      0.0547
     75  CG       -16.7420  -65.0520   21.2290 C.ar  246  PHE246     -0.0202
     76  CD1      -17.9160  -64.3510   21.0760 C.ar  246  PHE246     -0.0042
     77  CD2      -16.7970  -66.4120   21.5900 C.ar  246  PHE246     -0.0042
     78  CE1      -19.1590  -64.9820   21.2870 C.ar  246  PHE246     -0.0003
     79  CE2      -18.0520  -67.0400   21.8240 C.ar  246  PHE246     -0.0003
     80  CZ       -19.2240  -66.3060   21.6890 C.ar  246  PHE246     -0.0000
     81  N        -13.4190  -64.2110   23.4390 N.am  247  CYS247     -0.1970
     82  CA       -12.9110  -64.8280   24.6640 C.3   247  CYS247      0.1712
     83  C        -11.8950  -64.0490   25.4750 C.2   247  CYS247      0.2296
     84  O        -11.8780  -64.1220   26.7020 O.2   247  CYS247     -0.2864
     85  CB       -12.3710  -66.2140   24.3440 C.3   247  CYS247      0.0983
     86  SG       -13.6850  -67.2820   23.7030 S.3   247  CYS247     -0.0798
     87  N        -17.3760  -66.8820   28.0110 N.3   263  GLN263     -0.1245
     88  CA       -17.1930  -67.8150   26.8950 C.3   263  GLN263      0.1566
     89  C        -15.8320  -68.4530   26.9160 C.2   263  GLN263      0.2260
     90  O        -15.6930  -69.6010   26.5070 O.2   263  GLN263     -0.2867
     91  CB       -17.4930  -67.1770   25.5300 C.3   263  GLN263      0.0367
     92  CG       -18.9420  -66.7710   25.2930 C.3   263  GLN263      0.0905
     93  CD       -19.5340  -65.7600   26.2730 C.2   263  GLN263      0.2608
     94  OE1      -18.9030  -64.7680   26.6550 O.2   263  GLN263     -0.2717
     95  NE2      -20.7430  -66.0400   26.7260 N.am  263  GLN263     -0.0878
     96  N        -16.1600  -71.3920   29.2230 N.3   266  ILE266     -0.1231
     97  CA       -16.9130  -72.4610   28.5690 C.3   266  ILE266      0.1692
     98  C        -16.0010  -73.1820   27.5640 C.2   266  ILE266      0.2591
     99  O        -15.9730  -74.4130   27.5180 O.2   266  ILE266     -0.2718
    100  CB       -18.1720  -71.9110   27.8880 C.3   266  ILE266      0.0266
    101  CG1      -19.1280  -71.3470   28.9700 C.3   266  ILE266      0.0019
    102  CG2      -18.9150  -73.0260   27.0420 C.3   266  ILE266      0.0020
    103  CD1      -20.2320  -70.3790   28.4340 C.3   266  ILE266      0.0001
    104  N        -15.2280  -72.4250   26.7920 N.am  267  ALA267     -0.1980
    105  CA       -14.2200  -73.0080   25.8530 C.3   267  ALA267      0.1597
    106  C        -13.2240  -73.9440   26.5690 C.2   267  ALA267      0.2287
    107  O        -12.8540  -75.0290   26.0610 O.2   267  ALA267     -0.2864
    108  CB       -13.4480  -71.8920   25.1110 C.3   267  ALA267      0.0319
    109  N        -14.7920  -77.0290   27.1450 N.3   270  GLY270     -0.1210
    110  CA       -14.9140  -77.7190   25.8610 C.3   270  GLY270      0.1956
    111  C        -13.6850  -78.4860   25.4690 C.2   270  GLY270      0.2611
    112  O        -13.7730  -79.5650   24.9210 O.2   270  GLY270     -0.2717
    113  N        -12.5250  -77.9230   25.7440 N.am  271  ILE271     -0.1979
    114  CA       -11.2720  -78.6310   25.4720 C.3   271  ILE271      0.1595
    115  C        -11.2230  -79.9220   26.3010 C.2   271  ILE271      0.2287
    116  O        -10.8350  -80.9800   25.7990 O.2   271  ILE271     -0.2864
    117  CB       -10.0430  -77.7700   25.7830 C.3   271  ILE271      0.0276
    118  CG1       -9.9640  -76.5910   24.8180 C.3   271  ILE271      0.0022
    119  CG2       -8.7700  -78.6710   25.7790 C.3   271  ILE271      0.0022
    120  CD1       -8.9940  -75.4350   25.3260 C.3   271  ILE271      0.0001
    121  N        -13.8350  -81.6090   27.5500 N.3   273  MET273     -0.1230
    122  CA       -14.8680  -82.4930   27.0530 C.3   273  MET273      0.1702
    123  C        -14.3840  -83.2210   25.7850 C.2   273  MET273      0.2592
    124  O        -14.6080  -84.4230   25.6260 O.2   273  MET273     -0.2718
    125  CB       -16.1520  -81.6570   26.7530 C.3   273  MET273      0.0401
    126  CG       -17.2840  -82.5170   26.1760 C.3   273  MET273      0.0596
    127  SD       -18.7140  -81.5840   25.7270 S.3   273  MET273     -0.1393
    128  CE       -18.0780  -80.7840   24.2420 C.3   273  MET273      0.0692
    129  N        -13.8490  -82.4700   24.8370 N.am  274  VAL274     -0.1980
    130  CA       -13.4020  -83.0280   23.5530 C.3   274  VAL274      0.1595
    131  C        -12.3230  -84.0850   23.7980 C.2   274  VAL274      0.2287
    132  O        -12.3040  -85.1320   23.1580 O.2   274  VAL274     -0.2864
    133  CB       -12.8440  -81.9100   22.5940 C.3   274  VAL274      0.0276
    134  CG1      -11.9350  -82.5130   21.4800 C.3   274  VAL274      0.0022
    135  CG2      -14.0320  -81.0980   22.0210 C.3   274  VAL274      0.0022
    136  N        -14.0920  -87.1810   25.0340 N.3   277  LEU277     -0.1245
    137  CA       -14.7720  -87.8300   23.8870 C.3   277  LEU277      0.1561
    138  C        -13.8120  -88.6430   23.0340 C.2   277  LEU277      0.2260
    139  O        -14.0930  -89.7890   22.7010 O.2   277  LEU277     -0.2867
    140  CB       -15.5000  -86.7940   23.0180 C.3   277  LEU277      0.0270
    141  CG       -16.6350  -86.0840   23.7830 C.3   277  LEU277      0.0019
    142  CD1      -17.3400  -85.0540   22.8580 C.3   277  LEU277      0.0001
    143  CD2      -17.6410  -87.0990   24.3840 C.3   277  LEU277      0.0001
    144  N        -13.3480  -86.0710   17.0230 N.3   303  ALA303     -0.1231
    145  CA       -14.0780  -84.7820   17.0700 C.3   303  ALA303      0.1694
    146  C        -13.1850  -83.6130   17.3820 C.2   303  ALA303      0.2592
    147  O        -12.2130  -83.7600   18.1210 O.2   303  ALA303     -0.2718
    148  CB       -15.2320  -84.8460   18.1130 C.3   303  ALA303      0.0304
    149  N        -13.5210  -82.4410   16.8360 N.am  304  ASP304     -0.1960
    150  CA       -12.8940  -81.2010   17.2930 C.3   304  ASP304      0.1840
    151  C        -14.0140  -80.2320   17.5860 C.2   304  ASP304      0.2622
    152  O        -15.1550  -80.6370   17.6630 O.2   304  ASP304     -0.2715
    153  CB       -11.8800  -80.6340   16.2700 C.3   304  ASP304      0.1450
    154  CG       -12.5270  -80.2650   14.9060 C.2   304  ASP304      0.3671
    155  OD1      -13.8050  -80.2790   14.8120 O.co2 304  ASP304     -0.2456
    156  OD2      -11.7510  -79.9190   13.9320 O.co2 304  ASP304     -0.2456
    157  N        -13.7050  -78.9580   17.7970 N.am  305  CYS305     -0.1968
    158  CA       -14.7730  -78.0040   18.1110 C.3   305  CYS305      0.1712
    159  C        -15.7860  -77.9040   16.9510 C.2   305  CYS305      0.2296
    160  O        -17.0130  -77.7510   17.1840 O.2   305  CYS305     -0.2864
    161  CB       -14.2000  -76.6040   18.4130 C.3   305  CYS305      0.0983
    162  SG       -12.8250  -76.6560   19.5470 S.3   305  CYS305     -0.0798
    163  N        -16.7310  -80.0760   14.8310 N.3   307  THR307     -0.1203
    164  CA       -17.6350  -81.2390   14.7240 C.3   307  THR307      0.1994
    165  C        -19.0740  -80.8980   15.1680 C.2   307  THR307      0.2618
    166  O        -19.9970  -81.2290   14.4750 O.2   307  THR307     -0.2717
    167  CB       -17.1130  -82.3970   15.5120 C.3   307  THR307      0.1784
    168  OG1      -15.7830  -82.6680   15.0700 O.3   307  THR307     -0.2211
    169  CG2      -18.0070  -83.6900   15.3460 C.3   307  THR307      0.0376
    170  N        -19.2320  -80.1870   16.2870 N.am  308  CYS308     -0.1955
    171  CA       -20.5420  -79.7140   16.7260 C.3   308  CYS308      0.1843
    172  C        -20.8680  -78.3030   16.2560 C.2   308  CYS308      0.2625
    173  O        -21.9920  -78.0060   15.8910 O.2   308  CYS308     -0.2714
    174  CB       -20.5970  -79.7250   18.2520 C.3   308  CYS308      0.0997
    175  SG       -20.5410  -81.3740   18.9740 S.3   308  CYS308     -0.0797
    176  N        -19.8830  -77.4130   16.3680 N.am  309  HIS309     -0.1973
    177  CA       -20.1440  -76.0020   16.2130 C.3   309  HIS309      0.1656
    178  C        -20.3540  -75.5780   14.7390 C.2   309  HIS309      0.2291
    179  O        -21.1870  -74.6920   14.4560 O.2   309  HIS309     -0.2864
    180  CB       -18.9780  -75.1950   16.8520 C.3   309  HIS309      0.0771
    181  CG       -19.1060  -75.0320   18.3260 C.ar  309  HIS309      0.0820
    182  ND1      -19.6960  -73.9210   18.8950 N.ar  309  HIS309     -0.2267
    183  CD2      -18.7610  -75.8510   19.3520 C.ar  309  HIS309      0.1154
    184  CE1      -19.7260  -74.0900   20.2060 C.ar  309  HIS309      0.1986
    185  NE2      -19.1530  -75.2320   20.5140 N.ar  309  HIS309     -0.2212
    186  N        -20.9630  -69.9350   17.1050 N.3   313  THR313     -0.1203
    187  CA       -20.4960  -69.8630   18.4810 C.3   313  THR313      0.1994
    188  C        -21.2650  -70.7600   19.4460 C.2   313  THR313      0.2618
    189  O        -20.6970  -71.2110   20.4210 O.2   313  THR313     -0.2717
    190  CB       -20.4840  -68.4020   19.0130 C.3   313  THR313      0.1784
    191  OG1      -21.7550  -67.7940   18.7600 O.3   313  THR313     -0.2211
    192  CG2      -19.3500  -67.5940   18.3420 C.3   313  THR313      0.0376
    193  N        -22.5370  -71.0660   19.1300 N.am  314  LYS314     -0.1966
    194  CA       -23.3100  -72.1510   19.7500 C.3   314  LYS314      0.1713
    195  C        -23.7380  -73.0770   18.6530 C.2   314  LYS314      0.2458
    196  O        -24.2890  -72.5860   17.6350 O.2   314  LYS314     -0.2730
    197  CB       -24.5650  -71.6270   20.4320 C.3   314  LYS314      0.0311
    198  CG       -24.3010  -70.6740   21.6260 C.3   314  LYS314      0.0038
    199  CD       -25.6180  -70.1400   22.2200 C.3   314  LYS314      0.0206
    200  CE       -25.4140  -69.3180   23.5070 C.3   314  LYS314      0.1093
    201  NZ       -26.7190  -68.6950   23.9830 N.3   314  LYS314     -0.1314
    202  N        -23.4950  -74.3950   18.7990 N.am  315  PRO315     -0.2727
    203  CA       -23.9590  -75.2730   17.7460 C.3   315  PRO315      0.1402
    204  C        -25.4510  -75.0320   17.4500 C.2   315  PRO315      0.2269
    205  O        -26.2580  -74.8520   18.3810 O.2   315  PRO315     -0.2865
    206  CB       -23.7900  -76.6520   18.3360 C.3   315  PRO315      0.0296
    207  CG       -22.7200  -76.5240   19.3480 C.3   315  PRO315      0.0237
    208  CD       -23.0130  -75.1700   19.9560 C.3   315  PRO315      0.0939
@<TRIPOS>BOND
     1    43    42    2
     2    42    41    1
     3   156   154   ar
     4   179   178    2
     5   166   165    2
     6   164   163    1
     7   164   165    1
     8   164   167    1
     9   178   177    1
    10   155   154   ar
    11   154   153    1
    12    41    40    1
    13    41    44    1
    14   168   167    1
    15    36    35    2
    16   165   170   am
    17    64    65    2
    18    64    63    1
    19   169   167    1
    20    62    63    1
    21    35    40   am
    22    35    34    1
    23    44    45    1
    24   173   172    2
    25    63    66    1
    26   177   176    1
    27   177   180    1
    28   172   176   am
    29   172   171    1
    30   153   150    1
    31   170   171    1
    32    33    34    1
    33    34    37    1
    34    54    55    1
    35   171   174    1
    36    57    56    2
    37   149   150    1
    38   149   146   am
    39   180   181    1
    40   159   160    2
    41   159   158    1
    42    56    55    1
    43   144   145    1
    44   145   146    1
    45   145   148    1
    46   186   187    1
    47   150   151    1
    48   146   147    2
    49   204   203    1
    50   204   205    2
    51    66    67    1
    52    55    58    1
    53   151   152    2
    54   151   157   am
    55   196   195    2
    56   203   206    1
    57   203   202    1
    58   157   158    1
    59    37    39    1
    60    37    38    1
    61   158   161    1
    62   174   175    1
    63   181   182   ar
    64   181   183   ar
    65   206   207    1
    66   192   190    1
    67    68    67    1
    68   161   162    1
    69   187   190    1
    70   187   188    1
    71    67    69    1
    72   195   202   am
    73   195   194    1
    74   191   190    1
    75   202   208    1
    76   182   184   ar
    77    58    59    1
    78    58    60    1
    79    52    51    1
    80   193   188   am
    81   193   194    1
    82   207   208    1
    83   183   185   ar
    84   188   189    2
    85    59    61    1
    86   194   197    1
    87    50    51    1
    88    50    47    1
    89    51    53    1
    90   184   185   ar
    91   197   198    1
    92    74    75    1
    93    74    71    1
    94    46    47    1
    95    76    75   ar
    96    76    78   ar
    97    47    48    1
    98    48    49    2
    99    75    77   ar
   100    78    80   ar
   101    70    71    1
   102   134   133    1
   103    77    79   ar
   104   198   199    1
   105    80    79   ar
   106    71    72    1
   107    28    27    1
   108    28    29    2
   109    30    27    1
   110    30    31    1
   111    30    32    1
   112   135   133    1
   113   199   200    1
   114    27    26    1
   115   133   130    1
   116   139   138    2
   117   142   141    1
   118   140   141    1
   119   140   137    1
   120   138   137    1
   121   132   131    2
   122    72    81   am
   123    72    73    2
   124    81    82    1
   125   200   201    1
   126     8     6    1
   127   130   131    1
   128   130   129    1
   129    86    85    1
   130   141   143    1
   131   137   136    1
   132   128   127    1
   133    18    16   ar
   134    18    17   ar
   135    85    82    1
   136    82    83    1
   137   118   120    1
   138   118   117    1
   139   129   123   am
   140   112   111    2
   141     6     5    1
   142    16    14   ar
   143   108   105    1
   144    17    15   ar
   145    92    91    1
   146    92    93    1
   147   111   113   am
   148   111   110    1
   149   114   113    1
   150   114   117    1
   151   114   115    1
   152    83    84    2
   153    91    88    1
   154     7     5    1
   155    24    23    1
   156   124   123    2
   157   127   126    1
   158   119   117    1
   159   123   122    1
   160   116   115    2
   161     5     2    1
   162   105   106    1
   163   105   104    1
   164   110   109    1
   165   107   106    2
   166   126   125    1
   167    93    94    2
   168    93    95   am
   169    14    15   ar
   170    14    13    1
   171    23    20    1
   172    23    25    1
   173    90    89    2
   174   125   122    1
   175   104    98   am
   176    88    89    1
   177    88    87    1
   178    20    21    1
   179    20    19    1
   180   102   100    1
   181   122   121    1
   182    22    21    2
   183    12    11    2
   184     2     1    1
   185     2     3    1
   186    99    98    2
   187    98    97    1
   188    13    10    1
   189    19    11   am
   190    11    10    1
   191   100    97    1
   192   100   101    1
   193     3     4    2
   194   103   101    1
   195    10     9    1
   196    97    96    1
