@<TRIPOS>MOLECULE
tmp/3t6eD09.pdb
 76 76 0 0 0
SMALL
GASTEIGER

@<TRIPOS>ATOM
      1  N         31.6010  -51.5850  -13.8000 N.3    29  VAL29      -0.1231
      2  CA        31.1470  -52.3020  -14.9880 C.3    29  VAL29       0.1692
      3  C         29.7390  -51.8750  -15.3850 C.2    29  VAL29       0.2593
      4  O         28.9510  -51.3960  -14.5580 O.2    29  VAL29      -0.2718
      5  CB        31.1530  -53.8510  -14.7850 C.3    29  VAL29       0.0266
      6  CG1       32.5640  -54.3380  -14.4590 C.3    29  VAL29       0.0020
      7  CG2       30.1730  -54.2520  -13.6990 C.3    29  VAL29       0.0020
      8  N         29.4220  -52.0890  -16.6570 N.am   30  GLY30      -0.1942
      9  CA        28.1490  -51.6830  -17.2520 C.3    30  GLY30       0.2014
     10  C         28.4810  -50.4960  -18.1340 C.2    30  GLY30       0.2638
     11  O         29.5990  -49.9390  -18.0710 O.2    30  GLY30      -0.2714
     12  N         27.5390  -50.1420  -18.9960 N.am   31  LYS31      -0.1977
     13  CA        27.5910  -48.8730  -19.7010 C.3    31  LYS31       0.1596
     14  C         26.3320  -48.1670  -19.2250 C.2    31  LYS31       0.2287
     15  O         25.2500  -48.7580  -19.2550 O.2    31  LYS31      -0.2864
     16  CB        27.5740  -49.0830  -21.2320 C.3    31  LYS31       0.0298
     17  CG        28.0580  -47.8800  -22.0480 C.3    31  LYS31       0.0038
     18  CD        28.1120  -48.2090  -23.5660 C.3    31  LYS31       0.0206
     19  CE        28.8490  -47.1350  -24.3990 C.3    31  LYS31       0.1093
     20  NZ        29.2130  -47.6000  -25.8070 N.3    31  LYS31      -0.1314
     21  N         22.8840  -46.4120  -19.0520 N.3    33  PHE33      -0.1227
     22  CA        21.8080  -46.1000  -19.9980 C.3    33  PHE33       0.1736
     23  C         20.8110  -45.1760  -19.3240 C.2    33  PHE33       0.2595
     24  O         20.8930  -44.9730  -18.1030 O.2    33  PHE33      -0.2718
     25  CB        21.1560  -47.3470  -20.5770 C.3    33  PHE33       0.0547
     26  CG        20.4970  -48.2050  -19.5750 C.ar   33  PHE33      -0.0202
     27  CD1       19.1270  -48.1320  -19.3820 C.ar   33  PHE33      -0.0042
     28  CD2       21.2490  -49.1030  -18.8170 C.ar   33  PHE33      -0.0042
     29  CE1       18.5130  -48.9340  -18.4430 C.ar   33  PHE33      -0.0003
     30  CE2       20.6290  -49.9090  -17.8560 C.ar   33  PHE33      -0.0003
     31  CZ        19.2650  -49.8340  -17.6820 C.ar   33  PHE33      -0.0000
     32  N         19.9190  -44.5810  -20.1150 N.am   34  TYR34      -0.1962
     33  CA        19.0600  -43.4970  -19.6590 C.3    34  TYR34       0.1771
     34  C         17.6260  -43.8780  -19.8700 C.2    34  TYR34       0.2620
     35  O         17.3140  -44.3760  -20.9300 O.2    34  TYR34      -0.2715
     36  CB        19.3960  -42.2360  -20.4500 C.3    34  TYR34       0.0574
     37  CG        20.8130  -41.8540  -20.1980 C.ar   34  TYR34      -0.0198
     38  CD1       21.8520  -42.3660  -20.9820 C.ar   34  TYR34      -0.0009
     39  CD2       21.1420  -41.0330  -19.1240 C.ar   34  TYR34      -0.0009
     40  CE1       23.1890  -42.0330  -20.7260 C.ar   34  TYR34       0.0417
     41  CE2       22.4580  -40.7070  -18.8480 C.ar   34  TYR34       0.0417
     42  CZ        23.4890  -41.2050  -19.6550 C.ar   34  TYR34       0.1957
     43  OH        24.8030  -40.8710  -19.3680 O.3    34  TYR34      -0.2866
     44  N         16.7760  -43.6820  -18.8630 N.am   35  SER35      -0.1950
     45  CA        15.3250  -43.8170  -19.0180 C.3    35  SER35       0.1924
     46  C         14.6460  -42.4500  -18.9490 C.2    35  SER35       0.2314
     47  O         14.7530  -41.7150  -17.9370 O.2    35  SER35      -0.2863
     48  CB        14.7210  -44.7200  -17.9380 C.3    35  SER35       0.2116
     49  OG        13.3170  -44.6190  -17.9450 O.3    35  SER35      -0.2180
     50  N         21.0940  -44.8570  -15.3510 N.3    46  ILE46      -0.1231
     51  CA        21.1850  -46.1310  -14.6550 C.3    46  ILE46       0.1692
     52  C         22.5130  -46.7610  -14.9550 C.2    46  ILE46       0.2593
     53  O         22.9380  -46.8360  -16.1450 O.2    46  ILE46      -0.2718
     54  CB        20.0360  -47.0730  -15.0550 C.3    46  ILE46       0.0266
     55  CG1       18.7010  -46.4010  -14.7010 C.3    46  ILE46       0.0019
     56  CG2       20.1590  -48.4450  -14.3450 C.3    46  ILE46       0.0020
     57  CD1       17.5120  -47.0320  -15.3440 C.3    46  ILE46       0.0001
     58  N         23.1710  -47.2240  -13.8900 N.am   47  GLY47      -0.1943
     59  CA        24.5060  -47.7540  -13.9890 C.3    47  GLY47       0.1998
     60  C         25.5300  -46.6260  -14.2080 C.2    47  GLY47       0.2481
     61  O         25.1950  -45.4230  -14.2390 O.2    47  GLY47      -0.2729
     62  N         26.8020  -46.9940  -14.3320 N.am   48  PRO48      -0.2715
     63  CA        27.3570  -48.3320  -14.1560 C.3    48  PRO48       0.1536
     64  C         27.3550  -48.7090  -12.6630 C.2    48  PRO48       0.2598
     65  O         26.9430  -47.9000  -11.8020 O.2    48  PRO48      -0.2715
     66  CB        28.8000  -48.1820  -14.6640 C.3    48  PRO48       0.0310
     67  CG        29.1530  -46.7650  -14.4470 C.3    48  PRO48       0.0237
     68  CD        27.8520  -45.9590  -14.3880 C.3    48  PRO48       0.0939
     69  N         27.7920  -49.9210  -12.3520 N.am   49  ILE49      -0.1978
     70  CA        27.8320  -50.3500  -10.9630 C.3    49  ILE49       0.1596
     71  C         29.2330  -50.7940  -10.6250 C.2    49  ILE49       0.2287
     72  O         29.9480  -51.2820  -11.4760 O.2    49  ILE49      -0.2864
     73  CB        26.8280  -51.5070  -10.6560 C.3    49  ILE49       0.0276
     74  CG1       26.6160  -51.6210   -9.1210 C.3    49  ILE49       0.0022
     75  CG2       27.3020  -52.8290  -11.3440 C.3    49  ILE49       0.0022
     76  CD1       25.3820  -52.4680   -8.6780 C.3    49  ILE49       0.0001
@<TRIPOS>BOND
     1    20    19    1
     2    19    18    1
     3    18    17    1
     4    17    16    1
     5    16    13    1
     6    38    40   ar
     7    38    37   ar
     8    35    34    2
     9    40    42   ar
    10    25    22    1
    11    25    26    1
    12    36    37    1
    13    36    33    1
    14    37    39   ar
    15    32    33    1
    16    32    23   am
    17    22    23    1
    18    22    21    1
    19    34    33    1
    20    34    44   am
    21    13    14    1
    22    13    12    1
    23    42    43    1
    24    42    41   ar
    25    26    27   ar
    26    26    28   ar
    27    27    29   ar
    28    23    24    2
    29    15    14    2
    30    39    41   ar
    31    45    46    1
    32    45    44    1
    33    45    48    1
    34    12    10   am
    35    46    47    2
    36    28    30   ar
    37    29    31   ar
    38    10    11    2
    39    10     9    1
    40    49    48    1
    41    30    31   ar
    42     9     8    1
    43     8     3   am
    44    53    52    2
    45     3     2    1
    46     3     4    2
    47    50    51    1
    48    57    55    1
    49    54    55    1
    50    54    51    1
    51    54    56    1
    52     2     5    1
    53     2     1    1
    54    52    51    1
    55    52    58   am
    56     5     6    1
    57     5     7    1
    58    66    67    1
    59    66    63    1
    60    67    68    1
    61    68    62    1
    62    62    60   am
    63    62    63    1
    64    61    60    2
    65    60    59    1
    66    63    64    1
    67    59    58    1
    68    64    69   am
    69    64    65    2
    70    69    70    1
    71    72    71    2
    72    75    73    1
    73    70    73    1
    74    70    71    1
    75    73    74    1
    76    74    76    1
