@<TRIPOS>MOLECULE
tmp/3t6eD10.pdb
 140 138 0 0 0
SMALL
GASTEIGER

@<TRIPOS>ATOM
      1  N         24.0410  -68.3420   -1.6490 N.3    64  THR64      -0.1218
      2  CA        24.0870  -69.6260   -0.9580 C.3    64  THR64       0.1862
      3  C         22.9720  -69.7340    0.0950 C.2    64  THR64       0.2287
      4  O         22.2870  -70.7550    0.1680 O.2    64  THR64      -0.2866
      5  CB        25.4340  -69.8440   -0.3100 C.3    64  THR64       0.1770
      6  OG1       26.4530  -69.7820   -1.3380 O.3    64  THR64      -0.2211
      7  CG2       25.4850  -71.2090    0.4550 C.3    64  THR64       0.0375
      8  N         19.6900  -70.1230   -1.8170 N.3    67  LEU67      -0.1231
      9  CA        19.4960  -71.4740   -2.3310 C.3    67  LEU67       0.1693
     10  C         19.1390  -72.4900   -1.2470 C.2    67  LEU67       0.2591
     11  O         18.3260  -73.3910   -1.4970 O.2    67  LEU67      -0.2718
     12  CB        20.7260  -71.9370   -3.1170 C.3    67  LEU67       0.0284
     13  CG        20.8490  -71.2480   -4.4930 C.3    67  LEU67       0.0019
     14  CD1       22.2420  -71.5620   -5.0860 C.3    67  LEU67       0.0001
     15  CD2       19.6710  -71.6370   -5.4880 C.3    67  LEU67       0.0001
     16  N         19.7340  -72.3690   -0.0540 N.am   68  ILE68      -0.1980
     17  CA        19.4150  -73.3000    1.0400 C.3    68  ILE68       0.1595
     18  C         17.9250  -73.1560    1.4210 C.2    68  ILE68       0.2287
     19  O         17.2190  -74.1340    1.6220 O.2    68  ILE68      -0.2864
     20  CB        20.3070  -73.0890    2.3000 C.3    68  ILE68       0.0276
     21  CG1       21.7510  -73.5230    2.0420 C.3    68  ILE68       0.0022
     22  CG2       19.7650  -73.8680    3.4960 C.3    68  ILE68       0.0022
     23  CD1       22.7530  -72.7700    2.9800 C.3    68  ILE68       0.0001
     24  N         15.5870  -74.4640   -1.5610 N.3    71  PHE71      -0.1227
     25  CA        15.6240  -75.9250   -1.6740 C.3    71  PHE71       0.1736
     26  C         14.7950  -76.5940   -0.5520 C.2    71  PHE71       0.2595
     27  O         14.1250  -77.5960   -0.7970 O.2    71  PHE71      -0.2718
     28  CB        17.0880  -76.4420   -1.7150 C.3    71  PHE71       0.0547
     29  CG        17.6730  -76.6050   -3.1300 C.ar   71  PHE71      -0.0202
     30  CD1       18.1130  -75.5130   -3.8680 C.ar   71  PHE71      -0.0042
     31  CD2       17.8160  -77.8640   -3.6910 C.ar   71  PHE71      -0.0042
     32  CE1       18.6500  -75.6710   -5.1440 C.ar   71  PHE71      -0.0003
     33  CE2       18.3550  -78.0330   -4.9690 C.ar   71  PHE71      -0.0003
     34  CZ        18.7700  -76.9260   -5.6910 C.ar   71  PHE71      -0.0000
     35  N         14.8250  -76.0390    0.6660 N.am   72  ASN72      -0.1974
     36  CA        13.9690  -76.5100    1.7770 C.3    72  ASN72       0.1688
     37  C         12.4890  -76.1780    1.5570 C.2    72  ASN72       0.2292
     38  O         11.6330  -77.0050    1.8150 O.2    72  ASN72      -0.2864
     39  CB        14.4470  -75.9960    3.1440 C.3    72  ASN72       0.1181
     40  CG        15.6760  -76.7660    3.6520 C.2    72  ASN72       0.2629
     41  OD1       15.5290  -77.7720    4.3530 O.2    72  ASN72      -0.2716
     42  ND2       16.9000  -76.3260    3.2500 N.am   72  ASN72      -0.0877
     43  N         11.2950  -78.7310   -0.9270 N.3    75  ALA75      -0.1245
     44  CA        11.0670  -80.0250   -0.2400 C.3    75  ALA75       0.1562
     45  C          9.6980  -80.0490    0.4400 C.2    75  ALA75       0.2260
     46  O          9.0140  -81.0830    0.4760 O.2    75  ALA75      -0.2867
     47  CB        12.1930  -80.3170    0.7830 C.3    75  ALA75       0.0290
     48  N          8.7640  -81.0390   -4.0680 N.3    79  PHE79      -0.1241
     49  CA         9.3660  -80.6190   -5.3450 C.3    79  PHE79       0.1605
     50  C          8.4150  -80.4130   -6.5310 C.2    79  PHE79       0.2264
     51  O          8.8490  -80.4870   -7.6890 O.2    79  PHE79      -0.2867
     52  CB        10.5320  -81.5710   -5.7030 C.3    79  PHE79       0.0534
     53  CG        11.5360  -81.6610   -4.6000 C.ar   79  PHE79      -0.0203
     54  CD1       12.4440  -80.6220   -4.3900 C.ar   79  PHE79      -0.0042
     55  CD2       11.5120  -82.7250   -3.7090 C.ar   79  PHE79      -0.0042
     56  CE1       13.3340  -80.6680   -3.3220 C.ar   79  PHE79      -0.0003
     57  CE2       12.4020  -82.7850   -2.6430 C.ar   79  PHE79      -0.0003
     58  CZ        13.3170  -81.7660   -2.4450 C.ar   79  PHE79      -0.0000
     59  N         23.6770  -77.9970   18.2560 N.3   104  ILE104     -0.1231
     60  CA        23.4940  -77.8920   16.8060 C.3   104  ILE104      0.1678
     61  C         22.3460  -78.8060   16.4520 C.2   104  ILE104      0.2434
     62  O         22.4070  -79.9860   16.7380 O.2   104  ILE104     -0.2733
     63  CB        24.7430  -78.3500   16.0000 C.3   104  ILE104      0.0265
     64  CG1       25.9620  -77.4730   16.3050 C.3   104  ILE104      0.0019
     65  CG2       24.4600  -78.3420   14.4990 C.3   104  ILE104      0.0020
     66  CD1       25.6550  -76.0570   16.5210 C.3   104  ILE104      0.0001
     67  N         21.2600  -78.2510   15.8880 N.am  105  PRO105     -0.2718
     68  CA        20.1290  -79.1150   15.6240 C.3   105  PRO105      0.1520
     69  C         20.4490  -80.0290   14.4540 C.2   105  PRO105      0.2440
     70  O         21.3200  -79.6920   13.6650 O.2   105  PRO105     -0.2731
     71  CB        19.0040  -78.1400   15.2480 C.3   105  PRO105      0.0310
     72  CG        19.5560  -76.7820   15.3090 C.3   105  PRO105      0.0237
     73  CD        21.0270  -76.8660   15.4250 C.3   105  PRO105      0.0939
     74  N         19.7560  -81.1590   14.3490 N.am  106  PRO106     -0.2716
     75  CA        19.8700  -81.9580   13.1350 C.3   106  PRO106      0.1536
     76  C         19.2800  -81.2230   11.9200 C.2   106  PRO106      0.2598
     77  O         18.3780  -80.3740   12.0670 O.2   106  PRO106     -0.2715
     78  CB        19.0560  -83.2300   13.4600 C.3   106  PRO106      0.0310
     79  CG        18.1180  -82.8570   14.5510 C.3   106  PRO106      0.0237
     80  CD        18.7250  -81.6690   15.2780 C.3   106  PRO106      0.0939
     81  N         19.7800  -81.5710   10.7380 N.am  107  LEU107     -0.1964
     82  CA        19.3960  -80.9500    9.4620 C.3   107  LEU107      0.1728
     83  C         17.9100  -80.9560    9.2030 C.2   107  LEU107      0.2616
     84  O         17.4050  -79.9850    8.6490 O.2   107  LEU107     -0.2715
     85  CB        20.0800  -81.6490    8.2760 C.3   107  LEU107      0.0311
     86  CG        21.5610  -81.4360    8.0600 C.3   107  LEU107      0.0022
     87  CD1       21.9990  -82.3240    6.8150 C.3   107  LEU107      0.0001
     88  CD2       21.9090  -79.9770    7.8620 C.3   107  LEU107      0.0001
     89  N         17.2220  -82.0190    9.6260 N.am  108  HIS108     -0.1973
     90  CA        15.7790  -82.1420    9.4600 C.3   108  HIS108      0.1656
     91  C         14.9650  -81.3730   10.5100 C.2   108  HIS108      0.2291
     92  O         13.7540  -81.3230   10.3940 O.2   108  HIS108     -0.2864
     93  CB        15.3180  -83.6190    9.4860 C.3   108  HIS108      0.0771
     94  CG        15.3820  -84.2570   10.8410 C.ar  108  HIS108      0.0820
     95  ND1       16.5290  -84.8480   11.3310 N.ar  108  HIS108     -0.2267
     96  CD2       14.4460  -84.3840   11.8150 C.ar  108  HIS108      0.1154
     97  CE1       16.2960  -85.3140   12.5490 C.ar  108  HIS108      0.1986
     98  NE2       15.0410  -85.0420   12.8670 N.ar  108  HIS108     -0.2212
     99  N         18.7870  -77.5500   11.3690 N.3   111  GLY111     -0.1210
    100  CA        20.2120  -77.4370   10.9680 C.3   111  GLY111      0.1956
    101  C         20.3980  -76.6080    9.6940 C.2   111  GLY111      0.2611
    102  O         21.3730  -75.8710    9.5620 O.2   111  GLY111     -0.2717
    103  N         19.4900  -76.7660    8.7290 N.am  112  TRP112     -0.1976
    104  CA        19.5570  -75.9780    7.4810 C.3   112  TRP112      0.1640
    105  C         19.2330  -74.5170    7.7540 C.2   112  TRP112      0.2290
    106  O         19.7850  -73.6460    7.1120 O.2   112  TRP112     -0.2864
    107  CB        18.6060  -76.5200    6.3950 C.3   112  TRP112      0.0576
    108  CG        19.0500  -77.7780    5.7290 C.ar  112  TRP112      0.0006
    109  CD1       18.4240  -78.9940    5.7630 C.ar  112  TRP112      0.0946
    110  CD2       20.2190  -77.9510    4.9140 C.ar  112  TRP112      0.0152
    111  NE1       19.1400  -79.9010    5.0360 N.ar  112  TRP112     -0.2442
    112  CE2       20.2280  -79.2840    4.4800 C.ar  112  TRP112      0.0810
    113  CE3       21.2450  -77.0980    4.4980 C.ar  112  TRP112      0.0012
    114  CZ2       21.2420  -79.8010    3.6760 C.ar  112  TRP112      0.0191
    115  CZ3       22.2460  -77.6070    3.6730 C.ar  112  TRP112      0.0001
    116  CH2       22.2430  -78.9490    3.2920 C.ar  112  TRP112      0.0015
    117  N         19.9780  -72.9180   10.4820 N.3   114  LEU114     -0.1231
    118  CA        21.2000  -72.3850   11.0670 C.3   114  LEU114      0.1693
    119  C         22.2560  -72.0600    9.9850 C.2   114  LEU114      0.2591
    120  O         22.8850  -71.0070   10.0240 O.2   114  LEU114     -0.2718
    121  CB        21.7470  -73.3410   12.1440 C.3   114  LEU114      0.0284
    122  CG        22.7870  -72.7780   13.1240 C.3   114  LEU114      0.0019
    123  CD1       22.1850  -71.6140   13.9490 C.3   114  LEU114      0.0001
    124  CD2       23.3010  -73.8750   14.0470 C.3   114  LEU114      0.0001
    125  N         22.4150  -72.9650    9.0200 N.am  115  MET115     -0.1979
    126  CA        23.3220  -72.7690    7.9030 C.3   115  MET115      0.1605
    127  C         22.9380  -71.5700    7.0620 C.2   115  MET115      0.2287
    128  O         23.7950  -70.7710    6.6840 O.2   115  MET115     -0.2864
    129  CB        23.3400  -74.0110    7.0050 C.3   115  MET115      0.0413
    130  CG        24.4360  -73.9870    5.9670 C.3   115  MET115      0.0598
    131  SD        24.5660  -75.5730    5.1370 S.3   115  MET115     -0.1393
    132  CE        24.4590  -76.6810    6.5540 C.3   115  MET115      0.0692
    133  N         23.9780  -68.3910    8.9870 N.3   118  LEU118     -0.1245
    134  CA        25.4080  -68.1390    8.8460 C.3   118  LEU118      0.1561
    135  C         25.7520  -67.4660    7.5100 C.2   118  LEU118      0.2260
    136  O         26.4510  -66.4510    7.4770 O.2   118  LEU118     -0.2867
    137  CB        26.1570  -69.4660    8.9920 C.3   118  LEU118      0.0270
    138  CG        27.6720  -69.4360    8.8480 C.3   118  LEU118      0.0019
    139  CD1       28.3070  -68.4280    9.8070 C.3   118  LEU118      0.0001
    140  CD2       28.2350  -70.8580    9.0650 C.3   118  LEU118      0.0001
@<TRIPOS>BOND
     1    51    50    2
     2    50    49    1
     3    52    49    1
     4    52    53    1
     5    34    32   ar
     6    34    33   ar
     7    15    13    1
     8    49    48    1
     9    32    30   ar
    10    14    13    1
    11    33    31   ar
    12    53    54   ar
    13    53    55   ar
    14    13    12    1
    15    54    56   ar
    16    30    29   ar
    17    55    57   ar
    18    31    29   ar
    19    56    58   ar
    20    29    28    1
    21    12     9    1
    22    57    58   ar
    23     9     8    1
    24     9    10    1
    25    28    25    1
    26    25    24    1
    27    25    26    1
    28     1     2    1
    29    11    10    2
    30     6     5    1
    31    10    16   am
    32     2     5    1
    33     2     3    1
    34    43    44    1
    35    27    26    2
    36    26    35   am
    37     5     7    1
    38    44    45    1
    39    44    47    1
    40    16    17    1
    41     3     4    2
    42    45    46    2
    43    35    36    1
    44    17    18    1
    45    17    20    1
    46    18    19    2
    47    37    36    1
    48    37    38    2
    49    36    39    1
    50    21    20    1
    51    21    23    1
    52    20    22    1
    53    39    40    1
    54    42    40   am
    55   116   115   ar
    56   116   114   ar
    57    40    41    2
    58   115   113   ar
    59   114   112   ar
    60   112   110   ar
    61   112   111   ar
    62   113   110   ar
    63   110   108   ar
    64   111   109   ar
    65   131   130    1
    66   131   132    1
    67   108   109   ar
    68   108   107    1
    69   130   129    1
    70   107   104    1
    71   128   127    2
    72    87    86    1
    73   129   126    1
    74   127   126    1
    75   106   105    2
    76   136   135    2
    77   104   105    1
    78   104   103    1
    79   135   134    1
    80    88    86    1
    81   126   125    1
    82    86    85    1
    83    85    82    1
    84    84    83    2
    85   103   101   am
    86   134   133    1
    87   134   137    1
    88   138   137    1
    89   138   140    1
    90   138   139    1
    91   125   119   am
    92    83    82    1
    93    83    89   am
    94    90    93    1
    95    90    89    1
    96    90    91    1
    97    82    81    1
    98    93    94    1
    99   102   101    2
   100   101   100    1
   101   119   120    2
   102   119   118    1
   103    92    91    2
   104   117   118    1
   105    81    76   am
   106    94    95   ar
   107    94    96   ar
   108   100    99    1
   109   118   121    1
   110    95    97   ar
   111    96    98   ar
   112    76    77    2
   113    76    75    1
   114   121   122    1
   115    97    98   ar
   116   122   123    1
   117   122   124    1
   118    75    78    1
   119    75    74    1
   120    78    79    1
   121    70    69    2
   122    74    69   am
   123    74    80    1
   124    69    68    1
   125    65    63    1
   126    79    80    1
   127    71    72    1
   128    71    68    1
   129    72    73    1
   130    73    67    1
   131    68    67    1
   132    67    61   am
   133    63    64    1
   134    63    60    1
   135    64    66    1
   136    61    62    2
   137    61    60    1
   138    60    59    1
