@<TRIPOS>MOLECULE
tmp/3t6eC01.pdb
 107 105 0 0 0
SMALL
GASTEIGER

@<TRIPOS>ATOM
      1  N        -24.7500  -46.7070   21.7820 N.3    73  TYR73      -0.1227
      2  CA       -25.0330  -45.2850   21.5400 C.3    73  TYR73       0.1736
      3  C        -24.9940  -44.9130   20.0720 C.2    73  TYR73       0.2596
      4  O        -25.4010  -43.8250   19.6910 O.2    73  TYR73      -0.2718
      5  CB       -24.1080  -44.3690   22.3520 C.3    73  TYR73       0.0548
      6  CG       -24.4970  -44.2630   23.8060 C.ar   73  TYR73      -0.0200
      7  CD1      -25.5580  -43.4730   24.2150 C.ar   73  TYR73      -0.0009
      8  CD2      -23.8700  -45.0620   24.7640 C.ar   73  TYR73      -0.0009
      9  CE1      -25.9570  -43.4240   25.5730 C.ar   73  TYR73       0.0417
     10  CE2      -24.2430  -45.0170   26.1200 C.ar   73  TYR73       0.0417
     11  CZ       -25.2920  -44.2100   26.5140 C.ar   73  TYR73       0.1957
     12  OH       -25.6350  -44.1840   27.8390 O.3    73  TYR73      -0.2866
     13  N        -24.5160  -45.8050   19.2270 N.am   74  GLY74      -0.1942
     14  CA       -24.4950  -45.5430   17.8370 C.3    74  GLY74       0.2014
     15  C        -23.7130  -44.2740   17.5610 C.2    74  GLY74       0.2639
     16  O        -22.6150  -44.0580   18.0850 O.2    74  GLY74      -0.2714
     17  N        -24.2740  -43.4440   16.7030 N.am   75  LEU75      -0.1963
     18  CA       -23.6730  -42.1640   16.3140 C.3    75  LEU75       0.1728
     19  C        -24.2270  -40.9560   17.0890 C.2    75  LEU75       0.2617
     20  O        -23.8810  -39.8070   16.7910 O.2    75  LEU75      -0.2715
     21  CB       -23.8630  -41.9560   14.8140 C.3    75  LEU75       0.0311
     22  CG       -23.1130  -42.9770   13.9500 C.3    75  LEU75       0.0022
     23  CD1      -23.4770  -42.7440   12.4810 C.3    75  LEU75       0.0001
     24  CD2      -21.6000  -42.9400   14.1700 C.3    75  LEU75       0.0001
     25  N        -25.0290  -41.2130   18.1170 N.am   76  GLY76      -0.1940
     26  CA       -25.5350  -40.1370   19.0060 C.3    76  GLY76       0.2014
     27  C        -24.5760  -39.6690   20.0960 C.2    76  GLY76       0.2638
     28  O        -23.5120  -40.2490   20.3100 O.2    76  GLY76      -0.2714
     29  N        -24.9870  -38.6220   20.7900 N.am   77  ALA77      -0.1977
     30  CA       -24.2650  -38.0280   21.8940 C.3    77  ALA77       0.1597
     31  C        -24.3610  -38.9860   23.0620 C.2    77  ALA77       0.2287
     32  O        -25.3720  -39.6070   23.2580 O.2    77  ALA77      -0.2864
     33  CB       -24.8670  -36.6370   22.2660 C.3    77  ALA77       0.0319
     34  N        -14.9090  -38.1960   25.6330 N.3    86  TRP86      -0.1227
     35  CA       -14.1810  -38.6260   24.4330 C.3    86  TRP86       0.1737
     36  C        -14.6800  -37.9190   23.1660 C.2    86  TRP86       0.2595
     37  O        -13.8880  -37.5070   22.3280 O.2    86  TRP86      -0.2718
     38  CB       -14.2030  -40.1570   24.2870 C.3    86  TRP86       0.0564
     39  CG       -13.5430  -40.6350   23.0380 C.ar   86  TRP86       0.0003
     40  CD1      -12.2900  -41.1430   22.9350 C.ar   86  TRP86       0.0946
     41  CD2      -14.0960  -40.6680   21.7270 C.ar   86  TRP86       0.0152
     42  NE1      -12.0210  -41.4710   21.6510 N.ar   86  TRP86      -0.2442
     43  CE2      -13.1080  -41.1680   20.8780 C.ar   86  TRP86       0.0810
     44  CE3      -15.3490  -40.3350   21.1830 C.ar   86  TRP86       0.0012
     45  CZ2      -13.3050  -41.3240   19.5190 C.ar   86  TRP86       0.0191
     46  CZ3      -15.5440  -40.5110   19.8250 C.ar   86  TRP86       0.0001
     47  CH2      -14.5230  -40.9710   19.0040 C.ar   86  TRP86       0.0015
     48  N        -15.9960  -37.7930   23.0200 N.am   87  GLN87      -0.1979
     49  CA       -16.5620  -37.1290   21.8340 C.3    87  GLN87       0.1601
     50  C        -16.1180  -35.6540   21.7220 C.2    87  GLN87       0.2287
     51  O        -15.6920  -35.2050   20.6610 O.2    87  GLN87      -0.2864
     52  CB       -18.0900  -37.2400   21.8160 C.3    87  GLN87       0.0394
     53  CG       -18.6080  -38.7050   21.7110 C.3    87  GLN87       0.0908
     54  CD       -20.1450  -38.7850   21.7650 C.2    87  GLN87       0.2608
     55  OE1      -20.7580  -38.1990   22.6400 O.2    87  GLN87      -0.2717
     56  NE2      -20.7490  -39.5340   20.8520 N.am   87  GLN87      -0.0878
     57  N        -12.3860  -35.3460   20.9240 N.3    90  THR90      -0.1203
     58  CA       -12.1420  -35.6350   19.5150 C.3    90  THR90       0.1994
     59  C        -12.4050  -34.4250   18.6300 C.2    90  THR90       0.2617
     60  O        -11.6040  -34.1430   17.7370 O.2    90  THR90      -0.2717
     61  CB       -12.9620  -36.8420   19.0300 C.3    90  THR90       0.1784
     62  OG1      -12.6810  -37.9390   19.9110 O.3    90  THR90      -0.2211
     63  CG2      -12.6290  -37.2130   17.5660 C.3    90  THR90       0.0376
     64  N        -13.4900  -33.6910   18.9090 N.am   91  VAL91      -0.1979
     65  CA       -13.8070  -32.4880   18.1610 C.3    91  VAL91       0.1595
     66  C        -12.6880  -31.4520   18.3710 C.2    91  VAL91       0.2287
     67  O        -12.2170  -30.8450   17.4100 O.2    91  VAL91      -0.2864
     68  CB       -15.2090  -31.9310   18.5020 C.3    91  VAL91       0.0276
     69  CG1      -15.4220  -30.5010   17.8520 C.3    91  VAL91       0.0022
     70  CG2      -16.2730  -32.9320   18.0500 C.3    91  VAL91       0.0022
     71  N         -9.4970  -32.4450   16.3140 N.3    94  LEU94      -0.1245
     72  CA        -9.5330  -32.1240   14.8830 C.3    94  LEU94       0.1561
     73  C         -9.5120  -30.6180   14.6320 C.2    94  LEU94       0.2260
     74  O         -8.9370  -30.1650   13.6360 O.2    94  LEU94      -0.2867
     75  CB       -10.7350  -32.7650   14.1930 C.3    94  LEU94       0.0270
     76  CG       -10.6910  -32.9210   12.6650 C.3    94  LEU94       0.0019
     77  CD1       -9.4540  -33.7220   12.1830 C.3    94  LEU94       0.0001
     78  CD2      -12.0280  -33.5450   12.1640 C.3    94  LEU94       0.0001
     79  N        -13.3190  -41.3050   12.7020 N.3   133  VAL133     -0.1245
     80  CA       -14.5430  -40.7410   12.0750 C.3   133  VAL133      0.1561
     81  C        -15.0690  -41.6200   10.9570 C.2   133  VAL133      0.2260
     82  O        -16.1890  -42.1470   11.0600 O.2   133  VAL133     -0.2867
     83  CB       -14.3390  -39.2670   11.5740 C.3   133  VAL133      0.0252
     84  CG1      -15.6980  -38.7170   10.9800 C.3   133  VAL133      0.0019
     85  CG2      -13.8540  -38.3960   12.7100 C.3   133  VAL133      0.0019
     86  N        -18.1540  -44.2050   11.3730 N.3   137  LEU137     -0.1245
     87  CA       -19.3540  -43.8860   10.5730 C.3   137  LEU137      0.1561
     88  C        -19.8040  -45.0710    9.7140 C.2   137  LEU137      0.2260
     89  O        -20.9770  -45.3940    9.7260 O.2   137  LEU137     -0.2867
     90  CB       -19.1380  -42.6670    9.6650 C.3   137  LEU137      0.0270
     91  CG       -19.1800  -41.2600   10.2790 C.3   137  LEU137      0.0019
     92  CD1      -18.7410  -40.2060    9.2120 C.3   137  LEU137      0.0001
     93  CD2      -20.5690  -40.9650   10.8440 C.3   137  LEU137      0.0001
     94  N        -19.7120  -44.5340   17.1600 N.3   142  TRP142     -0.1241
     95  CA       -18.4740  -43.8790   17.6470 C.3   142  TRP142      0.1605
     96  C        -17.6770  -44.8290   18.4630 C.2   142  TRP142      0.2264
     97  O        -16.4580  -44.6710   18.5590 O.2   142  TRP142     -0.2867
     98  CB       -18.7870  -42.6160   18.4730 C.3   142  TRP142      0.0550
     99  CG       -19.4280  -41.5670   17.6560 C.ar  142  TRP142      0.0003
    100  CD1      -20.6890  -41.0370   17.8360 C.ar  142  TRP142      0.0946
    101  CD2      -18.9130  -40.9520   16.4890 C.ar  142  TRP142      0.0152
    102  NE1      -20.9550  -40.1360   16.8720 N.ar  142  TRP142     -0.2442
    103  CE2      -19.8960  -40.0480   16.0240 C.ar  142  TRP142      0.0810
    104  CE3      -17.7110  -41.0520   15.7920 C.ar  142  TRP142      0.0012
    105  CZ2      -19.7420  -39.2710   14.8510 C.ar  142  TRP142      0.0191
    106  CZ3      -17.5270  -40.2560   14.6650 C.ar  142  TRP142      0.0001
    107  CH2      -18.5530  -39.3790   14.1960 C.ar  142  TRP142      0.0015
@<TRIPOS>BOND
     1    92    91    1
     2    90    91    1
     3    90    87    1
     4    88    89    2
     5    88    87    1
     6    91    93    1
     7    87    86    1
     8    81    82    2
     9    81    80    1
    10    84    83    1
    11    83    80    1
    12    83    85    1
    13    80    79    1
    14    78    76    1
    15    77    76    1
    16    23    22    1
    17    76    75    1
    18    74    73    2
    19    22    24    1
    20    22    21    1
    21    75    72    1
    22   107   106   ar
    23   107   105   ar
    24    73    72    1
    25   106   104   ar
    26    21    18    1
    27   105   103   ar
    28    72    71    1
    29   104   101   ar
    30   103   101   ar
    31   103   102   ar
    32    18    17    1
    33    18    19    1
    34   101    99   ar
    35    17    15   am
    36    20    19    2
    37   102   100   ar
    38    19    25   am
    39    94    95    1
    40    67    66    2
    41    15    14    1
    42    15    16    2
    43    63    61    1
    44    95    96    1
    45    95    98    1
    46    99   100   ar
    47    99    98    1
    48    60    59    2
    49    14    13    1
    50    69    68    1
    51    70    68    1
    52    25    26    1
    53    65    66    1
    54    65    68    1
    55    65    64    1
    56    96    97    2
    57    59    64   am
    58    59    58    1
    59    47    45   ar
    60    47    46   ar
    61    26    27    1
    62    61    58    1
    63    61    62    1
    64    13     3   am
    65    58    57    1
    66    45    43   ar
    67     4     3    2
    68    46    44   ar
    69     3     2    1
    70    27    28    2
    71    27    29   am
    72    51    50    2
    73    29    30    1
    74    56    54   am
    75    43    42   ar
    76    43    41   ar
    77    44    41   ar
    78     2     1    1
    79     2     5    1
    80    42    40   ar
    81    53    54    1
    82    53    52    1
    83    50    49    1
    84    41    39   ar
    85    54    55    2
    86    52    49    1
    87    49    48    1
    88    30    33    1
    89    30    31    1
    90    37    36    2
    91     5     6    1
    92    40    39   ar
    93    48    36   am
    94    39    38    1
    95    31    32    2
    96    36    35    1
    97     6     7   ar
    98     6     8   ar
    99     7     9   ar
   100    38    35    1
   101    35    34    1
   102     8    10   ar
   103     9    11   ar
   104    10    11   ar
   105    11    12    1
