@<TRIPOS>MOLECULE
tmp/3t6eC13.pdb
 236 229 0 0 0
SMALL
GASTEIGER

@<TRIPOS>ATOM
      1  N          1.5210  -53.2420    2.8060 N.3   175  SER175     -0.1217
      2  CA         1.9370  -52.0180    2.1310 C.3   175  SER175      0.1889
      3  C          2.3870  -50.9350    3.1150 C.2   175  SER175      0.2288
      4  O          3.4790  -50.3770    2.9600 O.2   175  SER175     -0.2866
      5  CB         0.7830  -51.4720    1.2410 C.3   175  SER175      0.2089
      6  OG         1.1890  -50.2850    0.6390 O.3   175  SER175     -0.2183
      7  N          6.2570  -49.4040    3.5340 N.3   179  PHE179     -0.1241
      8  CA         6.5440  -47.9750    3.4830 C.3   179  PHE179      0.1605
      9  C          7.2120  -47.4240    4.7700 C.2   179  PHE179      0.2264
     10  O          8.1970  -46.6380    4.6880 O.2   179  PHE179     -0.2867
     11  CB         5.3200  -47.1680    3.0720 C.3   179  PHE179      0.0534
     12  CG         5.0480  -47.1970    1.6000 C.ar  179  PHE179     -0.0203
     13  CD1        5.9300  -46.5900    0.7070 C.ar  179  PHE179     -0.0042
     14  CD2        3.9550  -47.8730    1.0820 C.ar  179  PHE179     -0.0042
     15  CE1        5.7080  -46.6390   -0.6640 C.ar  179  PHE179     -0.0003
     16  CE2        3.7440  -47.9540   -0.3080 C.ar  179  PHE179     -0.0003
     17  CZ         4.6150  -47.3250   -1.1810 C.ar  179  PHE179     -0.0000
     18  N         15.5500  -45.1260    4.2540 N.3   186  ALA186     -0.1245
     19  CA        15.8830  -44.0160    3.3390 C.3   186  ALA186      0.1562
     20  C         16.2980  -42.7290    4.0650 C.2   186  ALA186      0.2260
     21  O         17.1770  -41.9840    3.5820 O.2   186  ALA186     -0.2867
     22  CB        14.7310  -43.7480    2.3680 C.3   186  ALA186      0.0290
     23  N         19.8330  -43.3240    5.1560 N.3   189  LEU189     -0.1231
     24  CA        20.6750  -43.2070    3.9900 C.3   189  LEU189      0.1693
     25  C         20.8600  -41.7640    3.5390 C.2   189  LEU189      0.2592
     26  O         21.9820  -41.4040    3.2670 O.2   189  LEU189     -0.2718
     27  CB        20.1200  -43.9700    2.8000 C.3   189  LEU189      0.0284
     28  CG        20.1660  -45.5150    2.8680 C.3   189  LEU189      0.0019
     29  CD1       19.5060  -46.0350    1.5600 C.3   189  LEU189      0.0001
     30  CD2       21.5900  -46.0390    3.0850 C.3   189  LEU189      0.0001
     31  N         19.7810  -40.9720    3.4750 N.am  190  HIS190     -0.1976
     32  CA        19.8820  -39.5930    3.0430 C.3   190  HIS190      0.1656
     33  C         20.6540  -38.7240    4.0740 C.2   190  HIS190      0.2291
     34  O         21.5880  -37.9800    3.7140 O.2   190  HIS190     -0.2864
     35  CB        18.4740  -38.9880    2.7800 C.3   190  HIS190      0.0771
     36  CG        18.5250  -37.5380    2.4650 C.ar  190  HIS190      0.0820
     37  ND1       19.2670  -37.0490    1.4070 N.ar  190  HIS190     -0.2267
     38  CD2       17.9820  -36.4560    3.0740 C.ar  190  HIS190      0.1154
     39  CE1       19.1780  -35.7270    1.3760 C.ar  190  HIS190      0.1986
     40  NE2       18.4370  -35.3360    2.3920 N.ar  190  HIS190     -0.2212
     41  N         24.2820  -39.7540    4.0090 N.3   193  LEU193     -0.1231
     42  CA        24.9720  -39.3500    2.8060 C.3   193  LEU193      0.1693
     43  C         25.3820  -37.8780    2.8970 C.2   193  LEU193      0.2591
     44  O         26.5440  -37.5430    2.6460 O.2   193  LEU193     -0.2718
     45  CB        24.1130  -39.5710    1.5380 C.3   193  LEU193      0.0284
     46  CG        24.7750  -39.1640    0.1990 C.3   193  LEU193      0.0019
     47  CD1       26.1390  -39.9060   -0.0770 C.3   193  LEU193      0.0001
     48  CD2       23.8500  -39.3850   -0.9640 C.3   193  LEU193      0.0001
     49  N         24.4240  -37.0150    3.2460 N.am  194  ILE194     -0.1980
     50  CA        24.6880  -35.5750    3.3200 C.3   194  ILE194      0.1595
     51  C         25.7770  -35.2930    4.3770 C.2   194  ILE194      0.2287
     52  O         26.7070  -34.5320    4.1420 O.2   194  ILE194     -0.2864
     53  CB        23.3870  -34.8000    3.6580 C.3   194  ILE194      0.0276
     54  CG1       22.4080  -34.9110    2.4590 C.3   194  ILE194      0.0022
     55  CG2       23.6980  -33.3310    4.0960 C.3   194  ILE194      0.0022
     56  CD1       22.9010  -34.3310    1.1080 C.3   194  ILE194      0.0001
     57  N         28.3690  -37.2030   -4.1220 N.3   212  GLU212     -0.1231
     58  CA        27.1160  -37.7420   -3.5630 C.3   212  GLU212      0.1699
     59  C         26.5290  -38.7570   -4.5030 C.2   212  GLU212      0.2592
     60  O         26.2360  -39.8530   -4.0890 O.2   212  GLU212     -0.2718
     61  CB        26.0270  -36.6930   -3.4380 C.3   212  GLU212      0.0402
     62  CG        26.0610  -35.7990   -2.3300 C.3   212  GLU212      0.1161
     63  CD        24.7620  -34.9810   -2.2290 C.2   212  GLU212      0.3649
     64  OE1       23.6770  -35.4710   -2.5730 O.co2 212  GLU212     -0.2457
     65  OE2       24.8120  -33.8540   -1.7540 O.co2 212  GLU212     -0.2457
     66  N         26.3730  -38.3630   -5.7880 N.am  213  ASN213     -0.1974
     67  CA        25.8320  -39.2370   -6.8180 C.3   213  ASN213      0.1688
     68  C         26.7150  -40.4150   -7.0830 C.2   213  ASN213      0.2292
     69  O         26.2450  -41.5400   -7.2730 O.2   213  ASN213     -0.2864
     70  CB        25.5260  -38.4530   -8.1140 C.3   213  ASN213      0.1181
     71  CG        24.3270  -37.5300   -7.9480 C.2   213  ASN213      0.2629
     72  OD1       23.3400  -37.9220   -7.3250 O.2   213  ASN213     -0.2716
     73  ND2       24.4120  -36.2960   -8.4760 N.am  213  ASN213     -0.0877
     74  N         26.1700  -43.7150   -4.3890 N.3   216  PHE216     -0.1241
     75  CA        25.0700  -44.6580   -4.5920 C.3   216  PHE216      0.1605
     76  C         25.1230  -45.3330   -5.9580 C.2   216  PHE216      0.2264
     77  O         24.7770  -46.5190   -6.1080 O.2   216  PHE216     -0.2867
     78  CB        23.7120  -44.0230   -4.2960 C.3   216  PHE216      0.0534
     79  CG        23.3890  -44.0600   -2.8470 C.ar  216  PHE216     -0.0203
     80  CD1       23.2120  -45.2650   -2.2170 C.ar  216  PHE216     -0.0042
     81  CD2       23.4100  -42.9250   -2.0910 C.ar  216  PHE216     -0.0042
     82  CE1       22.9990  -45.3110   -0.8750 C.ar  216  PHE216     -0.0003
     83  CE2       23.1630  -42.9750   -0.7320 C.ar  216  PHE216     -0.0003
     84  CZ        22.9750  -44.1550   -0.1370 C.ar  216  PHE216     -0.0000
     85  N         24.8140  -49.1820   -5.3200 N.3   220  VAL220     -0.1245
     86  CA        23.6460  -49.8990   -5.8300 C.3   220  VAL220      0.1561
     87  C         23.3660  -49.7680   -7.3210 C.2   220  VAL220      0.2260
     88  O         22.3780  -50.3480   -7.8060 O.2   220  VAL220     -0.2867
     89  CB        22.3680  -49.5470   -5.0360 C.3   220  VAL220      0.0252
     90  CG1       22.6050  -49.8000   -3.5870 C.3   220  VAL220      0.0019
     91  CG2       21.9560  -48.0570   -5.2700 C.3   220  VAL220      0.0019
     92  N         22.6010  -46.9200   -8.9540 N.3   222  TYR222     -0.1227
     93  CA        21.6960  -45.8250   -9.2890 C.3   222  TYR222      0.1736
     94  C         21.7600  -44.7440   -8.1940 C.2   222  TYR222      0.2596
     95  O         21.8280  -45.0710   -7.0100 O.2   222  TYR222     -0.2718
     96  CB        20.2640  -46.3540   -9.4510 C.3   222  TYR222      0.0548
     97  CG        19.2870  -45.2590   -9.7960 C.ar  222  TYR222     -0.0200
     98  CD1       19.3710  -44.5860  -11.0030 C.ar  222  TYR222     -0.0009
     99  CD2       18.3250  -44.8530   -8.8920 C.ar  222  TYR222     -0.0009
    100  CE1       18.4800  -43.5630  -11.3190 C.ar  222  TYR222      0.0417
    101  CE2       17.4420  -43.8120   -9.1880 C.ar  222  TYR222      0.0417
    102  CZ        17.5180  -43.1760  -10.4060 C.ar  222  TYR222      0.1957
    103  OH        16.6490  -42.1360  -10.6680 O.3   222  TYR222     -0.2866
    104  N         21.7540  -43.4800   -8.6150 N.am  223  SER223     -0.1938
    105  CA        21.5200  -42.3480   -7.7370 C.3   223  SER223      0.2055
    106  C         20.2880  -41.5090   -8.1630 C.2   223  SER223      0.2643
    107  O         20.2090  -41.0140   -9.2910 O.2   223  SER223     -0.2714
    108  CB        22.7580  -41.4720   -7.6830 C.3   223  SER223      0.2130
    109  OG        22.5320  -40.4380   -6.7410 O.3   223  SER223     -0.2179
    110  N         19.3380  -41.3400   -7.2650 N.am  224  ILE224     -0.1963
    111  CA        18.0790  -40.6460   -7.6210 C.3   224  ILE224      0.1727
    112  C         18.2880  -39.1310   -7.7920 C.2   224  ILE224      0.2617
    113  O         17.6330  -38.5040   -8.6110 O.2   224  ILE224     -0.2715
    114  CB        16.9560  -40.9610   -6.6360 C.3   224  ILE224      0.0290
    115  CG1       15.5930  -40.7630   -7.3400 C.3   224  ILE224      0.0022
    116  CG2       17.1700  -40.1500   -5.3230 C.3   224  ILE224      0.0023
    117  CD1       14.3890  -41.0940   -6.4580 C.3   224  ILE224      0.0001
    118  N         19.2820  -38.5800   -7.1010 N.am  225  GLY225     -0.1940
    119  CA        19.5720  -37.1660   -7.1710 C.3   225  GLY225      0.2014
    120  C         19.0700  -36.3680   -5.9680 C.2   225  GLY225      0.2638
    121  O         18.1820  -36.7850   -5.2340 O.2   225  GLY225     -0.2714
    122  N         19.6240  -35.1750   -5.8360 N.am  226  ALA226     -0.1977
    123  CA        19.5340  -34.3380   -4.6770 C.3   226  ALA226      0.1597
    124  C         18.1310  -33.7800   -4.4640 C.2   226  ALA226      0.2287
    125  O         17.6200  -33.8270   -3.3240 O.2   226  ALA226     -0.2864
    126  CB        20.6480  -33.1680   -4.7630 C.3   226  ALA226      0.0319
    127  N         15.3740  -35.0520   -5.9480 N.3   228  SER228     -0.1202
    128  CA        14.4590  -36.1730   -6.0600 C.3   228  SER228      0.2020
    129  C         14.3920  -37.0370   -4.8240 C.2   228  SER228      0.2619
    130  O         13.3580  -37.6590   -4.5630 O.2   228  SER228     -0.2717
    131  CB        14.8420  -37.0480   -7.2750 C.3   228  SER228      0.2103
    132  OG        14.4910  -36.3970   -8.5070 O.3   228  SER228     -0.2182
    133  N         15.4780  -37.1000   -4.0610 N.am  229  ILE229     -0.1965
    134  CA        15.4690  -37.8400   -2.7910 C.3   229  ILE229      0.1727
    135  C         14.4730  -37.1990   -1.8140 C.2   229  ILE229      0.2616
    136  O         13.8500  -37.8810   -1.0570 O.2   229  ILE229     -0.2715
    137  CB        16.8970  -38.0090   -2.1950 C.3   229  ILE229      0.0290
    138  CG1       16.8730  -38.9050   -0.9670 C.3   229  ILE229      0.0022
    139  CG2       17.5680  -36.6380   -1.8110 C.3   229  ILE229      0.0023
    140  CD1       16.2950  -40.2980   -1.1870 C.3   229  ILE229      0.0001
    141  N         14.2980  -35.8880   -1.8750 N.am  230  HIS230     -0.1959
    142  CA        13.3090  -35.1770   -1.0510 C.3   230  HIS230      0.1787
    143  C         11.8660  -35.4740   -1.5190 C.2   230  HIS230      0.2620
    144  O         10.9800  -35.7220   -0.6960 O.2   230  HIS230     -0.2715
    145  CB        13.6400  -33.6960   -1.0120 C.3   230  HIS230      0.0785
    146  CG        14.9770  -33.4350   -0.3800 C.ar  230  HIS230      0.0821
    147  ND1       16.1320  -33.4020   -1.1190 N.ar  230  HIS230     -0.2267
    148  CD2       15.3640  -33.3620    0.9250 C.ar  230  HIS230      0.1154
    149  CE1       17.1760  -33.2380   -0.2990 C.ar  230  HIS230      0.1986
    150  NE2       16.7370  -33.1920    0.9460 N.ar  230  HIS230     -0.2212
    151  N         11.6420  -35.4840   -2.8330 N.am  231  ARG231     -0.1963
    152  CA        10.3430  -35.9290   -3.3720 C.3   231  ARG231      0.1729
    153  C         10.0390  -37.3880   -2.9550 C.2   231  ARG231      0.2616
    154  O          8.9050  -37.7190   -2.5480 O.2   231  ARG231     -0.2715
    155  CB        10.3440  -35.8550   -4.8850 C.3   231  ARG231      0.0348
    156  CG         8.9530  -36.0730   -5.4050 C.3   231  ARG231      0.0492
    157  CD         8.9080  -35.9630   -6.9400 C.3   231  ARG231      0.2205
    158  NE         9.4920  -34.7250   -7.4970 N.pl3 231  ARG231     -0.0865
    159  CZ        10.6420  -34.6540   -8.1580 C.cat 231  ARG231      0.5346
    160  NH1       11.3850  -35.7350   -8.3540 N.pl3 231  ARG231      0.1354
    161  NH2       11.0280  -33.5060   -8.6960 N.pl3 231  ARG231      0.1354
    162  N         11.0610  -38.2430   -3.0800 N.am  232  LEU232     -0.1977
    163  CA        10.9410  -39.6440   -2.6920 C.3   232  LEU232      0.1596
    164  C         10.6190  -39.8330   -1.2070 C.2   232  LEU232      0.2287
    165  O          9.7230  -40.6010   -0.8410 O.2   232  LEU232     -0.2864
    166  CB        12.2240  -40.4090   -3.0660 C.3   232  LEU232      0.0297
    167  CG        12.2070  -41.9160   -2.6950 C.3   232  LEU232      0.0022
    168  CD1       11.0300  -42.6360   -3.4390 C.3   232  LEU232      0.0001
    169  CD2       13.5480  -42.6220   -2.9900 C.3   232  LEU232      0.0001
    170  N          9.1650  -37.7080    0.8080 N.3   234  LEU234     -0.1231
    171  CA         7.7940  -37.2740    1.0530 C.3   234  LEU234      0.1693
    172  C          6.7950  -38.3590    0.5890 C.2   234  LEU234      0.2592
    173  O          5.7670  -38.6220    1.2560 O.2   234  LEU234     -0.2718
    174  CB         7.4830  -35.9750    0.3470 C.3   234  LEU234      0.0284
    175  CG         6.0580  -35.4150    0.5310 C.3   234  LEU234      0.0019
    176  CD1        5.6390  -35.3140    2.0340 C.3   234  LEU234      0.0001
    177  CD2        5.9590  -34.0380   -0.1810 C.3   234  LEU234      0.0001
    178  N          7.0760  -38.9240   -0.5770 N.am  235  PHE235     -0.1962
    179  CA         6.2260  -39.9920   -1.1560 C.3   235  PHE235      0.1771
    180  C          6.1770  -41.2400   -0.2450 C.2   235  PHE235      0.2619
    181  O          5.1250  -41.7860   -0.0030 O.2   235  PHE235     -0.2715
    182  CB         6.8040  -40.3560   -2.5400 C.3   235  PHE235      0.0574
    183  CG         6.1340  -41.5140   -3.2140 C.ar  235  PHE235     -0.0200
    184  CD1        4.9850  -41.3080   -4.0000 C.ar  235  PHE235     -0.0042
    185  CD2        6.6790  -42.7820   -3.1410 C.ar  235  PHE235     -0.0042
    186  CE1        4.3810  -42.4080   -4.6820 C.ar  235  PHE235     -0.0003
    187  CE2        6.0740  -43.8830   -3.8210 C.ar  235  PHE235     -0.0003
    188  CZ         4.9580  -43.6940   -4.5690 C.ar  235  PHE235     -0.0000
    189  N          7.3280  -41.7410    0.1560 N.am  236  LEU236     -0.1977
    190  CA         7.4220  -42.9510    0.9980 C.3   236  LEU236      0.1596
    191  C          6.7320  -42.7390    2.3400 C.2   236  LEU236      0.2287
    192  O          5.9390  -43.5560    2.7540 O.2   236  LEU236     -0.2864
    193  CB         8.8800  -43.3430    1.2680 C.3   236  LEU236      0.0297
    194  CG         9.7280  -43.7750    0.0780 C.3   236  LEU236      0.0022
    195  CD1       11.1950  -43.8890    0.4950 C.3   236  LEU236      0.0001
    196  CD2        9.1800  -45.0420   -0.6350 C.3   236  LEU236      0.0001
    197  N          4.3970  -40.4270    3.1800 N.3   238  SER238     -0.1202
    198  CA         2.9870  -40.2140    2.9950 C.3   238  SER238      0.2020
    199  C          2.2640  -41.5270    2.7530 C.2   238  SER238      0.2618
    200  O          1.1730  -41.7450    3.3150 O.2   238  SER238     -0.2717
    201  CB         2.7190  -39.2580    1.8320 C.3   238  SER238      0.2103
    202  OG         3.2820  -37.9770    2.0770 O.3   238  SER238     -0.2182
    203  N          2.8690  -42.3980    1.9470 N.am  239  ASN239     -0.1974
    204  CA         2.2340  -43.6550    1.6320 C.3   239  ASN239      0.1688
    205  C          2.1630  -44.6590    2.7580 C.2   239  ASN239      0.2292
    206  O          1.4490  -45.6630    2.6130 O.2   239  ASN239     -0.2864
    207  CB         2.8700  -44.2600    0.4050 C.3   239  ASN239      0.1181
    208  CG         2.3370  -43.6210   -0.8730 C.2   239  ASN239      0.2629
    209  OD1        3.0520  -42.9520   -1.5990 O.2   239  ASN239     -0.2716
    210  ND2        1.0690  -43.7650   -1.0890 N.am  239  ASN239     -0.0877
    211  N         -1.3560  -43.3390    3.3530 N.3   242  LEU242     -0.1231
    212  CA        -2.2470  -43.3270    2.1780 C.3   242  LEU242      0.1693
    213  C         -2.6050  -44.7480    1.7300 C.2   242  LEU242      0.2592
    214  O         -3.7280  -44.9770    1.2500 O.2   242  LEU242     -0.2718
    215  CB        -1.7140  -42.5140    1.0180 C.3   242  LEU242      0.0284
    216  CG        -1.5250  -41.0040    1.3210 C.3   242  LEU242      0.0019
    217  CD1       -0.7810  -40.4160    0.1070 C.3   242  LEU242      0.0001
    218  CD2       -2.8430  -40.2310    1.6200 C.3   242  LEU242      0.0001
    219  N         -1.6900  -45.6900    1.9350 N.am  243  THR243     -0.1953
    220  CA        -1.9710  -47.0940    1.6600 C.3   243  THR243      0.1897
    221  C         -2.5670  -47.8020    2.8740 C.2   243  THR243      0.2313
    222  O         -3.5340  -48.5670    2.7220 O.2   243  THR243     -0.2863
    223  CB        -0.7610  -47.9120    1.1090 C.3   243  THR243      0.1794
    224  OG1        0.2800  -48.0130    2.1010 O.3   243  THR243     -0.2208
    225  CG2       -0.2450  -47.2980   -0.2140 C.3   243  THR243      0.0378
    226  N         -6.4710  -47.8100    3.4560 N.3   246  PHE246     -0.1241
    227  CA        -7.2790  -48.8290    2.7670 C.3   246  PHE246      0.1605
    228  C         -7.4120  -50.1150    3.5920 C.2   246  PHE246      0.2264
    229  O         -8.4580  -50.7250    3.6010 O.2   246  PHE246     -0.2867
    230  CB        -6.6900  -49.1730    1.3850 C.3   246  PHE246      0.0534
    231  CG        -6.9150  -48.0940    0.3790 C.ar  246  PHE246     -0.0203
    232  CD1       -6.0530  -47.0120    0.2900 C.ar  246  PHE246     -0.0042
    233  CD2       -8.0310  -48.1310   -0.4570 C.ar  246  PHE246     -0.0042
    234  CE1       -6.2880  -45.9740   -0.6020 C.ar  246  PHE246     -0.0003
    235  CE2       -8.2720  -47.1000   -1.3720 C.ar  246  PHE246     -0.0003
    236  CZ        -7.3890  -46.0210   -1.4500 C.ar  246  PHE246     -0.0000
@<TRIPOS>BOND
     1   100    98   ar
     2   100   102   ar
     3    98    97   ar
     4   103   102    1
     5   102   101   ar
     6    97    96    1
     7    97    99   ar
     8    96    93    1
     9   107   106    2
    10    93    92    1
    11    93    94    1
    12   101    99   ar
    13   161   159    1
    14   104    94   am
    15   104   105    1
    16   113   112    2
    17   132   131    1
    18    73    71   am
    19   160   159    1
    20    94    95    2
    21   106   105    1
    22   106   110   am
    23   159   158    2
    24    70    71    1
    25    70    67    1
    26    71    72    2
    27    88    87    2
    28   112   111    1
    29   112   118   am
    30   105   108    1
    31   108   109    1
    32   111   110    1
    33   111   114    1
    34   158   157    1
    35   115   114    1
    36   115   117    1
    37    87    86    1
    38   131   128    1
    39    69    68    2
    40   119   118    1
    41   119   120    1
    42    68    67    1
    43   157   156    1
    44    67    66    1
    45   114   116    1
    46    77    76    2
    47   128   127    1
    48   128   129    1
    49   120   122   am
    50   120   121    2
    51    76    75    1
    52   122   123    1
    53    86    85    1
    54    86    89    1
    55    66    59   am
    56   156   155    1
    57    91    89    1
    58    89    90    1
    59   155   152    1
    60   129   130    2
    61   129   133   am
    62   126   123    1
    63   186   188   ar
    64   186   184   ar
    65   123   124    1
    66    75    74    1
    67    75    78    1
    68   188   187   ar
    69    59    60    2
    70    59    58    1
    71   124   125    2
    72    78    79    1
    73    57    58    1
    74   133   134    1
    75   184   183   ar
    76   187   185   ar
    77    58    61    1
    78   168   167    1
    79    61    62    1
    80   152   153    1
    81   152   151    1
    82   183   185   ar
    83   183   182    1
    84   162   153   am
    85   162   163    1
    86   166   167    1
    87   166   163    1
    88   169   167    1
    89   153   154    2
    90    79    80   ar
    91    79    81   ar
    92   151   143   am
    93   134   137    1
    94   134   135    1
    95   163   164    1
    96    64    63   ar
    97   182   179    1
    98    62    63    1
    99    63    65   ar
   100    80    82   ar
   101   137   139    1
   102   137   138    1
   103    81    83   ar
   104   141   135   am
   105   141   142    1
   106   135   136    2
   107   209   208    2
   108   143   142    1
   109   143   144    2
   110   236   235   ar
   111   236   234   ar
   112   235   233   ar
   113   164   165    2
   114   140   138    1
   115    17    15   ar
   116    17    16   ar
   117   179   178    1
   118   179   180    1
   119   147   146   ar
   120   147   149   ar
   121   210   208   am
   122   142   145    1
   123   145   146    1
   124    48    46    1
   125    82    84   ar
   126   208   207    1
   127    83    84   ar
   128    15    13   ar
   129   196   194    1
   130   234   232   ar
   131   178   172   am
   132   233   231   ar
   133   146   148   ar
   134    16    14   ar
   135   149   150   ar
   136   180   181    2
   137   180   189   am
   138   225   223    1
   139   177   175    1
   140    47    46    1
   141   194   195    1
   142   194   193    1
   143   217   216    1
   144   189   190    1
   145    46    45    1
   146   232   231   ar
   147   174   175    1
   148   174   171    1
   149   231   230    1
   150   207   204    1
   151   175   176    1
   152   172   171    1
   153   172   173    2
   154     6     5    1
   155    13    12   ar
   156   170   171    1
   157   148   150   ar
   158   190   193    1
   159   190   191    1
   160   215   216    1
   161   215   212    1
   162    14    12   ar
   163    56    54    1
   164   223   220    1
   165   223   224    1
   166     5     2    1
   167   214   213    2
   168   216   218    1
   169    39    37   ar
   170    39    40   ar
   171   230   227    1
   172    37    36   ar
   173    45    42    1
   174    29    28    1
   175    12    11    1
   176   204   203    1
   177   204   205    1
   178   220   219    1
   179   220   221    1
   180   213   219   am
   181   213   212    1
   182   201   202    1
   183   201   198    1
   184   203   199   am
   185     2     1    1
   186     2     3    1
   187   212   211    1
   188   191   192    2
   189    22    19    1
   190    40    38   ar
   191    54    53    1
   192    36    35    1
   193    36    38   ar
   194   206   205    2
   195    44    43    2
   196   222   221    2
   197   199   198    1
   198   199   200    2
   199   227   226    1
   200   227   228    1
   201    35    32    1
   202    27    28    1
   203    27    24    1
   204    42    43    1
   205    42    41    1
   206    28    30    1
   207    43    49   am
   208     4     3    2
   209   198   197    1
   210    32    31    1
   211    32    33    1
   212    11     8    1
   213    49    50    1
   214    26    25    2
   215    50    53    1
   216    50    51    1
   217    19    20    1
   218    19    18    1
   219    31    25   am
   220     8     7    1
   221     8     9    1
   222    25    24    1
   223    21    20    2
   224   228   229    2
   225    53    55    1
   226    34    33    2
   227    24    23    1
   228    52    51    2
   229    10     9    2
