@<TRIPOS>MOLECULE
tmp/3t6iA01.pdb
 152 141 0 0 0
SMALL
GASTEIGER

@<TRIPOS>ATOM
      1  N         -3.8710   -9.0540    3.2600 N.3    10  ILE10      -0.1231
      2  CA        -4.9630   -9.5150    4.1140 C.3    10  ILE10       0.1692
      3  C         -6.2640   -9.7500    3.3490 C.2    10  ILE10       0.2592
      4  O         -7.1820  -10.3850    3.8730 O.2    10  ILE10      -0.2718
      5  CB        -5.2500   -8.5400    5.2810 C.3    10  ILE10       0.0266
      6  CG1       -5.7250   -7.1750    4.7600 C.3    10  ILE10       0.0019
      7  CG2       -4.0310   -8.4200    6.2030 C.3    10  ILE10       0.0020
      8  CD1       -6.3580   -6.2940    5.8260 C.3    10  ILE10       0.0001
      9  N         -6.3460   -9.2280    2.1250 N.am   11  ASP11      -0.1974
     10  CA        -7.5600   -9.3300    1.3170 C.3    11  ASP11       0.1709
     11  C         -7.2340   -9.1090   -0.1570 C.2    11  ASP11       0.2293
     12  O         -6.0730   -8.8930   -0.5130 O.2    11  ASP11      -0.2864
     13  CB        -8.6680   -8.3750    1.8110 C.3    11  ASP11       0.1436
     14  CG        -8.2930   -6.8990    1.7010 C.2    11  ASP11       0.3671
     15  OD1       -8.9140   -6.0860    2.4250 O.co2  11  ASP11      -0.2456
     16  OD2       -7.4020   -6.5390    0.9020 O.co2  11  ASP11      -0.2456
     17  N         -5.2130   -4.4370    1.0090 N.3    15  ASP15      -0.1225
     18  CA        -5.4590   -3.3500    1.9590 C.3    15  ASP15       0.1805
     19  C         -4.3690   -3.2180    3.0260 C.2    15  ASP15       0.2597
     20  O         -4.1310   -2.1310    3.5530 O.2    15  ASP15      -0.2718
     21  CB        -6.8260   -3.4950    2.6160 C.3    15  ASP15       0.1424
     22  CG        -7.9510   -3.0000    1.7310 C.2    15  ASP15       0.3668
     23  OD1       -7.7940   -1.9290    1.1000 O.co2  15  ASP15      -0.2456
     24  OD2       -8.9870   -3.6900    1.6670 O.co2  15  ASP15      -0.2456
     25  N         -3.7150   -4.3280    3.3390 N.am   16  ALA16      -0.1979
     26  CA        -2.5830   -4.3390    4.2590 C.3    16  ALA16       0.1597
     27  C         -1.8940   -5.6760    4.0960 C.2    16  ALA16       0.2287
     28  O         -2.4310   -6.5710    3.4410 O.2    16  ALA16      -0.2864
     29  CB        -3.0350   -4.1450    5.7130 C.3    16  ALA16       0.0319
     30  N          1.3110   -6.4310   11.3170 N.3    33  ASP33      -0.1239
     31  CA         1.4180   -5.4700   10.2330 C.3    33  ASP33       0.1674
     32  C          2.7440   -4.7290   10.4070 C.2    33  ASP33       0.2266
     33  O          2.8800   -3.9050   11.3190 O.2    33  ASP33      -0.2867
     34  CB         0.2310   -4.5030   10.3440 C.3    33  ASP33       0.1410
     35  CG         0.1040   -3.5590    9.1660 C.2    33  ASP33       0.3668
     36  OD1        1.0460   -3.4490    8.3540 O.co2  33  ASP33      -0.2456
     37  OD2       -0.9640   -2.9100    9.0720 O.co2  33  ASP33      -0.2456
     38  N          5.2370   -1.9860    9.9220 N.3    35  ASP35      -0.1239
     39  CA         4.8800   -0.5950    9.6690 C.3    35  ASP35       0.1674
     40  C          6.1140    0.3010    9.7310 C.2    35  ASP35       0.2266
     41  O          6.5510    0.6830   10.8170 O.2    35  ASP35      -0.2867
     42  CB         3.8470   -0.1500   10.7160 C.3    35  ASP35       0.1410
     43  CG         3.3740    1.2760   10.5160 C.2    35  ASP35       0.3668
     44  OD1        3.7100    1.8870    9.4780 O.co2  35  ASP35      -0.2456
     45  OD2        2.6490    1.7760   11.4020 O.co2  35  ASP35      -0.2456
     46  N         -3.5000    7.5750   15.9880 N.3    79  TYR79      -0.1241
     47  CA        -3.1050    7.7130   14.6010 C.3    79  TYR79       0.1605
     48  C         -4.0010    8.7140   13.8870 C.2    79  TYR79       0.2264
     49  O         -5.0550    9.1030   14.4050 O.2    79  TYR79      -0.2867
     50  CB        -3.1410    6.3510   13.9070 C.3    79  TYR79       0.0534
     51  CG        -2.3040    5.2780   14.5900 C.ar   79  TYR79      -0.0201
     52  CD1       -2.9040    4.2550   15.3180 C.ar   79  TYR79      -0.0009
     53  CD2       -0.9140    5.2850   14.5010 C.ar   79  TYR79      -0.0009
     54  CE1       -2.1450    3.2700   15.9300 C.ar   79  TYR79       0.0417
     55  CE2       -0.1470    4.3030   15.1100 C.ar   79  TYR79       0.0417
     56  CZ        -0.7680    3.2980   15.8270 C.ar   79  TYR79       0.1957
     57  OH        -0.0110    2.3190   16.4350 O.3    79  TYR79      -0.2866
     58  N         -6.0600    8.5870   11.5580 N.3    81  ASP81      -0.1239
     59  CA        -7.4160    8.2070   11.1710 C.3    81  ASP81       0.1674
     60  C         -8.3480    8.1550   12.3770 C.2    81  ASP81       0.2266
     61  O         -9.5130    7.7660   12.2630 O.2    81  ASP81      -0.2867
     62  CB        -7.4260    6.8800   10.4020 C.3    81  ASP81       0.1410
     63  CG        -6.9740    5.7040   11.2460 C.2    81  ASP81       0.3668
     64  OD1       -6.4100    5.9290   12.3380 O.co2  81  ASP81      -0.2456
     65  OD2       -7.1730    4.5490   10.8030 O.co2  81  ASP81      -0.2456
     66  N         -7.8210    6.3360   15.0170 N.3    83  SER83      -0.1217
     67  CA        -7.6710    5.0660   15.7250 C.3    83  SER83       0.1889
     68  C         -6.6100    5.1660   16.8190 C.2    83  SER83       0.2288
     69  O         -5.8080    6.1020   16.8450 O.2    83  SER83      -0.2866
     70  CB        -7.3620    3.9090   14.7670 C.3    83  SER83       0.2089
     71  OG        -6.0730    4.0220   14.1900 O.3    83  SER83      -0.2183
     72  N         -9.2700   -1.2590   14.7970 N.3   116  PHE116     -0.1241
     73  CA        -8.4200   -2.4240   15.0350 C.3   116  PHE116      0.1605
     74  C         -9.2600   -3.6600   15.3510 C.2   116  PHE116      0.2264
     75  O         -9.0050   -4.7440   14.8300 O.2   116  PHE116     -0.2867
     76  CB        -7.3900   -2.1450   16.1370 C.3   116  PHE116      0.0534
     77  CG        -6.3380   -1.1560   15.7310 C.ar  116  PHE116     -0.0203
     78  CD1       -5.3980   -1.4940   14.7750 C.ar  116  PHE116     -0.0042
     79  CD2       -6.2950    0.1120   16.2880 C.ar  116  PHE116     -0.0042
     80  CE1       -4.4310   -0.5890   14.3800 C.ar  116  PHE116     -0.0003
     81  CE2       -5.3240    1.0210   15.9020 C.ar  116  PHE116     -0.0003
     82  CZ        -4.3930    0.6710   14.9470 C.ar  116  PHE116     -0.0000
     83  N        -10.6550   -5.3060   12.2500 N.3   119  ASP119     -0.1239
     84  CA        -9.7020   -6.0000   11.3800 C.3   119  ASP119      0.1674
     85  C         -9.2580   -7.3170   12.0090 C.2   119  ASP119      0.2266
     86  O         -8.2300   -7.3530   12.6900 O.2   119  ASP119     -0.2867
     87  CB        -8.4480   -5.1480   11.1540 C.3   119  ASP119      0.1410
     88  CG        -8.6650   -4.0130   10.1760 C.2   119  ASP119      0.3668
     89  OD1       -9.6840   -4.0190    9.4570 O.co2 119  ASP119     -0.2456
     90  OD2       -7.7930   -3.1170   10.1200 O.co2 119  ASP119     -0.2456
     91  N         -5.4240   -8.8100   11.5470 N.3   122  ILE122     -0.1245
     92  CA        -4.2150   -8.1470   12.0220 C.3   122  ILE122      0.1561
     93  C         -4.1300   -8.2390   13.5480 C.2   122  ILE122      0.2260
     94  O         -4.9960   -7.7100   14.2610 O.2   122  ILE122     -0.2867
     95  CB        -4.1460   -6.6850   11.5250 C.3   122  ILE122      0.0252
     96  CG1       -3.9610   -6.6590   10.0040 C.3   122  ILE122      0.0019
     97  CG2       -3.0160   -5.9170   12.2040 C.3   122  ILE122      0.0019
     98  CD1       -3.9740   -5.2680    9.3950 C.3   122  ILE122      0.0001
     99  N          0.9430   -4.6070   15.4320 N.3   125  LEU125     -0.1245
    100  CA         1.8530   -3.8710   14.5620 C.3   125  LEU125      0.1561
    101  C          3.2860   -4.1490   14.9780 C.2   125  LEU125      0.2260
    102  O          3.5650   -4.3330   16.1690 O.2   125  LEU125     -0.2867
    103  CB         1.6160   -2.3630   14.6840 C.3   125  LEU125      0.0270
    104  CG         0.5160   -1.7470   13.8190 C.3   125  LEU125      0.0019
    105  CD1       -0.8210   -2.4340   14.0510 C.3   125  LEU125      0.0001
    106  CD2        0.4380   -0.2400   14.0610 C.3   125  LEU125      0.0001
    107  N          3.0610    0.7140    6.3220 N.3   221  GLY221     -0.1210
    108  CA         1.8120    0.5960    7.0560 C.3   221  GLY221      0.1956
    109  C          0.6570    1.4000    6.4900 C.2   221  GLY221      0.2613
    110  O         -0.4600    1.2910    6.9930 O.2   221  GLY221     -0.2717
    111  N          0.9190    2.2180    5.4710 N.am  222  THR222     -0.1938
    112  CA        -0.1230    2.9970    4.8100 C.3   222  THR222      0.2028
    113  C         -0.4260    2.3390    3.4710 C.2   222  THR222      0.2643
    114  O          0.4900    2.0200    2.7180 O.2   222  THR222     -0.2714
    115  CB         0.3190    4.4570    4.5950 C.3   222  THR222      0.1808
    116  OG1        0.3730    5.1080    5.8660 O.3   222  THR222     -0.2208
    117  CG2       -0.6560    5.2110    3.6940 C.3   222  THR222      0.0379
    118  N         -1.7040    2.1210    3.1740 N.am  223  THR223     -0.1936
    119  CA        -2.0850    1.3730    1.9750 C.3   223  THR223      0.2028
    120  C         -1.8250    2.1440    0.6910 C.2   223  THR223      0.2642
    121  O         -1.3130    1.5920   -0.2900 O.2   223  THR223     -0.2714
    122  CB        -3.5740    1.0080    2.0210 C.3   223  THR223      0.1808
    123  OG1       -3.8600    0.4170    3.2870 O.3   223  THR223     -0.2208
    124  CG2       -3.9320    0.0270    0.9120 C.3   223  THR223      0.0379
    125  N         -2.1930    3.4230    0.6940 N.am  224  LEU224     -0.1977
    126  CA        -2.2310    4.2060   -0.5390 C.3   224  LEU224      0.1596
    127  C         -1.0370    5.1520   -0.7190 C.2   224  LEU224      0.2287
    128  O         -0.1470    5.2540    0.1470 O.2   224  LEU224     -0.2864
    129  CB        -3.5580    4.9780   -0.6470 C.3   224  LEU224      0.0297
    130  CG        -4.8240    4.1230   -0.5000 C.3   224  LEU224      0.0022
    131  CD1       -6.0610    4.9730   -0.7440 C.3   224  LEU224      0.0001
    132  CD2       -4.8110    2.9240   -1.4460 C.3   224  LEU224      0.0001
    133  N         -0.0420    8.9840   -1.1340 N.3   226  TYR226     -0.1241
    134  CA        -0.5600   10.3210   -0.8440 C.3   226  TYR226      0.1605
    135  C          0.4530   11.3570   -1.3150 C.2   226  TYR226      0.2264
    136  O          1.5920   11.3850   -0.8260 O.2   226  TYR226     -0.2867
    137  CB        -0.8610   10.4810    0.6560 C.3   226  TYR226      0.0534
    138  CG        -1.9770    9.5690    1.1110 C.ar  226  TYR226     -0.0201
    139  CD1       -3.3030    9.9930    1.0750 C.ar  226  TYR226     -0.0009
    140  CD2       -1.7170    8.2610    1.5180 C.ar  226  TYR226     -0.0009
    141  CE1       -4.3340    9.1510    1.4520 C.ar  226  TYR226      0.0417
    142  CE2       -2.7420    7.4150    1.9070 C.ar  226  TYR226      0.0417
    143  CZ        -4.0450    7.8610    1.8710 C.ar  226  TYR226      0.1957
    144  OH        -5.0590    7.0060    2.2400 O.3   226  TYR226     -0.2866
    145  N          3.0910   10.6380    1.5660 N.3   304  ILE304     -0.1245
    146  CA         3.2850    9.2660    2.0410 C.3   304  ILE304      0.1561
    147  C          3.3960    8.2820    0.8940 C.2   304  ILE304      0.2260
    148  O          2.4310    8.0480    0.1560 O.2   304  ILE304     -0.2867
    149  CB         2.1630    8.8100    3.0000 C.3   304  ILE304      0.0252
    150  CG1        1.9960    9.7980    4.1580 C.3   304  ILE304      0.0019
    151  CG2        2.4560    7.4000    3.5280 C.3   304  ILE304      0.0019
    152  CD1        0.8150    9.4680    5.0770 C.3   304  ILE304      0.0001
@<TRIPOS>BOND
     1   132   130    1
     2   135   134    1
     3   135   136    2
     4   133   134    1
     5   134   137    1
     6   131   130    1
     7   127   126    1
     8   127   128    2
     9   129   126    1
    10   129   130    1
    11   126   125    1
    12    12    11    2
    13   121   120    2
    14    11    10    1
    15   148   147    2
    16   137   138    1
    17   120   125   am
    18   120   119    1
    19   147   146    1
    20    16    14   ar
    21   124   122    1
    22    17    18    1
    23   139   138   ar
    24   139   141   ar
    25    23    22   ar
    26   138   140   ar
    27    10    13    1
    28    10     9    1
    29   141   143   ar
    30   140   142   ar
    31   145   146    1
    32    24    22   ar
    33    14    13    1
    34    14    15   ar
    35    22    21    1
    36   143   142   ar
    37   143   144    1
    38    18    21    1
    39    18    19    1
    40   119   122    1
    41   119   118    1
    42   122   123    1
    43   146   149    1
    44     9     3   am
    45   114   113    2
    46   149   151    1
    47   149   150    1
    48    19    25   am
    49    19    20    2
    50   118   113   am
    51     1     2    1
    52    25    26    1
    53     3     4    2
    54     3     2    1
    55    28    27    2
    56   113   112    1
    57   117   115    1
    58    27    26    1
    59     2     5    1
    60   150   152    1
    61    26    29    1
    62   115   112    1
    63   115   116    1
    64     6     5    1
    65     6     8    1
    66   112   111    1
    67     5     7    1
    68   111   109   am
    69   107   108    1
    70   109   110    2
    71   109   108    1
    72    36    35   ar
    73    37    35   ar
    74    35    34    1
    75    98    96    1
    76    89    88   ar
    77    44    43   ar
    78    39    40    1
    79    39    38    1
    80    39    42    1
    81    40    41    2
    82    96    95    1
    83    90    88   ar
    84    88    87    1
    85    31    34    1
    86    31    32    1
    87    31    30    1
    88    62    59    1
    89    62    63    1
    90    32    33    2
    91    43    42    1
    92    43    45   ar
    93    65    63   ar
    94    87    84    1
    95    59    58    1
    96    59    60    1
    97    63    64   ar
    98    84    85    1
    99    84    83    1
   100    95    92    1
   101    95    97    1
   102    91    92    1
   103    85    86    2
   104    92    93    1
   105    61    60    2
   106    93    94    2
   107   104   105    1
   108   104   106    1
   109   104   103    1
   110    48    49    2
   111    48    47    1
   112    50    51    1
   113    50    47    1
   114    71    70    1
   115    80    78   ar
   116    80    82   ar
   117    53    51   ar
   118    53    55   ar
   119   100   103    1
   120   100   101    1
   121   100    99    1
   122    51    52   ar
   123    47    46    1
   124    70    67    1
   125    78    77   ar
   126    72    73    1
   127    75    74    2
   128    82    81   ar
   129   101   102    2
   130    66    67    1
   131    73    74    1
   132    73    76    1
   133    55    56   ar
   134    52    54   ar
   135    67    68    1
   136    77    76    1
   137    77    79   ar
   138    56    54   ar
   139    56    57    1
   140    81    79   ar
   141    68    69    2
