@<TRIPOS>MOLECULE
tmp/3t6iA00.pdb
 157 147 0 0 0
SMALL
GASTEIGER

@<TRIPOS>ATOM
      1  N          5.2370   -1.9860    9.9220 N.3    35  ASP35      -0.1239
      2  CA         4.8800   -0.5950    9.6690 C.3    35  ASP35       0.1674
      3  C          6.1140    0.3010    9.7310 C.2    35  ASP35       0.2266
      4  O          6.5510    0.6830   10.8170 O.2    35  ASP35      -0.2867
      5  CB         3.8470   -0.1500   10.7160 C.3    35  ASP35       0.1410
      6  CG         3.3740    1.2760   10.5160 C.2    35  ASP35       0.3668
      7  OD1        3.7100    1.8870    9.4780 O.co2  35  ASP35      -0.2456
      8  OD2        2.6490    1.7760   11.4020 O.co2  35  ASP35      -0.2456
      9  N          6.2800    3.2660    9.1540 N.3    37  GLY37      -0.1210
     10  CA         5.8660    4.5890    9.5860 C.3    37  GLY37       0.1956
     11  C          5.5720    4.7440   11.0720 C.2    37  GLY37       0.2613
     12  O          5.0920    5.7980   11.4970 O.2    37  GLY37      -0.2717
     13  N          5.8540    3.7170   11.8670 N.am   38  SER38      -0.1938
     14  CA         5.7160    3.8460   13.3220 C.3    38  SER38       0.2055
     15  C          6.7380    2.9700   14.0380 C.2    38  SER38       0.2644
     16  O          7.4870    2.2480   13.3830 O.2    38  SER38      -0.2714
     17  CB         4.2850    3.5550   13.7860 C.3    38  SER38       0.2130
     18  OG         3.9540    2.1940   13.6190 O.3    38  SER38      -0.2179
     19  N          6.7670    3.0210   15.3710 N.am   39  SER39      -0.1935
     20  CA         7.9350    2.5270   16.1140 C.3    39  SER39       0.2055
     21  C          7.6140    1.7230   17.3690 C.2    39  SER39       0.2643
     22  O          8.4640    1.5810   18.2540 O.2    39  SER39      -0.2714
     23  CB         8.8540    3.6930   16.4630 C.3    39  SER39       0.2130
     24  OG         9.1640    4.3850   15.2740 O.3    39  SER39      -0.2179
     25  N          6.4020    1.1780   17.4330 N.am   40  ASP40      -0.1971
     26  CA         5.9880    0.3260   18.5340 C.3    40  ASP40       0.1709
     27  C          5.6910   -1.0770   18.0070 C.2    40  ASP40       0.2293
     28  O          5.1470   -1.2430   16.9110 O.2    40  ASP40      -0.2864
     29  CB         4.7460    0.9060   19.2340 C.3    40  ASP40       0.1436
     30  CG         5.0520    2.1560   20.0640 C.2    40  ASP40       0.3671
     31  OD1        5.7000    3.0880   19.5520 O.co2  40  ASP40      -0.2456
     32  OD2        4.6460    2.2100   21.2460 O.co2  40  ASP40      -0.2456
     33  N         -0.9000    5.0890   21.8360 N.3    77  ILE77      -0.1231
     34  CA        -0.6780    5.6640   20.5250 C.3    77  ILE77       0.1692
     35  C         -1.9970    6.0270   19.8640 C.2    77  ILE77       0.2593
     36  O         -3.0060    5.3390   20.0280 O.2    77  ILE77      -0.2718
     37  CB         0.1410    4.7160   19.6300 C.3    77  ILE77       0.0266
     38  CG1        0.6390    5.4520   18.3870 C.3    77  ILE77       0.0019
     39  CG2       -0.6700    3.4800   19.2680 C.3    77  ILE77       0.0020
     40  CD1        1.8060    4.7770   17.7270 C.3    77  ILE77       0.0001
     41  N         -1.9870    7.1400   19.1450 N.am   78  SER78      -0.1938
     42  CA        -3.1400    7.5500   18.3650 C.3    78  SER78       0.2055
     43  C         -2.6420    7.8290   16.9640 C.2    78  SER78       0.2643
     44  O         -1.4940    8.2420   16.7670 O.2    78  SER78      -0.2714
     45  CB        -3.8140    8.7800   18.9670 C.3    78  SER78       0.2130
     46  OG        -2.9480    9.8940   18.9300 O.3    78  SER78      -0.2179
     47  N         -3.5000    7.5750   15.9880 N.am   79  TYR79      -0.1959
     48  CA        -3.1050    7.7130   14.6010 C.3    79  TYR79       0.1771
     49  C         -4.0010    8.7140   13.8870 C.2    79  TYR79       0.2620
     50  O         -5.0550    9.1030   14.4050 O.2    79  TYR79      -0.2715
     51  CB        -3.1410    6.3510   13.9070 C.3    79  TYR79       0.0574
     52  CG        -2.3040    5.2780   14.5900 C.ar   79  TYR79      -0.0198
     53  CD1       -2.9040    4.2550   15.3180 C.ar   79  TYR79      -0.0009
     54  CD2       -0.9140    5.2850   14.5010 C.ar   79  TYR79      -0.0009
     55  CE1       -2.1450    3.2700   15.9300 C.ar   79  TYR79       0.0417
     56  CE2       -0.1470    4.3030   15.1100 C.ar   79  TYR79       0.0417
     57  CZ        -0.7680    3.2980   15.8270 C.ar   79  TYR79       0.1957
     58  OH        -0.0110    2.3190   16.4350 O.3    79  TYR79      -0.2866
     59  N         -3.5780    9.1280   12.6970 N.am   80  GLY80      -0.1940
     60  CA        -4.2560   10.1730   11.9520 C.3    80  GLY80       0.2014
     61  C         -5.6790    9.8610   11.5350 C.2    80  GLY80       0.2638
     62  O         -6.4290   10.7720   11.1930 O.2    80  GLY80      -0.2714
     63  N         -6.0600    8.5870   11.5580 N.am   81  ASP81      -0.1971
     64  CA        -7.4160    8.2070   11.1710 C.3    81  ASP81       0.1709
     65  C         -8.3480    8.1550   12.3770 C.2    81  ASP81       0.2293
     66  O         -9.5130    7.7660   12.2630 O.2    81  ASP81      -0.2864
     67  CB        -7.4260    6.8800   10.4020 C.3    81  ASP81       0.1436
     68  CG        -6.9740    5.7040   11.2460 C.2    81  ASP81       0.3671
     69  OD1       -6.4100    5.9290   12.3380 O.co2  81  ASP81      -0.2456
     70  OD2       -7.1730    4.5490   10.8030 O.co2  81  ASP81      -0.2456
     71  N         10.5650    7.5840   17.9030 N.3   133  LEU133     -0.1245
     72  CA         9.1090    7.7180   17.9250 C.3   133  LEU133      0.1561
     73  C          8.3990    6.7070   18.8300 C.2   133  LEU133      0.2260
     74  O          7.1790    6.7370   18.9450 O.2   133  LEU133     -0.2867
     75  CB         8.5410    7.5980   16.5130 C.3   133  LEU133      0.0270
     76  CG         9.0250    8.6490   15.5220 C.3   133  LEU133      0.0019
     77  CD1        8.3310    8.4540   14.1880 C.3   133  LEU133      0.0001
     78  CD2        8.7960   10.0560   16.0700 C.3   133  LEU133      0.0001
     79  N          6.5590    4.9670   21.8090 N.3   135  THR135     -0.1218
     80  CA         5.7160    5.6550   22.7870 C.3   135  THR135      0.1862
     81  C          5.8260    5.1580   24.2280 C.2   135  THR135      0.2287
     82  O          5.1590    5.6960   25.0970 O.2   135  THR135     -0.2866
     83  CB         4.2130    5.6330   22.4060 C.3   135  THR135      0.1770
     84  OG1        3.6540    4.3380   22.6850 O.3   135  THR135     -0.2211
     85  CG2        3.9950    6.0070   20.9430 C.3   135  THR135      0.0375
     86  N         11.1470    9.3680   10.8420 N.3   194  PHE194     -0.1241
     87  CA        10.6590    8.5480    9.7310 C.3   194  PHE194      0.1605
     88  C         11.7290    8.2690    8.6960 C.2   194  PHE194      0.2264
     89  O         12.7780    8.9110    8.6780 O.2   194  PHE194     -0.2867
     90  CB         9.5040    9.2510    9.0150 C.3   194  PHE194      0.0534
     91  CG         8.3260    9.5290    9.8940 C.ar  194  PHE194     -0.0203
     92  CD1        8.1570   10.7710   10.4740 C.ar  194  PHE194     -0.0042
     93  CD2        7.3880    8.5490   10.1470 C.ar  194  PHE194     -0.0042
     94  CE1        7.0700   11.0270   11.2920 C.ar  194  PHE194     -0.0003
     95  CE2        6.2920    8.8000   10.9570 C.ar  194  PHE194     -0.0003
     96  CZ         6.1330   10.0420   11.5290 C.ar  194  PHE194     -0.0000
     97  N          7.4830   10.1490    3.1420 N.3   217  ILE217     -0.1245
     98  CA         7.9790    9.0310    3.9310 C.3   217  ILE217      0.1561
     99  C          7.6900    7.7000    3.2420 C.2   217  ILE217      0.2260
    100  O          6.6730    7.5490    2.5620 O.2   217  ILE217     -0.2867
    101  CB         7.4210    9.0510    5.3740 C.3   217  ILE217      0.0252
    102  CG1        5.9090    8.8200    5.3940 C.3   217  ILE217      0.0019
    103  CG2        7.7800   10.3660    6.0620 C.3   217  ILE217      0.0019
    104  CD1        5.3630    8.6020    6.8000 C.3   217  ILE217      0.0001
    105  N          6.3810    4.3030    3.8430 N.3   219  ASP219     -0.1239
    106  CA         5.5150    3.8180    4.9210 C.3   219  ASP219      0.1674
    107  C          4.7570    2.5600    4.5220 C.2   219  ASP219      0.2266
    108  O          3.7060    2.6320    3.8720 O.2   219  ASP219     -0.2867
    109  CB         4.5300    4.9190    5.3310 C.3   219  ASP219      0.1410
    110  CG         3.6820    4.5350    6.5190 C.2   219  ASP219      0.3668
    111  OD1        2.8670    5.3770    6.9660 O.co2 219  ASP219     -0.2456
    112  OD2        3.8290    3.3910    6.9970 O.co2 219  ASP219     -0.2456
    113  N          3.0610    0.7140    6.3220 N.3   221  GLY221     -0.1210
    114  CA         1.8120    0.5960    7.0560 C.3   221  GLY221      0.1956
    115  C          0.6570    1.4000    6.4900 C.2   221  GLY221      0.2612
    116  O         -0.4600    1.2910    6.9930 O.2   221  GLY221     -0.2717
    117  N          0.9190    2.2180    5.4710 N.am  222  THR222     -0.1952
    118  CA        -0.1230    2.9970    4.8100 C.3   222  THR222      0.1897
    119  C         -0.4260    2.3390    3.4710 C.2   222  THR222      0.2313
    120  O          0.4900    2.0200    2.7180 O.2   222  THR222     -0.2863
    121  CB         0.3190    4.4570    4.5950 C.3   222  THR222      0.1794
    122  OG1        0.3730    5.1080    5.8660 O.3   222  THR222     -0.2208
    123  CG2       -0.6560    5.2110    3.6940 C.3   222  THR222      0.0378
    124  N         -0.0420    8.9840   -1.1340 N.3   226  TYR226     -0.1241
    125  CA        -0.5600   10.3210   -0.8440 C.3   226  TYR226      0.1605
    126  C          0.4530   11.3570   -1.3150 C.2   226  TYR226      0.2264
    127  O          1.5920   11.3850   -0.8260 O.2   226  TYR226     -0.2867
    128  CB        -0.8610   10.4810    0.6560 C.3   226  TYR226      0.0534
    129  CG        -1.9770    9.5690    1.1110 C.ar  226  TYR226     -0.0201
    130  CD1       -3.3030    9.9930    1.0750 C.ar  226  TYR226     -0.0009
    131  CD2       -1.7170    8.2610    1.5180 C.ar  226  TYR226     -0.0009
    132  CE1       -4.3340    9.1510    1.4520 C.ar  226  TYR226      0.0417
    133  CE2       -2.7420    7.4150    1.9070 C.ar  226  TYR226      0.0417
    134  CZ        -4.0450    7.8610    1.8710 C.ar  226  TYR226      0.1957
    135  OH        -5.0590    7.0060    2.2400 O.3   226  TYR226     -0.2866
    136  N         -4.7430   12.8330   -2.4290 N.3   296  SER296     -0.1217
    137  CA        -4.0650   14.0480   -2.0140 C.3   296  SER296      0.1889
    138  C         -3.5720   13.9690   -0.5790 C.2   296  SER296      0.2288
    139  O         -4.2750   13.4810    0.3050 O.2   296  SER296     -0.2866
    140  CB        -5.0130   15.2310   -2.1350 C.3   296  SER296      0.2089
    141  OG        -4.3610   16.4160   -1.7090 O.3   296  SER296     -0.2183
    142  N         -2.5080   16.5700    5.4450 N.3   300  ILE300     -0.1245
    143  CA        -1.7490   15.8120    6.4230 C.3   300  ILE300      0.1561
    144  C         -0.3690   16.3680    6.7360 C.2   300  ILE300      0.2260
    145  O          0.1600   16.0570    7.8030 O.2   300  ILE300     -0.2867
    146  CB        -1.6690   14.3120    6.0890 C.3   300  ILE300      0.0252
    147  CG1       -0.8490   14.0790    4.8230 C.3   300  ILE300      0.0019
    148  CG2       -3.0650   13.7280    5.9630 C.3   300  ILE300      0.0019
    149  CD1       -0.6670   12.6150    4.4960 C.3   300  ILE300      0.0001
    150  N          3.0910   10.6380    1.5660 N.3   304  ILE304     -0.1245
    151  CA         3.2850    9.2660    2.0410 C.3   304  ILE304      0.1561
    152  C          3.3960    8.2820    0.8940 C.2   304  ILE304      0.2260
    153  O          2.4310    8.0480    0.1560 O.2   304  ILE304     -0.2867
    154  CB         2.1630    8.8100    3.0000 C.3   304  ILE304      0.0252
    155  CG1        1.9960    9.7980    4.1580 C.3   304  ILE304      0.0019
    156  CG2        2.4560    7.4000    3.5280 C.3   304  ILE304      0.0019
    157  CD1        0.8150    9.4680    5.0770 C.3   304  ILE304      0.0001
@<TRIPOS>BOND
     1   136   137    1
     2   140   137    1
     3   140   141    1
     4   137   138    1
     5   126   125    1
     6   126   127    2
     7   124   125    1
     8   125   128    1
     9   138   139    2
    10   153   152    2
    11   128   129    1
    12   152   151    1
    13   130   129   ar
    14   130   132   ar
    15   129   131   ar
    16   132   134   ar
    17   131   133   ar
    18   150   151    1
    19   134   133   ar
    20   134   135    1
    21   151   154    1
    22   100    99    2
    23   120   119    2
    24   154   156    1
    25   154   155    1
    26    97    98    1
    27    99    98    1
    28   119   118    1
    29   123   121    1
    30   105   106    1
    31   108   107    2
    32    98   101    1
    33   155   157    1
    34   149   147    1
    35   107   106    1
    36   121   118    1
    37   121   122    1
    38   118   117    1
    39   147   146    1
    40   106   109    1
    41   109   110    1
    42   101   102    1
    43   101   103    1
    44   102   104    1
    45   142   143    1
    46   117   115   am
    47   148   146    1
    48   146   143    1
    49   113   114    1
    50   143   144    1
    51   115   116    2
    52   115   114    1
    53   110   111   ar
    54   110   112   ar
    55   144   145    2
    56    89    88    2
    57    88    87    1
    58    90    87    1
    59    90    91    1
    60     9    10    1
    61     7     6   ar
    62    10    11    1
    63     2     3    1
    64     2     1    1
    65     2     5    1
    66     3     4    2
    67    87    86    1
    68    91    93   ar
    69    91    92   ar
    70    93    95   ar
    71    67    64    1
    72    67    68    1
    73    92    94   ar
    74     6     5    1
    75     6     8   ar
    76    70    68   ar
    77    95    96   ar
    78    11    12    2
    79    11    13   am
    80    64    63    1
    81    64    65    1
    82    62    61    2
    83    68    69   ar
    84    94    96   ar
    85    61    63   am
    86    61    60    1
    87    13    14    1
    88    60    59    1
    89    66    65    2
    90    59    49   am
    91    14    17    1
    92    14    15    1
    93    16    15    2
    94    18    17    1
    95    49    50    2
    96    49    48    1
    97    51    52    1
    98    51    48    1
    99    15    19   am
   100    77    76    1
   101    54    52   ar
   102    54    56   ar
   103    52    53   ar
   104    48    47    1
   105    56    57   ar
   106    24    23    1
   107    53    55   ar
   108    19    20    1
   109    76    78    1
   110    76    75    1
   111    57    55   ar
   112    57    58    1
   113    47    43   am
   114    20    23    1
   115    20    21    1
   116    75    72    1
   117    44    43    2
   118    28    27    2
   119    43    42    1
   120    21    25   am
   121    21    22    2
   122    25    26    1
   123    40    38    1
   124    71    72    1
   125    72    73    1
   126    27    26    1
   127    42    45    1
   128    42    41    1
   129    38    37    1
   130    26    29    1
   131    73    74    2
   132    46    45    1
   133    41    35   am
   134    29    30    1
   135    39    37    1
   136    31    30   ar
   137    37    34    1
   138    35    36    2
   139    35    34    1
   140    30    32   ar
   141    34    33    1
   142    85    83    1
   143    79    80    1
   144    83    84    1
   145    83    80    1
   146    80    81    1
   147    81    82    2
