@<TRIPOS>MOLECULE
tmp/3t6qA03.pdb
 97 90 0 0 0
SMALL
GASTEIGER

@<TRIPOS>ATOM
      1  N         30.1210    6.7110    3.6470 N.3   377  ASN377     -0.1240
      2  CA        31.2640    6.4810    2.7930 C.3   377  ASN377      0.1653
      3  C         31.4540    7.6740    1.8480 C.2   377  ASN377      0.2266
      4  O         30.6070    7.9110    1.0140 O.2   377  ASN377     -0.2867
      5  CB        31.0470    5.1830    1.9950 C.3   377  ASN377      0.1155
      6  CG        32.3260    4.7060    1.3530 C.2   377  ASN377      0.2627
      7  OD1       33.2300    5.5020    1.0740 O.2   377  ASN377     -0.2716
      8  ND2       32.4130    3.4150    1.1060 N.am  377  ASN377     -0.0877
      9  N         34.6190    8.1550    0.4220 N.3   379  SER379     -0.1202
     10  CA        35.9510    7.8060   -0.0700 C.3   379  SER379      0.2020
     11  C         36.0550    8.2210   -1.5260 C.2   379  SER379      0.2618
     12  O         35.0350    8.3830   -2.2090 O.2   379  SER379     -0.2717
     13  CB        36.2800    6.2970    0.0960 C.3   379  SER379      0.2103
     14  OG        35.4340    5.4970   -0.7710 O.3   379  SER379     -0.2182
     15  N         37.2990    8.3600   -1.9920 N.am  380  TYR380     -0.1975
     16  CA        37.5930    8.7230   -3.3960 C.3   380  TYR380      0.1639
     17  C         36.8370    9.9690   -3.8900 C.2   380  TYR380      0.2290
     18  O         36.2130    9.9460   -4.9860 O.2   380  TYR380     -0.2864
     19  CB        37.2780    7.5440   -4.3500 C.3   380  TYR380      0.0560
     20  CG        38.1650    6.3420   -4.1420 C.ar  380  TYR380     -0.0198
     21  CD1       39.4600    6.3030   -4.7000 C.ar  380  TYR380     -0.0009
     22  CD2       37.7360    5.2690   -3.3490 C.ar  380  TYR380     -0.0009
     23  CE1       40.2820    5.1950   -4.5160 C.ar  380  TYR380      0.0417
     24  CE2       38.5480    4.1500   -3.1490 C.ar  380  TYR380      0.0417
     25  CZ        39.8140    4.1300   -3.7560 C.ar  380  TYR380      0.1957
     26  OH        40.6060    3.0440   -3.5700 O.3   380  TYR380     -0.2866
     27  N         30.7600    3.8520   11.4510 N.3   399  LEU399     -0.1245
     28  CA        31.8330    3.6850   10.4840 C.3   399  LEU399      0.1561
     29  C         31.8600    4.9320    9.6040 C.2   399  LEU399      0.2260
     30  O         30.8090    5.3850    9.1750 O.2   399  LEU399     -0.2867
     31  CB        31.6010    2.4310    9.6230 C.3   399  LEU399      0.0270
     32  CG        32.7480    2.1790    8.5970 C.3   399  LEU399      0.0019
     33  CD1       32.9460    0.6960    8.3880 C.3   399  LEU399      0.0001
     34  CD2       32.4780    2.8730    7.2420 C.3   399  LEU399      0.0001
     35  N         34.2150    6.3380    6.2280 N.3   401  ASP401     -0.1239
     36  CA        35.2840    5.9920    5.3050 C.3   401  ASP401      0.1674
     37  C         35.5470    7.2410    4.4790 C.2   401  ASP401      0.2266
     38  O         34.6750    7.7090    3.8110 O.2   401  ASP401     -0.2867
     39  CB        34.8550    4.7930    4.4400 C.3   401  ASP401      0.1410
     40  CG        35.9910    4.2160    3.6150 C.2   401  ASP401      0.3668
     41  OD1       37.0720    4.8880    3.5070 O.co2 401  ASP401     -0.2456
     42  OD2       35.8200    3.0940    3.0570 O.co2 401  ASP401     -0.2456
     43  N         38.7050    7.3540    2.8410 N.3   403  ALA403     -0.1231
     44  CA        39.9640    6.9360    2.1560 C.3   403  ALA403      0.1694
     45  C         40.0810    7.6450    0.7980 C.2   403  ALA403      0.2592
     46  O         39.0940    7.7200    0.0530 O.2   403  ALA403     -0.2718
     47  CB        40.0170    5.4290    1.9720 C.3   403  ALA403      0.0304
     48  N         41.3000    8.1210    0.4890 N.am  404  PHE404     -0.1976
     49  CA        41.6600    8.7380   -0.8000 C.3   404  PHE404      0.1639
     50  C         40.9120   10.0460   -1.0350 C.2   404  PHE404      0.2290
     51  O         40.8390   10.5390   -2.1510 O.2   404  PHE404     -0.2864
     52  CB        41.4640    7.7450   -1.9730 C.3   404  PHE404      0.0560
     53  CG        42.3400    6.5330   -1.8300 C.ar  404  PHE404     -0.0200
     54  CD1       43.6990    6.6010   -2.1990 C.ar  404  PHE404     -0.0042
     55  CD2       41.8540    5.3740   -1.2470 C.ar  404  PHE404     -0.0042
     56  CE1       44.5350    5.5050   -2.0100 C.ar  404  PHE404     -0.0003
     57  CE2       42.6950    4.2750   -1.0720 C.ar  404  PHE404     -0.0003
     58  CZ        44.0310    4.3570   -1.4460 C.ar  404  PHE404     -0.0000
     59  N         35.0830    2.7060   13.5560 N.3   424  VAL424     -0.1245
     60  CA        35.9790    2.4630   12.4160 C.3   424  VAL424      0.1561
     61  C         36.1150    3.7650   11.6080 C.2   424  VAL424      0.2260
     62  O         35.1010    4.3500   11.1900 O.2   424  VAL424     -0.2867
     63  CB        35.4640    1.3520   11.4630 C.3   424  VAL424      0.0252
     64  CG1       36.3960    1.2260   10.2400 C.3   424  VAL424      0.0019
     65  CG2       35.3660   -0.0040   12.1650 C.3   424  VAL424      0.0019
     66  N         38.4600    5.3820    8.3710 N.3   426  ASN426     -0.1240
     67  CA        39.4770    5.1130    7.3630 C.3   426  ASN426      0.1653
     68  C         39.8570    6.4610    6.7440 C.2   426  ASN426      0.2266
     69  O         39.0340    7.0940    6.0670 O.2   426  ASN426     -0.2867
     70  CB        38.9910    4.0940    6.2950 C.3   426  ASN426      0.1155
     71  CG        40.1040    3.6630    5.3400 C.2   426  ASN426      0.2627
     72  OD1       41.1240    4.3140    5.2460 O.2   426  ASN426     -0.2716
     73  ND2       39.9020    2.5810    4.6190 N.am  426  ASN426     -0.0877
     74  N         42.9340    6.7070    4.9770 N.3   428  SER428     -0.1217
     75  CA        44.0250    6.3220    4.0890 C.3   428  SER428      0.1889
     76  C         44.2060    7.4210    3.0340 C.2   428  SER428      0.2288
     77  O         43.2460    7.8060    2.3760 O.2   428  SER428     -0.2866
     78  CB        43.6730    5.0050    3.4240 C.3   428  SER428      0.2089
     79  OG        44.7230    4.5970    2.5780 O.3   428  SER428     -0.2183
     80  N         39.4040    1.2280   15.3920 N.3   448  HIS448     -0.1241
     81  CA        40.0900    0.8650   14.1410 C.3   448  HIS448      0.1621
     82  C         40.3500    2.1510   13.3800 C.2   448  HIS448      0.2264
     83  O         39.4120    2.8860   13.0170 O.2   448  HIS448     -0.2867
     84  CB        39.2120   -0.1240   13.3590 C.3   448  HIS448      0.0745
     85  CG        39.8070   -0.6750   12.0960 C.ar  448  HIS448      0.0817
     86  ND1       39.2840   -1.7570   11.4660 N.ar  448  HIS448     -0.2268
     87  CD2       40.8500   -0.2170   11.2830 C.ar  448  HIS448      0.1154
     88  CE1       39.9700   -2.0020   10.3370 C.ar  448  HIS448      0.1986
     89  NE2       40.9220   -1.0560   10.2100 N.ar  448  HIS448     -0.2212
     90  N         42.6130    3.7340   10.1370 N.3   450  ASN450     -0.1240
     91  CA        43.5480    3.4580    9.0560 C.3   450  ASN450      0.1653
     92  C         44.1090    4.7940    8.6290 C.2   450  ASN450      0.2266
     93  O         43.3660    5.6690    8.1480 O.2   450  ASN450     -0.2867
     94  CB        42.8500    2.7250    7.8760 C.3   450  ASN450      0.1155
     95  CG        43.8010    2.3310    6.7410 C.2   450  ASN450      0.2627
     96  OD1       43.6170    1.2850    6.1430 O.2   450  ASN450     -0.2716
     97  ND2       44.7600    3.1690    6.4040 N.am  450  ASN450     -0.0877
@<TRIPOS>BOND
     1    18    17    2
     2    21    23   ar
     3    21    20   ar
     4    23    25   ar
     5    19    20    1
     6    19    16    1
     7    20    22   ar
     8    17    16    1
     9    25    26    1
    10    25    24   ar
    11    16    15    1
    12    22    24   ar
    13    12    11    2
    14    54    56   ar
    15    54    53   ar
    16    51    50    2
    17    56    58   ar
    18    15    11   am
    19    52    53    1
    20    52    49    1
    21    53    55   ar
    22    11    10    1
    23    58    57   ar
    24    55    57   ar
    25    50    49    1
    26    49    48    1
    27    14    13    1
    28    10    13    1
    29    10     9    1
    30    46    45    2
    31    48    45   am
    32    45    44    1
    33     4     3    2
    34     7     6    2
    35     8     6   am
    36     6     5    1
    37     3     2    1
    38    47    44    1
    39     5     2    1
    40    44    43    1
    41    77    76    2
    42    79    78    1
    43     2     1    1
    44    76    75    1
    45    42    40   ar
    46    78    75    1
    47    41    40   ar
    48    40    39    1
    49    38    37    2
    50    75    74    1
    51    39    36    1
    52    37    36    1
    53    73    71   am
    54    72    71    2
    55    36    35    1
    56    71    70    1
    57    69    68    2
    58    96    95    2
    59    70    67    1
    60    97    95   am
    61    95    94    1
    62    68    67    1
    63    34    32    1
    64    67    66    1
    65    94    91    1
    66    93    92    2
    67    33    32    1
    68    32    31    1
    69    92    91    1
    70    91    90    1
    71    30    29    2
    72    29    28    1
    73    31    28    1
    74    89    88   ar
    75    89    87   ar
    76    64    63    1
    77    88    86   ar
    78    28    27    1
    79    62    61    2
    80    87    85   ar
    81    63    65    1
    82    63    60    1
    83    86    85   ar
    84    61    60    1
    85    85    84    1
    86    60    59    1
    87    83    82    2
    88    84    81    1
    89    82    81    1
    90    81    80    1
