@<TRIPOS>MOLECULE
tmp/3t6qC04.pdb
 90 83 0 0 0
SMALL
GASTEIGER

@<TRIPOS>ATOM
      1  N          4.9470  -44.6080  -47.4280 N.3   305  ALA305     -0.1245
      2  CA         5.1990  -44.9520  -46.0100 C.3   305  ALA305      0.1562
      3  C          3.9680  -44.6900  -45.1280 C.2   305  ALA305      0.2260
      4  O          4.0800  -44.4040  -43.9310 O.2   305  ALA305     -0.2867
      5  CB         6.4610  -44.2670  -45.4540 C.3   305  ALA305      0.0290
      6  N          4.8160  -45.8130  -52.1550 N.3   328  LYS328     -0.1231
      7  CA         5.7330  -46.9020  -51.9740 C.3   328  LYS328      0.1693
      8  C          5.9660  -47.0930  -50.4800 C.2   328  LYS328      0.2592
      9  O          5.7850  -46.1490  -49.7230 O.2   328  LYS328     -0.2718
     10  CB         7.0360  -46.5390  -52.7070 C.3   328  LYS328      0.0285
     11  CG         8.0770  -45.8570  -51.8490 C.3   328  LYS328      0.0035
     12  CD         9.4610  -46.1180  -52.4230 C.3   328  LYS328      0.0206
     13  CE        10.5130  -45.4140  -51.5880 C.3   328  LYS328      0.1093
     14  NZ        10.4980  -43.9630  -51.8920 N.3   328  LYS328     -0.1314
     15  N          6.3470  -48.2980  -50.0520 N.am  329  GLY329     -0.1957
     16  CA         6.6910  -48.5380  -48.6550 C.3   329  GLY329      0.1869
     17  C          5.4830  -48.4700  -47.7140 C.2   329  GLY329      0.2309
     18  O          5.6350  -48.2070  -46.5130 O.2   329  GLY329     -0.2863
     19  N          4.5680  -45.1510  -58.8630 N.3   351  ASP351     -0.1239
     20  CA         5.4670  -45.9500  -58.0610 C.3   351  ASP351      0.1674
     21  C          4.6960  -46.6820  -56.9900 C.2   351  ASP351      0.2266
     22  O          4.1420  -46.0580  -56.0770 O.2   351  ASP351     -0.2867
     23  CB         6.5690  -45.0570  -57.4430 C.3   351  ASP351      0.1410
     24  CG         7.5630  -45.8440  -56.5680 C.2   351  ASP351      0.3668
     25  OD1        7.5190  -47.0910  -56.5300 O.co2 351  ASP351     -0.2456
     26  OD2        8.3990  -45.1930  -55.8960 O.co2 351  ASP351     -0.2456
     27  N          6.2680  -49.5170  -55.4310 N.3   353  SER353     -0.1202
     28  CA         7.2940  -50.4420  -54.9460 C.3   353  SER353      0.2020
     29  C          7.1530  -50.6910  -53.4470 C.2   353  SER353      0.2618
     30  O          6.5300  -49.8880  -52.7440 O.2   353  SER353     -0.2717
     31  CB         8.6930  -49.8900  -55.2460 C.3   353  SER353      0.2103
     32  OG         8.9020  -48.5910  -54.6790 O.3   353  SER353     -0.2182
     33  N          7.7220  -51.7960  -52.9630 N.am  354  HIS354     -0.1975
     34  CA         7.8160  -52.0880  -51.5270 C.3   354  HIS354      0.1656
     35  C          6.4810  -52.0130  -50.8280 C.2   354  HIS354      0.2291
     36  O          6.3900  -51.5670  -49.6770 O.2   354  HIS354     -0.2864
     37  CB         8.7500  -51.0920  -50.8450 C.3   354  HIS354      0.0771
     38  CG        10.2370  -51.3510  -51.0520 C.ar  354  HIS354      0.0820
     39  ND1       10.8700  -52.3780  -50.4730 N.ar  354  HIS354     -0.2267
     40  CD2       11.2210  -50.5850  -51.6840 C.ar  354  HIS354      0.1154
     41  CE1       12.1980  -52.3190  -50.7610 C.ar  354  HIS354      0.1986
     42  NE2       12.4100  -51.2280  -51.5150 N.ar  354  HIS354     -0.2212
     43  N          5.7070  -44.5590  -66.9030 N.3   375  SER375     -0.1217
     44  CA         6.6670  -45.2520  -66.0370 C.3   375  SER375      0.1889
     45  C          5.9220  -45.9520  -64.9050 C.2   375  SER375      0.2288
     46  O          5.1120  -45.3380  -64.1990 O.2   375  SER375     -0.2866
     47  CB         7.7260  -44.2510  -65.5170 C.3   375  SER375      0.2089
     48  OG         8.5080  -44.8450  -64.4890 O.3   375  SER375     -0.2183
     49  N          6.4820  -48.6160  -61.5780 N.3   377  ASN377     -0.1240
     50  CA         7.3880  -49.2860  -60.6710 C.3   377  ASN377      0.1653
     51  C          6.6260  -50.2210  -59.7650 C.2   377  ASN377      0.2266
     52  O          5.8200  -49.7710  -58.9620 O.2   377  ASN377     -0.2867
     53  CB         8.1800  -48.2550  -59.8360 C.3   377  ASN377      0.1155
     54  CG         9.4250  -48.8490  -59.1790 C.2   377  ASN377      0.2627
     55  OD1        9.4990  -50.0520  -58.9130 O.2   377  ASN377     -0.2716
     56  ND2       10.4150  -47.9830  -58.8920 N.am  377  ASN377     -0.0877
     57  N          8.5160  -52.8390  -58.1900 N.3   379  SER379     -0.1202
     58  CA         9.6250  -53.5730  -57.5840 C.3   379  SER379      0.2020
     59  C          9.3920  -53.8830  -56.1210 C.2   379  SER379      0.2618
     60  O          8.5690  -53.2570  -55.4780 O.2   379  SER379     -0.2717
     61  CB        10.9520  -52.8210  -57.7610 C.3   379  SER379      0.2103
     62  OG        10.8720  -51.5130  -57.2070 O.3   379  SER379     -0.2182
     63  N         10.1440  -54.8540  -55.6130 N.am  380  TYR380     -0.1975
     64  CA        10.1230  -55.2600  -54.2220 C.3   380  TYR380      0.1639
     65  C          8.7270  -55.5720  -53.6750 C.2   380  TYR380      0.2290
     66  O          8.3680  -55.1350  -52.5830 O.2   380  TYR380     -0.2864
     67  CB        10.7730  -54.1890  -53.3590 C.3   380  TYR380      0.0560
     68  CG        12.2580  -54.0050  -53.5720 C.ar  380  TYR380     -0.0198
     69  CD1       13.1770  -54.8220  -52.9310 C.ar  380  TYR380     -0.0009
     70  CD2       12.7370  -52.9690  -54.3620 C.ar  380  TYR380     -0.0009
     71  CE1       14.5410  -54.6420  -53.1050 C.ar  380  TYR380      0.0417
     72  CE2       14.0960  -52.7630  -54.5150 C.ar  380  TYR380      0.0417
     73  CZ        14.9860  -53.5980  -53.8800 C.ar  380  TYR380      0.1957
     74  OH        16.3400  -53.3910  -54.0360 O.3   380  TYR380     -0.2866
     75  N          8.9990  -47.1890  -69.2080 N.3   399  LEU399     -0.1245
     76  CA         9.8090  -47.8700  -68.2220 C.3   399  LEU399      0.1561
     77  C          8.9480  -48.7320  -67.3520 C.2   399  LEU399      0.2260
     78  O          7.9090  -48.2790  -66.8910 O.2   399  LEU399     -0.2867
     79  CB        10.5780  -46.8680  -67.3450 C.3   399  LEU399      0.0270
     80  CG        11.4140  -47.5500  -66.2510 C.3   399  LEU399      0.0019
     81  CD1       12.7540  -46.8500  -66.1010 C.3   399  LEU399      0.0001
     82  CD2       10.6740  -47.6540  -64.9190 C.3   399  LEU399      0.0001
     83  N          9.5490  -51.3090  -64.0270 N.3   401  ASP401     -0.1239
     84  CA        10.4590  -51.8490  -63.0420 C.3   401  ASP401      0.1674
     85  C          9.7850  -52.9430  -62.1870 C.2   401  ASP401      0.2266
     86  O          8.8670  -52.6670  -61.4080 O.2   401  ASP401     -0.2867
     87  CB        11.0530  -50.6960  -62.1960 C.3   401  ASP401      0.1410
     88  CG        12.2550  -51.1190  -61.3520 C.2   401  ASP401      0.3668
     89  OD1       12.5190  -52.3190  -61.2050 O.co2 401  ASP401     -0.2456
     90  OD2       12.9190  -50.2390  -60.7680 O.co2 401  ASP401     -0.2456
@<TRIPOS>BOND
     1    75    76    1
     2    76    77    1
     3    76    79    1
     4    77    78    2
     5    79    80    1
     6    43    44    1
     7    80    81    1
     8    80    82    1
     9    44    47    1
    10    44    45    1
    11    47    48    1
    12    45    46    2
    13    83    84    1
    14    84    87    1
    15    84    85    1
    16    87    88    1
    17    85    86    2
    18    49    50    1
    19    88    89   ar
    20    88    90   ar
    21    50    53    1
    22    50    51    1
    23    53    54    1
    24    51    52    2
    25    54    55    2
    26    54    56   am
    27    19    20    1
    28    57    58    1
    29    20    23    1
    30    20    21    1
    31    61    58    1
    32    61    62    1
    33    58    59    1
    34    23    24    1
    35    21    22    2
    36    24    25   ar
    37    24    26   ar
    38    59    63   am
    39    59    60    2
    40    63    64    1
    41    27    28    1
    42    31    28    1
    43    31    32    1
    44    28    29    1
    45    72    70   ar
    46    72    73   ar
    47    70    68   ar
    48    64    65    1
    49    64    67    1
    50    74    73    1
    51    73    71   ar
    52    65    66    2
    53    68    67    1
    54    68    69   ar
    55    29    33   am
    56    29    30    2
    57    71    69   ar
    58    33    34    1
    59    10     7    1
    60    10    11    1
    61    12    11    1
    62    12    13    1
    63     6     7    1
    64     7     8    1
    65    14    13    1
    66    40    42   ar
    67    40    38   ar
    68    34    37    1
    69    34    35    1
    70    42    41   ar
    71    38    37    1
    72    38    39   ar
    73    35    36    2
    74    41    39   ar
    75     8    15   am
    76     8     9    2
    77    15    16    1
    78    16    17    1
    79    17    18    2
    80     1     2    1
    81     2     5    1
    82     2     3    1
    83     3     4    2
