@<TRIPOS>MOLECULE
tmp/3t6qD00.pdb
 148 145 0 0 0
SMALL
GASTEIGER

@<TRIPOS>ATOM
      1  N         22.6490  -39.7220  -46.4610 N.3    55  LYS55      -0.1245
      2  CA        22.2420  -41.0940  -46.7430 C.3    55  LYS55       0.1561
      3  C         22.8960  -42.0400  -45.7430 C.2    55  LYS55       0.2260
      4  O         24.1240  -42.2000  -45.6970 O.2    55  LYS55      -0.2867
      5  CB        22.5920  -41.4840  -48.1950 C.3    55  LYS55       0.0271
      6  CG        21.9780  -40.4830  -49.1760 C.3    55  LYS55       0.0035
      7  CD        22.4470  -40.6250  -50.6110 C.3    55  LYS55       0.0206
      8  CE        22.0480  -39.3720  -51.3730 C.3    55  LYS55       0.1093
      9  NZ        22.5010  -39.4300  -52.7850 N.3    55  LYS55      -0.1314
     10  N         22.4540  -45.8760  -43.7130 N.3    57  PHE57      -0.1241
     11  CA        21.8150  -47.2010  -43.6510 C.3    57  PHE57       0.1605
     12  C         22.3690  -48.0220  -42.5120 C.2    57  PHE57       0.2264
     13  O         23.5350  -47.8850  -42.1250 O.2    57  PHE57      -0.2867
     14  CB        21.9960  -47.9480  -45.0030 C.3    57  PHE57       0.0534
     15  CG        21.6420  -47.0940  -46.1760 C.ar   57  PHE57      -0.0203
     16  CD1       20.3270  -46.9730  -46.5710 C.ar   57  PHE57      -0.0042
     17  CD2       22.6120  -46.3300  -46.8120 C.ar   57  PHE57      -0.0042
     18  CE1       19.9790  -46.1430  -47.6080 C.ar   57  PHE57      -0.0003
     19  CE2       22.2710  -45.4840  -47.8310 C.ar   57  PHE57      -0.0003
     20  CZ        20.9580  -45.4070  -48.2460 C.ar   57  PHE57      -0.0000
     21  N         22.8770  -52.0580  -41.2640 N.3    59  ASP59      -0.1239
     22  CA        22.8180  -53.5050  -41.4140 C.3    59  ASP59       0.1674
     23  C         22.8570  -54.1410  -40.0440 C.2    59  ASP59       0.2266
     24  O         23.6380  -53.7290  -39.1780 O.2    59  ASP59      -0.2867
     25  CB        23.9980  -54.0270  -42.2030 C.3    59  ASP59       0.1410
     26  CG        23.7690  -53.9700  -43.6940 C.2    59  ASP59       0.3668
     27  OD1       22.7180  -53.4480  -44.1410 O.co2  59  ASP59      -0.2456
     28  OD2       24.6650  -54.4340  -44.4150 O.co2  59  ASP59      -0.2456
     29  N         19.3710  -58.2230  -41.8220 N.3    72  TYR72      -0.1227
     30  CA        18.4350  -57.1290  -42.0770 C.3    72  TYR72       0.1736
     31  C         19.1630  -55.8310  -42.4560 C.2    72  TYR72       0.2596
     32  O         20.2480  -55.5820  -41.9350 O.2    72  TYR72      -0.2718
     33  CB        17.5540  -56.8780  -40.8550 C.3    72  TYR72       0.0548
     34  CG        16.3330  -56.0640  -41.1980 C.ar   72  TYR72      -0.0200
     35  CD1       15.5380  -56.3990  -42.3070 C.ar   72  TYR72      -0.0009
     36  CD2       15.9770  -54.9470  -40.4410 C.ar   72  TYR72      -0.0009
     37  CE1       14.4190  -55.6500  -42.6440 C.ar   72  TYR72       0.0417
     38  CE2       14.8530  -54.1940  -40.7640 C.ar   72  TYR72       0.0417
     39  CZ        14.0840  -54.5490  -41.8670 C.ar   72  TYR72       0.1957
     40  OH        12.9780  -53.8020  -42.2040 O.3    72  TYR72      -0.2866
     41  N         18.5710  -55.0470  -43.3710 N.am   73  SER73      -0.1938
     42  CA        19.0290  -53.6960  -43.7230 C.3    73  SER73       0.2055
     43  C         17.8950  -52.7240  -43.5250 C.2    73  SER73       0.2643
     44  O         16.7340  -53.0560  -43.7460 O.2    73  SER73      -0.2714
     45  CB        19.5020  -53.6130  -45.1760 C.3    73  SER73       0.2130
     46  OG        20.6250  -54.4550  -45.3290 O.3    73  SER73      -0.2179
     47  N         18.2240  -51.5110  -43.1080 N.am   74  TYR74      -0.1960
     48  CA        17.1900  -50.5050  -42.8450 C.3    74  TYR74       0.1756
     49  C         17.6990  -49.0680  -43.0270 C.2    74  TYR74       0.2461
     50  O         18.7320  -48.7280  -42.4720 O.2    74  TYR74      -0.2730
     51  CB        16.6680  -50.7050  -41.4090 C.3    74  TYR74       0.0574
     52  CG        15.5040  -49.8260  -41.0850 C.ar   74  TYR74      -0.0198
     53  CD1       14.2840  -49.9960  -41.7380 C.ar   74  TYR74      -0.0009
     54  CD2       15.6230  -48.7960  -40.1430 C.ar   74  TYR74      -0.0009
     55  CE1       13.2060  -49.1700  -41.4620 C.ar   74  TYR74       0.0417
     56  CE2       14.5450  -47.9690  -39.8610 C.ar   74  TYR74       0.0417
     57  CZ        13.3510  -48.1680  -40.5310 C.ar   74  TYR74       0.1957
     58  OH        12.2870  -47.3670  -40.2780 O.3    74  TYR74      -0.2866
     59  N         16.9630  -48.2100  -43.7650 N.am   75  PRO75      -0.2727
     60  CA        17.5070  -46.8530  -43.9540 C.3    75  PRO75       0.1402
     61  C         17.1190  -45.9390  -42.7940 C.2    75  PRO75       0.2269
     62  O         15.9910  -46.0240  -42.2880 O.2    75  PRO75      -0.2865
     63  CB        16.8440  -46.3730  -45.2420 C.3    75  PRO75       0.0296
     64  CG        15.8630  -47.4350  -45.6590 C.3    75  PRO75       0.0237
     65  CD        15.6970  -48.3840  -44.4990 C.3    75  PRO75       0.0939
     66  N         17.4000  -40.9460  -45.8350 N.3    78  GLU78      -0.1245
     67  CA        17.4400  -40.9580  -47.3000 C.3    78  GLU78       0.1567
     68  C         16.9830  -39.6080  -47.8510 C.2    78  GLU78       0.2260
     69  O         16.3150  -38.8740  -47.1460 O.2    78  GLU78      -0.2867
     70  CB        16.5270  -42.0350  -47.8660 C.3    78  GLU78       0.0388
     71  CG        16.8420  -43.4600  -47.4640 C.3    78  GLU78       0.1160
     72  CD        15.7080  -44.4090  -47.8360 C.2    78  GLU78       0.3649
     73  OE1       14.6300  -44.3110  -47.1980 O.co2  78  GLU78      -0.2457
     74  OE2       15.8910  -45.2430  -48.7690 O.co2  78  GLU78      -0.2457
     75  N         14.6600  -38.9340  -49.9200 N.3    80  ASP80      -0.1225
     76  CA        13.2160  -38.8160  -50.0110 C.3    80  ASP80       0.1805
     77  C         12.5380  -38.9720  -48.6320 C.2    80  ASP80       0.2597
     78  O         11.3160  -38.8920  -48.5210 O.2    80  ASP80      -0.2718
     79  CB        12.6480  -39.8240  -51.0180 C.3    80  ASP80       0.1424
     80  CG        12.7680  -41.2840  -50.5420 C.2    80  ASP80       0.3668
     81  OD1       12.4510  -42.1870  -51.3510 O.co2  80  ASP80      -0.2456
     82  OD2       13.1950  -41.5560  -49.3900 O.co2  80  ASP80      -0.2456
     83  N         13.3420  -39.2640  -47.6110 N.am   81  GLN81      -0.1979
     84  CA        12.8240  -39.4620  -46.2560 C.3    81  GLN81       0.1601
     85  C         13.9010  -39.4090  -45.1710 C.2    81  GLN81       0.2287
     86  O         14.4560  -40.4390  -44.7610 O.2    81  GLN81      -0.2864
     87  CB        11.9760  -40.7400  -46.1450 C.3    81  GLN81       0.0394
     88  CG        11.0970  -40.6960  -44.8960 C.3    81  GLN81       0.0908
     89  CD        10.3830  -41.9860  -44.5720 C.2    81  GLN81       0.2608
     90  OE1       10.0970  -42.2490  -43.4090 O.2    81  GLN81      -0.2717
     91  NE2       10.0560  -42.7810  -45.5880 N.am   81  GLN81      -0.0878
     92  N         14.5260  -39.6080  -41.6230 N.3    83  LYS83      -0.1245
     93  CA        13.6630  -40.0500  -40.4960 C.3    83  LYS83       0.1561
     94  C         13.9240  -39.3030  -39.2030 C.2    83  LYS83       0.2260
     95  O         13.0250  -39.1990  -38.3360 O.2    83  LYS83      -0.2867
     96  CB        13.7950  -41.5550  -40.2550 C.3    83  LYS83       0.0271
     97  CG        13.2510  -42.4120  -41.4180 C.3    83  LYS83       0.0035
     98  CD        13.1220  -43.8810  -41.0470 C.3    83  LYS83       0.0206
     99  CE        12.5710  -44.7080  -42.2080 C.3    83  LYS83       0.1093
    100  NZ        13.6610  -45.2790  -43.0490 N.3    83  LYS83      -0.1314
    101  N         26.3110  -47.2450  -42.4030 N.3   120  TYR120     -0.1227
    102  CA        27.1470  -46.9070  -43.5980 C.3   120  TYR120      0.1736
    103  C         26.4180  -45.9570  -44.5370 C.2   120  TYR120      0.2595
    104  O         25.1880  -45.8500  -44.4810 O.2   120  TYR120     -0.2718
    105  CB        27.5830  -48.1980  -44.3600 C.3   120  TYR120      0.0548
    106  CG        26.4080  -49.0670  -44.7630 C.ar  120  TYR120     -0.0200
    107  CD1       25.8400  -49.9620  -43.8590 C.ar  120  TYR120     -0.0009
    108  CD2       25.8230  -48.9500  -46.0270 C.ar  120  TYR120     -0.0009
    109  CE1       24.7300  -50.7340  -44.2040 C.ar  120  TYR120      0.0417
    110  CE2       24.7320  -49.7300  -46.4010 C.ar  120  TYR120      0.0417
    111  CZ        24.1760  -50.6250  -45.4740 C.ar  120  TYR120      0.1957
    112  OH        23.0800  -51.4120  -45.8040 O.3   120  TYR120     -0.2866
    113  N         27.1750  -45.2740  -45.4040 N.am  121  ASN121     -0.1960
    114  CA        26.5920  -44.3890  -46.3980 C.3   121  ASN121      0.1819
    115  C         26.3170  -45.1140  -47.7520 C.2   121  ASN121      0.2621
    116  O         26.4310  -46.3420  -47.8340 O.2   121  ASN121     -0.2715
    117  CB        27.4600  -43.1370  -46.5390 C.3   121  ASN121      0.1195
    118  CG        28.7380  -43.4000  -47.2970 C.2   121  ASN121      0.2630
    119  OD1       28.9900  -44.5230  -47.7500 O.2   121  ASN121     -0.2716
    120  ND2       29.5580  -42.3650  -47.4520 N.am  121  ASN121     -0.0877
    121  N         25.9340  -44.3810  -48.7880 N.am  122  GLU122     -0.1963
    122  CA        25.5880  -45.0140  -50.0830 C.3   122  GLU122      0.1733
    123  C         26.7760  -45.6390  -50.8250 C.2   122  GLU122      0.2616
    124  O         26.5790  -46.3250  -51.8320 O.2   122  GLU122     -0.2715
    125  CB        24.9430  -44.0270  -51.0610 C.3   122  GLU122      0.0429
    126  CG        24.6540  -42.6570  -50.5220 C.3   122  GLU122      0.1163
    127  CD        25.8940  -41.7990  -50.3250 C.2   122  GLU122      0.3649
    128  OE1       26.4920  -41.3830  -51.3320 O.co2 122  GLU122     -0.2457
    129  OE2       26.2330  -41.5180  -49.1540 O.co2 122  GLU122     -0.2457
    130  N         27.9870  -45.4000  -50.3320 N.am  123  ASN123     -0.1958
    131  CA        29.2050  -45.9870  -50.8980 C.3   123  ASN123      0.1819
    132  C         29.7080  -47.0860  -50.0070 C.2   123  ASN123      0.2621
    133  O         30.7710  -47.6340  -50.2350 O.2   123  ASN123     -0.2715
    134  CB        30.2640  -44.9040  -51.1170 C.3   123  ASN123      0.1195
    135  CG        29.8180  -43.9020  -52.1500 C.2   123  ASN123      0.2630
    136  OD1       29.1360  -44.2610  -53.1210 O.2   123  ASN123     -0.2716
    137  ND2       30.1450  -42.6380  -51.9320 N.am  123  ASN123     -0.0877
    138  N         28.8850  -47.4320  -49.0190 N.am  124  ARG124     -0.1977
    139  CA        29.1940  -48.4320  -47.9780 C.3   124  ARG124      0.1597
    140  C         30.4100  -48.0380  -47.1340 C.2   124  ARG124      0.2287
    141  O         31.0480  -48.8940  -46.5580 O.2   124  ARG124     -0.2864
    142  CB        29.3510  -49.8590  -48.5850 C.3   124  ARG124      0.0334
    143  CG        28.5060  -50.9240  -47.8800 C.3   124  ARG124      0.0492
    144  CD        29.0270  -51.3380  -46.4920 C.3   124  ARG124      0.2205
    145  NE        28.0910  -52.2300  -45.8090 N.pl3 124  ARG124     -0.0865
    146  CZ        28.2810  -52.7830  -44.6090 C.cat 124  ARG124      0.5346
    147  NH1       27.3470  -53.5670  -44.0880 N.pl3 124  ARG124      0.1354
    148  NH2       29.3790  -52.5430  -43.9120 N.pl3 124  ARG124      0.1354
@<TRIPOS>BOND
     1   136   135    2
     2     9     8    1
     3   135   137   am
     4   135   134    1
     5   124   123    2
     6     8     7    1
     7    81    80   ar
     8   128   127   ar
     9   134   131    1
    10   125   126    1
    11   125   122    1
    12    79    80    1
    13    79    76    1
    14   131   130    1
    15   131   132    1
    16   123   130   am
    17   123   122    1
    18     7     6    1
    19    80    82   ar
    20   126   127    1
    21   127   129   ar
    22   133   132    2
    23   122   121    1
    24    76    75    1
    25    76    77    1
    26   132   138   am
    27     6     5    1
    28   138   139    1
    29   121   115   am
    30    74    72   ar
    31    77    78    2
    32    77    83   am
    33   142   139    1
    34   142   143    1
    35    20    19   ar
    36    20    18   ar
    37     5     2    1
    38   139   140    1
    39   143   144    1
    40    70    71    1
    41    70    67    1
    42    68    67    1
    43    68    69    2
    44    72    71    1
    45    72    73   ar
    46   116   115    2
    47    19    17   ar
    48   115   114    1
    49   119   118    2
    50    83    84    1
    51    18    16   ar
    52   120   118   am
    53    67    66    1
    54   118   117    1
    55   140   141    2
    56    17    15   ar
    57     2     1    1
    58     2     3    1
    59    16    15   ar
    60   117   114    1
    61   144   145    1
    62   110   108   ar
    63   110   111   ar
    64   114   113    1
    65    84    87    1
    66    84    85    1
    67    15    14    1
    68    87    88    1
    69   108   106   ar
    70   145   146    2
    71   112   111    1
    72     3     4    2
    73    64    63    1
    74    64    65    1
    75    91    89   am
    76   111   109   ar
    77   113   103   am
    78    46    45    1
    79    63    60    1
    80    45    42    1
    81    85    86    2
    82    14    11    1
    83    88    89    1
    84   106   105    1
    85   106   107   ar
    86   146   147    1
    87   146   148    1
    88    89    90    2
    89   103   104    2
    90   103   102    1
    91    65    59    1
    92    28    26   ar
    93   105   102    1
    94   109   107   ar
    95    27    26   ar
    96    60    59    1
    97    60    61    1
    98    59    49   am
    99    44    43    2
   100    42    43    1
   101    42    41    1
   102    10    11    1
   103    26    25    1
   104    11    12    1
   105   102   101    1
   106    43    47   am
   107    41    31   am
   108    47    48    1
   109   100    99    1
   110    49    48    1
   111    49    50    2
   112    48    51    1
   113    61    62    2
   114    37    35   ar
   115    37    39   ar
   116    12    13    2
   117    31    30    1
   118    31    32    2
   119    35    34   ar
   120    99    98    1
   121    40    39    1
   122    25    22    1
   123    30    29    1
   124    30    33    1
   125    39    38   ar
   126    53    55   ar
   127    53    52   ar
   128    92    93    1
   129    55    57   ar
   130    97    98    1
   131    97    96    1
   132    22    21    1
   133    22    23    1
   134    51    52    1
   135    34    33    1
   136    34    36   ar
   137    52    54   ar
   138    38    36   ar
   139    57    58    1
   140    57    56   ar
   141    93    96    1
   142    93    94    1
   143    54    56   ar
   144    23    24    2
   145    94    95    2
