@<TRIPOS>MOLECULE
tmp/3t6sB00.pdb
 205 192 0 0 0
SMALL
GASTEIGER

@<TRIPOS>ATOM
      1  N         24.6470   28.6610  -31.3920 N.3    84  LEU84      -0.1245
      2  CA        23.2540   29.1330  -31.4160 C.3    84  LEU84       0.1561
      3  C         22.4610   28.5360  -32.5720 C.2    84  LEU84       0.2260
      4  O         21.2490   28.4110  -32.4970 O.2    84  LEU84      -0.2867
      5  CB        23.2110   30.6660  -31.5830 C.3    84  LEU84       0.0270
      6  CG        23.1610   31.5800  -30.3540 C.3    84  LEU84       0.0019
      7  CD1       24.1460   31.2000  -29.2680 C.3    84  LEU84       0.0001
      8  CD2       23.3290   33.0500  -30.7510 C.3    84  LEU84       0.0001
      9  N         22.0620   28.6430  -25.5380 N.3   115  ARG115     -0.1231
     10  CA        21.9290   29.9060  -26.2760 C.3   115  ARG115      0.1694
     11  C         23.1760   30.7750  -26.1090 C.2   115  ARG115      0.2592
     12  O         24.2980   30.2650  -26.1610 O.2   115  ARG115     -0.2718
     13  CB        20.6420   30.6320  -25.8700 C.3   115  ARG115      0.0321
     14  CG        19.4150   29.7330  -25.8600 C.3   115  ARG115      0.0489
     15  CD        19.1340   29.1480  -27.2070 C.3   115  ARG115      0.2205
     16  NE        19.1250   30.1480  -28.2810 N.pl3 115  ARG115     -0.0865
     17  CZ        19.4340   29.8800  -29.5560 C.cat 115  ARG115      0.5346
     18  NH1       19.7810   28.6400  -29.9460 N.pl3 115  ARG115      0.1354
     19  NH2       19.4030   30.8440  -30.4530 N.pl3 115  ARG115      0.1354
     20  N         22.9980   32.0740  -25.8930 N.am  116  CYS116     -0.1970
     21  CA        24.1420   32.9860  -25.8410 C.3   116  CYS116      0.1712
     22  C         25.0480   32.7280  -24.6340 C.2   116  CYS116      0.2296
     23  O         26.1880   33.2110  -24.5950 O.2   116  CYS116     -0.2864
     24  CB        23.6590   34.4400  -25.8500 C.3   116  CYS116      0.0983
     25  SG        22.4140   34.8030  -27.1550 S.3   116  CYS116     -0.0798
     26  N         16.9350   40.1240  -33.9150 N.3   159  VAL159     -0.1245
     27  CA        16.8640   40.2790  -32.4590 C.3   159  VAL159      0.1561
     28  C         16.8250   41.7750  -32.2000 C.2   159  VAL159      0.2260
     29  O         17.6070   42.5320  -32.7840 O.2   159  VAL159     -0.2867
     30  CB        18.0680   39.6200  -31.7080 C.3   159  VAL159      0.0252
     31  CG1       17.8800   38.1670  -31.5950 C.3   159  VAL159      0.0019
     32  CG2       19.3880   39.8910  -32.4220 C.3   159  VAL159      0.0019
     33  N         17.4770   43.6630  -29.4500 N.3   161  VAL161     -0.1245
     34  CA        18.5070   44.3110  -28.6060 C.3   161  VAL161      0.1561
     35  C         19.9500   44.2320  -29.1520 C.2   161  VAL161      0.2260
     36  O         20.8340   44.9520  -28.6720 O.2   161  VAL161     -0.2867
     37  CB        18.4960   43.7970  -27.1400 C.3   161  VAL161      0.0252
     38  CG1       17.0930   43.9450  -26.5360 C.3   161  VAL161      0.0019
     39  CG2       18.9710   42.3560  -27.0510 C.3   161  VAL161      0.0019
     40  N         11.7750   31.9590  -17.7920 N.3   193  LEU193     -0.1245
     41  CA        11.9080   32.9350  -18.8620 C.3   193  LEU193      0.1561
     42  C         12.0860   32.2720  -20.2310 C.2   193  LEU193      0.2260
     43  O         12.1190   32.9690  -21.2460 O.2   193  LEU193     -0.2867
     44  CB        13.0530   33.9170  -18.5540 C.3   193  LEU193      0.0270
     45  CG        12.9410   34.7630  -17.2670 C.3   193  LEU193      0.0019
     46  CD1       13.9920   35.8860  -17.2190 C.3   193  LEU193      0.0001
     47  CD2       11.5580   35.3460  -17.0960 C.3   193  LEU193      0.0001
     48  N          9.8340   33.5110  -23.0830 N.3   196  LEU196     -0.1245
     49  CA        10.2230   34.7010  -23.8730 C.3   196  LEU196      0.1561
     50  C         10.9710   34.3590  -25.1650 C.2   196  LEU196      0.2260
     51  O         10.9780   35.1550  -26.1080 O.2   196  LEU196     -0.2867
     52  CB        11.1030   35.6260  -23.0360 C.3   196  LEU196      0.0270
     53  CG        10.5190   36.1560  -21.7270 C.3   196  LEU196      0.0019
     54  CD1       11.4550   37.1730  -21.1400 C.3   196  LEU196      0.0001
     55  CD2        9.1250   36.7380  -21.9460 C.3   196  LEU196      0.0001
     56  N         12.8270   37.5610  -33.1490 N.3   216  LEU216     -0.1245
     57  CA        12.9340   37.2390  -31.7300 C.3   216  LEU216      0.1561
     58  C         12.4290   38.3660  -30.8330 C.2   216  LEU216      0.2260
     59  O         12.0390   38.1210  -29.6990 O.2   216  LEU216     -0.2867
     60  CB        14.3860   36.8820  -31.3800 C.3   216  LEU216      0.0270
     61  CG        14.8010   35.4210  -31.5650 C.3   216  LEU216      0.0019
     62  CD1       14.1100   34.7410  -32.7440 C.3   216  LEU216      0.0001
     63  CD2       16.3230   35.3050  -31.6820 C.3   216  LEU216      0.0001
     64  N          9.5910   37.7480  -27.7210 N.3   220  THR220     -0.1218
     65  CA         9.6300   38.3170  -26.3650 C.3   220  THR220      0.1862
     66  C          8.3050   38.9770  -25.9630 C.2   220  THR220      0.2287
     67  O          7.8010   38.7540  -24.8580 O.2   220  THR220     -0.2866
     68  CB        10.7800   39.3300  -26.2360 C.3   220  THR220      0.1770
     69  OG1       12.0050   38.6640  -26.5380 O.3   220  THR220     -0.2211
     70  CG2       10.8630   39.8950  -24.8430 C.3   220  THR220      0.0375
     71  N          8.2820   40.0810  -14.2590 N.3   232  LEU232     -0.1231
     72  CA         9.1030   39.4650  -15.3120 C.3   232  LEU232      0.1693
     73  C         10.4790   40.1210  -15.4030 C.2   232  LEU232      0.2592
     74  O         11.5020   39.4400  -15.4120 O.2   232  LEU232     -0.2718
     75  CB         8.4040   39.5810  -16.6630 C.3   232  LEU232      0.0284
     76  CG         9.1030   38.8760  -17.8270 C.3   232  LEU232      0.0019
     77  CD1        8.7050   37.3930  -17.8650 C.3   232  LEU232      0.0001
     78  CD2        8.8220   39.5920  -19.1620 C.3   232  LEU232      0.0001
     79  N         10.4890   41.4490  -15.4610 N.am  233  THR233     -0.1953
     80  CA        11.7280   42.2070  -15.5500 C.3   233  THR233      0.1897
     81  C         12.5900   42.0100  -14.2910 C.2   233  THR233      0.2313
     82  O         13.8130   41.9280  -14.3930 O.2   233  THR233     -0.2863
     83  CB        11.4190   43.7040  -15.8340 C.3   233  THR233      0.1794
     84  OG1       10.9460   43.8210  -17.1830 O.3   233  THR233     -0.2208
     85  CG2       12.6570   44.6040  -15.6400 C.3   233  THR233      0.0378
     86  N         14.5700   38.6900  -14.4160 N.3   236  TYR236     -0.1227
     87  CA        15.7650   38.8390  -15.2510 C.3   236  TYR236      0.1736
     88  C         16.8640   39.5620  -14.4710 C.2   236  TYR236      0.2595
     89  O         17.9660   39.0350  -14.3120 O.2   236  TYR236     -0.2718
     90  CB        15.4110   39.5720  -16.5480 C.3   236  TYR236      0.0548
     91  CG        16.5850   39.9400  -17.4380 C.ar  236  TYR236     -0.0200
     92  CD1       17.1780   39.0070  -18.2870 C.ar  236  TYR236     -0.0009
     93  CD2       17.0890   41.2320  -17.4410 C.ar  236  TYR236     -0.0009
     94  CE1       18.2460   39.3680  -19.1170 C.ar  236  TYR236      0.0417
     95  CE2       18.1440   41.5950  -18.2600 C.ar  236  TYR236      0.0417
     96  CZ        18.7160   40.6640  -19.0920 C.ar  236  TYR236      0.1957
     97  OH        19.7630   41.0490  -19.8910 O.3   236  TYR236     -0.2866
     98  N         16.5500   40.7490  -13.9490 N.am  237  ILE237     -0.1980
     99  CA        17.5110   41.5260  -13.1520 C.3   237  ILE237      0.1595
    100  C         18.1000   40.7050  -12.0000 C.2   237  ILE237      0.2287
    101  O         19.3140   40.6910  -11.8080 O.2   237  ILE237     -0.2864
    102  CB        16.8910   42.8590  -12.6110 C.3   237  ILE237      0.0276
    103  CG1       17.1860   44.0210  -13.5620 C.3   237  ILE237      0.0022
    104  CG2       17.4620   43.2330  -11.2320 C.3   237  ILE237      0.0022
    105  CD1       16.8190   43.7690  -15.0030 C.3   237  ILE237      0.0001
    106  N         20.7690   38.0780  -12.9000 N.3   240  LEU240     -0.1245
    107  CA        22.0090   38.7310  -13.3400 C.3   240  LEU240      0.1561
    108  C         22.7870   39.2350  -12.1270 C.2   240  LEU240      0.2260
    109  O         24.0000   39.0390  -12.0340 O.2   240  LEU240     -0.2867
    110  CB        21.7320   39.8950  -14.3020 C.3   240  LEU240      0.0270
    111  CG        21.0670   39.5630  -15.6440 C.3   240  LEU240      0.0019
    112  CD1       20.8140   40.8700  -16.4220 C.3   240  LEU240      0.0001
    113  CD2       21.8940   38.5570  -16.4860 C.3   240  LEU240      0.0001
    114  N         20.2100   48.6120  -25.2890 N.3   268  ARG268     -0.1245
    115  CA        18.8450   49.1010  -25.2520 C.3   268  ARG268      0.1563
    116  C         18.7710   50.4660  -25.9340 C.2   268  ARG268      0.2260
    117  O         17.8680   50.6950  -26.7340 O.2   268  ARG268     -0.2867
    118  CB        18.3420   49.1320  -23.8060 C.3   268  ARG268      0.0307
    119  CG        18.3800   47.7430  -23.1670 C.3   268  ARG268      0.0489
    120  CD        18.0010   47.7520  -21.6980 C.3   268  ARG268      0.2205
    121  NE        16.5800   48.0240  -21.4720 N.pl3 268  ARG268     -0.0865
    122  CZ        16.0870   49.0000  -20.7030 C.cat 268  ARG268      0.5346
    123  NH1       16.8820   49.8480  -20.0440 N.pl3 268  ARG268      0.1354
    124  NH2       14.7690   49.1250  -20.5750 N.pl3 268  ARG268      0.1354
    125  N         18.4230   53.6440  -24.7040 N.3   270  THR270     -0.1203
    126  CA        17.9730   54.6770  -23.7780 C.3   270  THR270      0.1994
    127  C         17.8040   53.9920  -22.4380 C.2   270  THR270      0.2618
    128  O         17.7210   52.7640  -22.3690 O.2   270  THR270     -0.2717
    129  CB        16.6240   55.3240  -24.2000 C.3   270  THR270      0.1784
    130  OG1       15.7400   54.3090  -24.6840 O.3   270  THR270     -0.2211
    131  CG2       16.8200   56.4000  -25.2880 C.3   270  THR270      0.0376
    132  N         17.7620   54.7880  -21.3780 N.am  271  GLY271     -0.1942
    133  CA        17.6740   54.2640  -20.0220 C.3   271  GLY271      0.2014
    134  C         18.9330   53.5070  -19.6150 C.2   271  GLY271      0.2639
    135  O         20.0250   53.7680  -20.1320 O.2   271  GLY271     -0.2714
    136  N         18.7690   52.5590  -18.6930 N.am  272  HIS272     -0.1959
    137  CA        19.8900   51.8100  -18.1400 C.3   272  HIS272      0.1787
    138  C         20.4380   50.8120  -19.1640 C.2   272  HIS272      0.2620
    139  O         19.7510   50.4000  -20.1090 O.2   272  HIS272     -0.2715
    140  CB        19.4890   51.0660  -16.8520 C.3   272  HIS272      0.0785
    141  CG        19.2500   51.9660  -15.6720 C.ar  272  HIS272      0.0821
    142  ND1       18.0410   52.0230  -15.0120 N.ar  272  HIS272     -0.2267
    143  CD2       20.0660   52.8400  -15.0330 C.ar  272  HIS272      0.1154
    144  CE1       18.1200   52.8940  -14.0190 C.ar  272  HIS272      0.1986
    145  NE2       19.3380   53.4050  -14.0110 N.ar  272  HIS272     -0.2212
    146  N         21.7020   50.4570  -18.9770 N.am  273  GLU273     -0.1963
    147  CA        22.3230   49.3800  -19.7200 C.3   273  GLU273      0.1733
    148  C         22.9030   48.4270  -18.6790 C.2   273  GLU273      0.2616
    149  O         22.9380   48.7460  -17.4860 O.2   273  GLU273     -0.2715
    150  CB        23.4090   49.9240  -20.6570 C.3   273  GLU273      0.0429
    151  CG        22.9210   50.9050  -21.7370 C.3   273  GLU273      0.1163
    152  CD        22.0830   50.2570  -22.8450 C.2   273  GLU273      0.3649
    153  OE1       21.9860   49.0110  -22.9080 O.co2 273  GLU273     -0.2457
    154  OE2       21.5170   51.0000  -23.6740 O.co2 273  GLU273     -0.2457
    155  N         23.3540   47.2600  -19.1270 N.am  274  LEU274     -0.1977
    156  CA        23.8620   46.2310  -18.2150 C.3   274  LEU274      0.1596
    157  C         24.9350   46.7620  -17.2660 C.2   274  LEU274      0.2287
    158  O         24.9720   46.3640  -16.0980 O.2   274  LEU274     -0.2864
    159  CB        24.4070   45.0300  -19.0040 C.3   274  LEU274      0.0297
    160  CG        25.0520   43.8990  -18.1970 C.3   274  LEU274      0.0022
    161  CD1       24.1050   43.3560  -17.1310 C.3   274  LEU274      0.0001
    162  CD2       25.4940   42.8090  -19.1350 C.3   274  LEU274      0.0001
    163  N         23.6300   47.9190  -13.9490 N.3   277  LEU277     -0.1245
    164  CA        23.3460   46.7760  -13.0640 C.3   277  LEU277      0.1561
    165  C         24.6340   46.1380  -12.5110 C.2   277  LEU277      0.2260
    166  O         24.6540   45.6990  -11.3680 O.2   277  LEU277     -0.2867
    167  CB        22.4730   45.7360  -13.7950 C.3   277  LEU277      0.0270
    168  CG        21.9880   44.4310  -13.1360 C.3   277  LEU277      0.0019
    169  CD1       20.8910   43.7500  -13.9900 C.3   277  LEU277      0.0001
    170  CD2       23.1110   43.4160  -12.9120 C.3   277  LEU277      0.0001
    171  N         27.0130   40.6530  -31.9400 N.3   295  HIS295     -0.1241
    172  CA        26.8720   39.5080  -31.0520 C.3   295  HIS295      0.1621
    173  C         27.3190   38.2000  -31.7660 C.2   295  HIS295      0.2264
    174  O         26.6170   37.6670  -32.6260 O.2   295  HIS295     -0.2867
    175  CB        25.4200   39.4560  -30.5860 C.3   295  HIS295      0.0745
    176  CG        25.0820   38.2650  -29.7550 C.ar  295  HIS295      0.0817
    177  ND1       25.7550   37.9530  -28.5940 N.ar  295  HIS295     -0.2268
    178  CD2       24.1170   37.3240  -29.9020 C.ar  295  HIS295      0.1154
    179  CE1       25.2240   36.8660  -28.0640 C.ar  295  HIS295      0.1986
    180  NE2       24.2320   36.4650  -28.8400 N.ar  295  HIS295     -0.2212
    181  N         24.9880   35.2880  -20.0400 N.3   325  GLY325     -0.1210
    182  CA        23.6030   35.6570  -20.2890 C.3   325  GLY325      0.1956
    183  C         23.1310   35.0830  -21.6130 C.2   325  GLY325      0.2612
    184  O         23.6860   35.3940  -22.6600 O.2   325  GLY325     -0.2717
    185  N         22.1180   34.2230  -21.5480 N.am  326  GLY326     -0.1942
    186  CA        21.4800   33.6590  -22.7230 C.3   326  GLY326      0.2014
    187  C         20.0380   33.2420  -22.4490 C.2   326  GLY326      0.2638
    188  O         19.6740   32.9000  -21.3190 O.2   326  GLY326     -0.2714
    189  N         19.2230   33.2580  -23.4970 N.am  327  ALA327     -0.1977
    190  CA        17.8430   32.7950  -23.4270 C.3   327  ALA327      0.1597
    191  C         17.7670   31.4570  -22.6670 C.2   327  ALA327      0.2287
    192  O         18.6310   30.5820  -22.8440 O.2   327  ALA327     -0.2864
    193  CB        17.2790   32.6380  -24.8380 C.3   327  ALA327      0.0319
    194  N         16.1480   31.4980  -18.8400 N.3   329  TYR329     -0.1241
    195  CA        17.3520   32.3210  -19.0420 C.3   329  TYR329      0.1605
    196  C         18.4410   31.9190  -18.0480 C.2   329  TYR329      0.2264
    197  O         18.1560   31.7230  -16.8620 O.2   329  TYR329     -0.2867
    198  CB        16.9940   33.8110  -18.8790 C.3   329  TYR329      0.0534
    199  CG        18.0750   34.7860  -19.2750 C.ar  329  TYR329     -0.0201
    200  CD1       18.0270   35.4500  -20.4870 C.ar  329  TYR329     -0.0009
    201  CD2       19.1490   35.0480  -18.4260 C.ar  329  TYR329     -0.0009
    202  CE1       19.0330   36.3520  -20.8500 C.ar  329  TYR329      0.0417
    203  CE2       20.1600   35.9490  -18.7820 C.ar  329  TYR329      0.0417
    204  CZ        20.0920   36.6010  -19.9840 C.ar  329  TYR329      0.1957
    205  OH        21.0810   37.5090  -20.3410 O.3   329  TYR329     -0.2866
@<TRIPOS>BOND
     1    26    27    1
     2    56    57    1
     3    29    28    2
     4    62    61    1
     5   174   173    2
     6     3     4    2
     7     3     2    1
     8    27    28    1
     9    27    30    1
    10    32    30    1
    11   171   172    1
    12   173   172    1
    13    57    60    1
    14    57    58    1
    15    30    31    1
    16    63    61    1
    17     5     2    1
    18     5     6    1
    19    61    60    1
    20     2     1    1
    21   172   175    1
    22    58    59    2
    23     8     6    1
    24   175   176    1
    25    19    17    1
    26     6     7    1
    27    18    17    1
    28   178   176   ar
    29   178   180   ar
    30   176   177   ar
    31    17    16    2
    32    33    34    1
    33    35    36    2
    34    35    34    1
    35   180   179   ar
    36    34    37    1
    37   177   179   ar
    38    16    15    1
    39    64    65    1
    40    15    14    1
    41    25    24    1
    42    37    39    1
    43    37    38    1
    44   117   116    2
    45    69    68    1
    46    65    68    1
    47    65    66    1
    48    10    11    1
    49    10    13    1
    50    10     9    1
    51    68    70    1
    52    12    11    2
    53    11    20   am
    54    51    50    2
    55    66    67    2
    56   116   115    1
    57    20    21    1
    58    13    14    1
    59    24    21    1
    60    21    22    1
    61   114   115    1
    62   131   129    1
    63   115   118    1
    64    50    49    1
    65   193   190    1
    66   125   126    1
    67   130   129    1
    68    22    23    2
    69   129   126    1
    70    49    48    1
    71    49    52    1
    72   118   119    1
    73   126   127    1
    74   154   152   ar
    75   189   190    1
    76   189   187   am
    77   190   191    1
    78   119   120    1
    79    52    53    1
    80   153   152   ar
    81   152   151    1
    82   192   191    2
    83   186   187    1
    84   186   185    1
    85   184   183    2
    86   187   188    2
    87   127   128    2
    88   127   132   am
    89    55    53    1
    90   151   150    1
    91    53    54    1
    92   120   121    1
    93   183   185   am
    94   183   182    1
    95   121   122    2
    96   132   133    1
    97    43    42    2
    98   202   200   ar
    99   202   204   ar
   100   122   124    1
   101   122   123    1
   102   150   147    1
   103   200   199   ar
   104   205   204    1
   105   182   181    1
   106    42    41    1
   107   135   134    2
   108   139   138    2
   109   133   134    1
   110   204   203   ar
   111    97    96    1
   112   147   146    1
   113   147   148    1
   114   134   136   am
   115   199   198    1
   116   199   201   ar
   117   138   146   am
   118   138   137    1
   119    78    76    1
   120   162   160    1
   121   155   148   am
   122   155   156    1
   123    94    96   ar
   124    94    92   ar
   125    96    95   ar
   126   195   198    1
   127   195   194    1
   128   195   196    1
   129   159   156    1
   130   159   160    1
   131    41    44    1
   132    41    40    1
   133   203   201   ar
   134   136   137    1
   135   148   149    2
   136    44    45    1
   137    92    91   ar
   138    95    93   ar
   139   156   157    1
   140   160   161    1
   141   137   140    1
   142   196   197    2
   143    77    76    1
   144    76    75    1
   145    93    91   ar
   146    91    90    1
   147    45    46    1
   148    45    47    1
   149   157   158    2
   150    84    83    1
   151   140   141    1
   152    75    72    1
   153    90    87    1
   154   113   111    1
   155   112   111    1
   156    83    85    1
   157    83    80    1
   158   141   143   ar
   159   141   142   ar
   160   111   110    1
   161    80    79    1
   162    80    81    1
   163    79    73   am
   164    74    73    2
   165    73    72    1
   166    72    71    1
   167    87    88    1
   168    87    86    1
   169   143   145   ar
   170   142   144   ar
   171   105   103    1
   172    88    89    2
   173    88    98   am
   174    82    81    2
   175   110   107    1
   176   144   145   ar
   177   169   168    1
   178   163   164    1
   179    98    99    1
   180   167   168    1
   181   167   164    1
   182   103   102    1
   183   107   106    1
   184   107   108    1
   185    99   102    1
   186    99   100    1
   187   168   170    1
   188   164   165    1
   189   102   104    1
   190   165   166    2
   191   108   109    2
   192   100   101    2
