@<TRIPOS>MOLECULE
tmp/3t6xC01.pdb
 75 70 0 0 0
SMALL
GASTEIGER

@<TRIPOS>ATOM
      1  N         28.7130  -95.8380  -13.7280 N.3   323  GLN323     -0.1231
      2  CA        29.6550  -94.7160  -13.7570 C.3   323  GLN323      0.1698
      3  C         31.0230  -95.1900  -14.2470 C.2   323  GLN323      0.2592
      4  O         31.6570  -96.0510  -13.6160 O.2   323  GLN323     -0.2718
      5  CB        29.7610  -94.0210  -12.3850 C.3   323  GLN323      0.0381
      6  CG        30.4340  -92.6500  -12.4310 C.3   323  GLN323      0.0905
      7  CD        29.5610  -91.5790  -13.0450 C.2   323  GLN323      0.2608
      8  OE1       28.3480  -91.5760  -12.8590 O.2   323  GLN323     -0.2717
      9  NE2       30.1720  -90.6480  -13.7620 N.am  323  GLN323     -0.0878
     10  N         31.4550  -94.6450  -15.3840 N.am  324  GLY324     -0.1957
     11  CA        32.7250  -95.0250  -15.9950 C.3   324  GLY324      0.1869
     12  C         32.5950  -96.0860  -17.0760 C.2   324  GLY324      0.2309
     13  O         33.6040  -96.5130  -17.6520 O.2   324  GLY324     -0.2863
     14  N         36.5500  -89.6740  -19.0240 N.3   330  LEU330     -0.1231
     15  CA        37.2730  -88.5470  -18.4880 C.3   330  LEU330      0.1693
     16  C         36.5870  -87.9570  -17.2680 C.2   330  LEU330      0.2592
     17  O         35.3880  -88.1120  -17.0520 O.2   330  LEU330     -0.2718
     18  CB        37.4470  -87.4780  -19.5570 C.3   330  LEU330      0.0284
     19  CG        38.4400  -87.8510  -20.6420 C.3   330  LEU330      0.0019
     20  CD1       37.9900  -87.3440  -22.0100 C.3   330  LEU330      0.0001
     21  CD2       39.8110  -87.3050  -20.2640 C.3   330  LEU330      0.0001
     22  N         37.3910  -87.2880  -16.4660 N.am  331  ASN331     -0.1974
     23  CA        36.9270  -86.6290  -15.2790 C.3   331  ASN331      0.1688
     24  C         37.7750  -85.3820  -15.2010 C.2   331  ASN331      0.2292
     25  O         39.0000  -85.4630  -15.0450 O.2   331  ASN331     -0.2864
     26  CB        37.1410  -87.5360  -14.0760 C.3   331  ASN331      0.1181
     27  CG        36.6400  -86.9300  -12.8010 C.2   331  ASN331      0.2629
     28  OD1       35.7960  -87.5130  -12.1290 O.2   331  ASN331     -0.2716
     29  ND2       37.1500  -85.7530  -12.4500 N.am  331  ASN331     -0.0877
     30  N         32.9180  -90.6880  -22.1700 N.3   385  GLU385     -0.1245
     31  CA        32.1650  -90.1690  -21.0260 C.3   385  GLU385      0.1567
     32  C         32.9290  -89.0270  -20.3770 C.2   385  GLU385      0.2260
     33  O         34.1060  -89.1890  -20.0530 O.2   385  GLU385     -0.2867
     34  CB        31.9110  -91.2390  -19.9650 C.3   385  GLU385      0.0388
     35  CG        31.2610  -90.6590  -18.7130 C.3   385  GLU385      0.1160
     36  CD        30.9630  -91.6740  -17.6250 C.2   385  GLU385      0.3649
     37  OE1       30.0500  -92.5010  -17.8400 O.co2 385  GLU385     -0.2457
     38  OE2       31.6120  -91.6120  -16.5410 O.co2 385  GLU385     -0.2457
     39  N         32.9660  -86.3730  -17.0450 N.3   387  ALA387     -0.1245
     40  CA        32.4750  -85.8570  -15.7640 C.3   387  ALA387      0.1562
     41  C         32.9580  -84.4200  -15.5630 C.2   387  ALA387      0.2260
     42  O         34.1510  -84.1140  -15.7070 O.2   387  ALA387     -0.2867
     43  CB        32.9240  -86.7470  -14.6110 C.3   387  ALA387      0.0290
     44  N         32.5950  -82.2630  -12.5860 N.3   389  PRO389     -0.2102
     45  CA        32.1890  -81.9720  -11.2090 C.3   389  PRO389      0.1504
     46  C         32.2560  -80.4920  -10.8690 C.2   389  PRO389      0.2575
     47  O         33.2470  -79.8230  -11.1900 O.2   389  PRO389     -0.2718
     48  CB        33.1880  -82.7790  -10.3520 C.3   389  PRO389      0.0282
     49  CG        34.2750  -83.2190  -11.2830 C.3   389  PRO389      0.0208
     50  CD        33.6580  -83.2840  -12.6430 C.3   389  PRO389      0.0893
     51  N         31.1970  -79.9950  -10.2330 N.am  390  ALA390     -0.1980
     52  CA        31.0510  -78.5680   -9.9270 C.3   390  ALA390      0.1597
     53  C         31.8960  -78.1620   -8.7260 C.2   390  ALA390      0.2287
     54  O         32.5210  -79.0030   -8.0950 O.2   390  ALA390     -0.2864
     55  CB        29.5860  -78.2190   -9.6880 C.3   390  ALA390      0.0319
     56  N         29.3830  -80.4270   -5.0110 N.3   434  GLY434     -0.1210
     57  CA        28.8050  -81.7390   -4.6910 C.3   434  GLY434      0.1956
     58  C         28.2780  -82.4490   -5.9240 C.2   434  GLY434      0.2612
     59  O         28.2840  -83.6820   -5.9910 O.2   434  GLY434     -0.2717
     60  N         27.8240  -81.6650   -6.9020 N.am  435  ASP435     -0.1959
     61  CA        27.2240  -82.2080   -8.1180 C.3   435  ASP435      0.1840
     62  C         28.2660  -82.9340   -8.9720 C.2   435  ASP435      0.2622
     63  O         29.4680  -82.6860   -8.8570 O.2   435  ASP435     -0.2715
     64  CB        26.4960  -81.1150   -8.9020 C.3   435  ASP435      0.1450
     65  CG        25.1450  -80.7290   -8.2700 C.2   435  ASP435      0.3671
     66  OD1       24.6340  -81.4880   -7.4130 O.co2 435  ASP435     -0.2456
     67  OD2       24.5860  -79.6670   -8.6380 O.co2 435  ASP435     -0.2456
     68  N         27.8150  -83.8810   -9.7790 N.am  436  ASN436     -0.1972
     69  CA        28.7420  -84.5620  -10.6660 C.3   436  ASN436      0.1688
     70  C         28.1350  -84.7850  -12.0420 C.2   436  ASN436      0.2292
     71  O         27.8730  -85.9160  -12.4780 O.2   436  ASN436     -0.2864
     72  CB        29.2460  -85.8660  -10.0450 C.3   436  ASN436      0.1181
     73  CG        30.6140  -86.2480  -10.5500 C.2   436  ASN436      0.2629
     74  OD1       31.2580  -85.5090  -11.2930 O.2   436  ASN436     -0.2716
     75  ND2       31.0710  -87.4140  -10.1470 N.am  436  ASN436     -0.0877
@<TRIPOS>BOND
     1    30    31    1
     2    20    19    1
     3    31    32    1
     4    31    34    1
     5    19    21    1
     6    19    18    1
     7    32    33    2
     8    34    35    1
     9    18    15    1
    10    14    15    1
    11    35    36    1
    12    15    16    1
    13    37    36   ar
    14    13    12    2
    15    36    38   ar
    16    16    17    2
    17    16    22   am
    18    12    11    1
    19    39    40    1
    20    22    23    1
    21    11    10    1
    22    40    41    1
    23    40    43    1
    24    42    41    2
    25    10     3   am
    26    23    24    1
    27    23    26    1
    28    24    25    2
    29     3     2    1
    30     3     4    2
    31    26    27    1
    32     9     7   am
    33     2     1    1
    34     2     5    1
    35     7     8    2
    36     7     6    1
    37    27    29   am
    38    27    28    2
    39    50    44    1
    40    50    49    1
    41    44    45    1
    42    71    70    2
    43     6     5    1
    44    70    69    1
    45    74    73    2
    46    49    48    1
    47    45    46    1
    48    45    48    1
    49    47    46    2
    50    46    51   am
    51    69    72    1
    52    69    68    1
    53    73    75   am
    54    73    72    1
    55    51    52    1
    56    52    55    1
    57    52    53    1
    58    68    62   am
    59    62    63    2
    60    62    61    1
    61    64    65    1
    62    64    61    1
    63    53    54    2
    64    67    65   ar
    65    65    66   ar
    66    61    60    1
    67    60    58   am
    68    59    58    2
    69    58    57    1
    70    56    57    1
