@<TRIPOS>MOLECULE
tmp/3t6yC00.pdb
 102 98 0 0 0
SMALL
GASTEIGER

@<TRIPOS>ATOM
      1  N         20.7390   24.0110  -11.1400 N.3    42  PHE42      -0.1241
      2  CA        20.9640   23.7990   -9.7360 C.3    42  PHE42       0.1605
      3  C         22.2770   24.4860   -9.3450 C.2    42  PHE42       0.2264
      4  O         23.3400   24.0090   -9.7010 O.2    42  PHE42      -0.2867
      5  CB        21.0270   22.2820   -9.4470 C.3    42  PHE42       0.0534
      6  CG        19.7000   21.5830   -9.5660 C.ar   42  PHE42      -0.0203
      7  CD1       18.5180   22.2940   -9.5810 C.ar   42  PHE42      -0.0042
      8  CD2       19.6240   20.2110   -9.5960 C.ar   42  PHE42      -0.0042
      9  CE1       17.2850   21.6440   -9.6670 C.ar   42  PHE42      -0.0003
     10  CE2       18.3950   19.5660   -9.6690 C.ar   42  PHE42      -0.0003
     11  CZ        17.2240   20.2900   -9.7140 C.ar   42  PHE42      -0.0000
     12  N         14.9890   28.4300    2.5890 N.3    71  LEU71      -0.1245
     13  CA        15.7920   29.1690    1.6080 C.3    71  LEU71       0.1561
     14  C         14.8590   30.0510    0.8270 C.2    71  LEU71       0.2260
     15  O         14.0070   29.5620    0.0940 O.2    71  LEU71      -0.2867
     16  CB        16.4970   28.1830    0.6620 C.3    71  LEU71       0.0270
     17  CG        17.3670   28.7230   -0.4560 C.3    71  LEU71       0.0019
     18  CD1       18.6580   29.2700    0.0960 C.3    71  LEU71       0.0001
     19  CD2       17.6510   27.6930   -1.5310 C.3    71  LEU71       0.0001
     20  N         11.4970   26.1200   -6.8700 N.3    86  ASN86      -0.1240
     21  CA        10.7200   25.3870   -5.8890 C.3    86  ASN86       0.1653
     22  C         10.0250   26.3050   -4.9440 C.2    86  ASN86       0.2266
     23  O          9.5240   25.8650   -3.9320 O.2    86  ASN86      -0.2867
     24  CB        11.5680   24.3490   -5.1110 C.3    86  ASN86       0.1155
     25  CG        12.8660   24.9090   -4.5650 C.2    86  ASN86       0.2627
     26  OD1       13.5530   25.7110   -5.2220 O.2    86  ASN86      -0.2716
     27  ND2       13.2420   24.4550   -3.3560 N.am   86  ASN86      -0.0877
     28  N         12.7020   26.9880   -0.4440 N.3    89  GLY89      -0.1210
     29  CA        13.3610   25.7440   -0.0990 C.3    89  GLY89       0.1956
     30  C         13.1860   25.3800    1.3500 C.2    89  GLY89       0.2612
     31  O         13.3510   26.2120    2.2190 O.2    89  GLY89      -0.2717
     32  N         12.8780   24.1200    1.6060 N.am   90  LEU90      -0.1965
     33  CA        12.7420   23.6430    2.9660 C.3    90  LEU90       0.1728
     34  C         13.9370   22.7790    3.2840 C.2    90  LEU90       0.2616
     35  O         14.0700   21.7090    2.7230 O.2    90  LEU90      -0.2715
     36  CB        11.4380   22.8490    3.1200 C.3    90  LEU90       0.0311
     37  CG        11.1290   22.0010    4.3720 C.3    90  LEU90       0.0022
     38  CD1       11.1710   22.7850    5.6610 C.3    90  LEU90       0.0001
     39  CD2        9.7660   21.3710    4.2340 C.3    90  LEU90       0.0001
     40  N         14.8370   23.2530    4.1460 N.am   91  ILE91      -0.1963
     41  CA        15.9660   22.4370    4.5670 C.3    91  ILE91       0.1727
     42  C         15.6220   21.7800    5.9060 C.2    91  ILE91       0.2616
     43  O         15.4340   22.4590    6.9370 O.2    91  ILE91      -0.2715
     44  CB        17.2530   23.2550    4.7790 C.3    91  ILE91       0.0290
     45  CG1       17.5220   24.3170    3.6700 C.3    91  ILE91       0.0022
     46  CG2       18.3980   22.3080    5.1310 C.3    91  ILE91       0.0023
     47  CD1       17.6830   23.8180    2.2610 C.3    91  ILE91       0.0001
     48  N         15.5640   20.4550    5.8950 N.am   92  ASP92      -0.1971
     49  CA        15.2050   19.7420    7.1180 C.3    92  ASP92       0.1709
     50  C         16.3350   19.6940    8.1550 C.2    92  ASP92       0.2293
     51  O         17.5190   19.7820    7.8290 O.2    92  ASP92      -0.2864
     52  CB        14.6550   18.3460    6.8100 C.3    92  ASP92       0.1436
     53  CG        13.1750   18.2220    7.1270 C.2    92  ASP92       0.3671
     54  OD1       12.8680   18.3100    8.3440 O.co2  92  ASP92      -0.2456
     55  OD2       12.3440   18.0450    6.1850 O.co2  92  ASP92      -0.2456
     56  N         19.8420   18.2010    7.9090 N.3    95  TYR95      -0.1241
     57  CA        20.4480   18.0900    6.6080 C.3    95  TYR95       0.1605
     58  C         21.8930   18.4580    6.5290 C.2    95  TYR95       0.2264
     59  O         22.2710   19.5050    6.9960 O.2    95  TYR95      -0.2867
     60  CB        19.6040   18.8620    5.6070 C.3    95  TYR95       0.0534
     61  CG        20.0970   18.7780    4.1930 C.ar   95  TYR95      -0.0201
     62  CD1       19.9060   17.6210    3.4400 C.ar   95  TYR95      -0.0009
     63  CD2       20.7500   19.8670    3.6140 C.ar   95  TYR95      -0.0009
     64  CE1       20.3440   17.5530    2.1380 C.ar   95  TYR95       0.0417
     65  CE2       21.2000   19.8030    2.3230 C.ar   95  TYR95       0.0417
     66  CZ        20.9920   18.6460    1.5980 C.ar   95  TYR95       0.1957
     67  OH        21.4710   18.6070    0.3260 O.3    95  TYR95      -0.2866
     68  N         25.2680   19.9770    0.5660 N.3    98  GLU98      -0.1231
     69  CA        25.4710   21.3300    0.0770 C.3    98  GLU98       0.1699
     70  C         24.1130   21.9670   -0.1740 C.2    98  GLU98       0.2592
     71  O         23.2630   21.3230   -0.7410 O.2    98  GLU98      -0.2718
     72  CB        26.2650   21.3070   -1.2240 C.3    98  GLU98       0.0402
     73  CG        26.8870   22.6500   -1.6060 C.3    98  GLU98       0.1161
     74  CD        27.9180   22.5310   -2.7500 C.2    98  GLU98       0.3649
     75  OE1       28.4800   23.5710   -3.1880 O.co2  98  GLU98      -0.2457
     76  OE2       28.1940   21.3900   -3.2210 O.co2  98  GLU98      -0.2457
     77  N         23.8940   23.1970    0.2920 N.am   99  ILE99      -0.1966
     78  CA        22.6680   23.8890    0.0080 C.3    99  ILE99       0.1727
     79  C         22.7270   24.2750   -1.4810 C.2    99  ILE99       0.2616
     80  O         23.7340   24.8090   -1.9470 O.2    99  ILE99      -0.2715
     81  CB        22.5510   25.1910    0.7910 C.3    99  ILE99       0.0290
     82  CG1       22.9530   25.0800    2.2860 C.3    99  ILE99       0.0022
     83  CG2       21.1610   25.7610    0.6340 C.3    99  ILE99       0.0023
     84  CD1       22.3340   23.9780    3.0990 C.3    99  ILE99       0.0001
     85  N         21.6590   23.9700   -2.2300 N.am  100  ILE100     -0.1963
     86  CA        21.5640   24.2760   -3.6620 C.3   100  ILE100      0.1727
     87  C         20.4590   25.3240   -3.8360 C.2   100  ILE100      0.2616
     88  O         19.4190   25.2050   -3.2240 O.2   100  ILE100     -0.2715
     89  CB        21.2370   22.9860   -4.4580 C.3   100  ILE100      0.0290
     90  CG1       22.5090   22.2820   -4.9760 C.3   100  ILE100      0.0022
     91  CG2       20.3930   23.2850   -5.7000 C.3   100  ILE100      0.0023
     92  CD1       23.6080   21.9630   -3.9810 C.3   100  ILE100      0.0001
     93  N         20.6560   26.3610   -4.6390 N.am  101  ALA101     -0.1963
     94  CA        19.5060   27.1780   -5.0730 C.3   101  ALA101      0.1728
     95  C         19.1470   26.7180   -6.4930 C.2   101  ALA101      0.2616
     96  O         20.0310   26.7210   -7.3590 O.2   101  ALA101     -0.2715
     97  CB        19.8970   28.6450   -5.0720 C.3   101  ALA101      0.0334
     98  N         17.9100   26.2760   -6.7400 N.am  102  ALA102     -0.1977
     99  CA        17.4650   25.9090   -8.1000 C.3   102  ALA102      0.1597
    100  C         16.8700   27.1340   -8.7400 C.2   102  ALA102      0.2287
    101  O         15.7290   27.5170   -8.3810 O.2   102  ALA102     -0.2864
    102  CB        16.4070   24.8230   -8.0930 C.3   102  ALA102      0.0319
@<TRIPOS>BOND
     1     1     2    1
     2     2     5    1
     3     2     3    1
     4    11    10   ar
     5    11     9   ar
     6     4     3    2
     7    10     8   ar
     8     9     7   ar
     9     8     6   ar
    10     7     6   ar
    11     6     5    1
    12   100   101    2
    13   100    99    1
    14    99   102    1
    15    99    98    1
    16    96    95    2
    17    20    21    1
    18    98    95   am
    19    95    94    1
    20    21    24    1
    21    21    22    1
    22    91    89    1
    23    26    25    2
    24    24    25    1
    25    94    97    1
    26    94    93    1
    27    90    89    1
    28    90    92    1
    29    22    23    2
    30    93    87   am
    31    25    27   am
    32    89    86    1
    33    87    86    1
    34    87    88    2
    35    86    85    1
    36    76    74   ar
    37    75    74   ar
    38    74    73    1
    39    85    79   am
    40    80    79    2
    41    73    72    1
    42    19    17    1
    43    79    78    1
    44    72    69    1
    45    71    70    2
    46    17    18    1
    47    17    16    1
    48    28    29    1
    49    70    69    1
    50    70    77   am
    51    29    30    1
    52    78    77    1
    53    78    81    1
    54    69    68    1
    55    15    14    2
    56    67    66    1
    57    83    81    1
    58    16    13    1
    59    81    82    1
    60    14    13    1
    61    30    32   am
    62    30    31    2
    63    66    64   ar
    64    66    65   ar
    65    32    33    1
    66    13    12    1
    67    64    62   ar
    68    47    45    1
    69    82    84    1
    70    65    63   ar
    71    35    34    2
    72    33    36    1
    73    33    34    1
    74    36    37    1
    75    34    40   am
    76    62    61   ar
    77    63    61   ar
    78    45    44    1
    79    40    41    1
    80    61    60    1
    81    39    37    1
    82    37    38    1
    83    41    44    1
    84    41    42    1
    85    44    46    1
    86    60    57    1
    87    48    42   am
    88    48    49    1
    89    42    43    2
    90    55    53   ar
    91    58    57    1
    92    58    59    2
    93    57    56    1
    94    52    49    1
    95    52    53    1
    96    49    50    1
    97    53    54   ar
    98    51    50    2
