@<TRIPOS>MOLECULE
tmp/3t71A00.pdb
 90 87 0 0 0
SMALL
GASTEIGER

@<TRIPOS>ATOM
      1  N         22.1920  -17.4310   -4.3880 N.3   305  ILE305     -0.1245
      2  CA        22.8730  -16.1430   -4.6520 C.3   305  ILE305      0.1561
      3  C         24.3750  -16.3580   -4.4920 C.2   305  ILE305      0.2260
      4  O         24.8180  -16.7560   -3.4050 O.2   305  ILE305     -0.2867
      5  CB        22.4530  -15.0060   -3.6550 C.3   305  ILE305      0.0252
      6  CG1       20.9410  -14.8790   -3.5890 C.3   305  ILE305      0.0019
      7  CG2       23.0850  -13.6630   -4.0750 C.3   305  ILE305      0.0019
      8  CD1       20.3250  -14.2830   -4.8400 C.3   305  ILE305      0.0001
      9  N         27.0220  -14.5630   -3.9740 N.3   307  THR307     -0.1203
     10  CA        27.5800  -13.8690   -2.7920 C.3   307  THR307      0.1994
     11  C         27.3260  -14.5550   -1.4670 C.2   307  THR307      0.2617
     12  O         27.9600  -14.2190   -0.5010 O.2   307  THR307     -0.2717
     13  CB        27.0940  -12.4320   -2.6720 C.3   307  THR307      0.1784
     14  OG1       25.6470  -12.3960   -2.7480 O.3   307  THR307     -0.2211
     15  CG2       27.7330  -11.5800   -3.8020 C.3   307  THR307      0.0376
     16  N         26.4180  -15.5280   -1.4230 N.am  308  ASP308     -0.1973
     17  CA        26.1850  -16.3340   -0.2270 C.3   308  ASP308      0.1709
     18  C         27.1370  -17.5020   -0.0670 C.2   308  ASP308      0.2293
     19  O         27.1930  -18.0960    1.0230 O.2   308  ASP308     -0.2864
     20  CB        24.7220  -16.8550   -0.1720 C.3   308  ASP308      0.1436
     21  CG        23.7060  -15.7320    0.0830 C.2   308  ASP308      0.3671
     22  OD1       24.1650  -14.7360    0.7140 O.co2 308  ASP308     -0.2456
     23  OD2       22.5050  -15.8280   -0.3490 O.co2 308  ASP308     -0.2456
     24  N         30.6760  -19.3420    0.5080 N.3   310  HIS310     -0.1241
     25  CA        31.9920  -19.1300    1.0720 C.3   310  HIS310      0.1621
     26  C         32.7940  -20.4310    1.0750 C.2   310  HIS310      0.2264
     27  O         32.2490  -21.5290    1.4020 O.2   310  HIS310     -0.2867
     28  CB        31.9150  -18.4900    2.4680 C.3   310  HIS310      0.0745
     29  CG        31.1360  -17.2170    2.4860 C.ar  310  HIS310      0.0817
     30  ND1       29.7960  -17.1670    2.8160 N.ar  310  HIS310     -0.2268
     31  CD2       31.4900  -15.9530    2.1650 C.ar  310  HIS310      0.1154
     32  CE1       29.3530  -15.9310    2.6710 C.ar  310  HIS310      0.1986
     33  NE2       30.3680  -15.1710    2.2980 N.ar  310  HIS310     -0.2212
     34  N         25.3660   -7.3910   -8.2280 N.3   414  ASN414     -0.1240
     35  CA        25.7240   -6.8980   -6.9080 C.3   414  ASN414      0.1653
     36  C         27.0570   -6.1830   -6.9370 C.2   414  ASN414      0.2266
     37  O         28.1130   -6.8150   -7.1060 O.2   414  ASN414     -0.2867
     38  CB        25.7880   -8.0480   -5.9210 C.3   414  ASN414      0.1155
     39  CG        25.9150   -7.5930   -4.4860 C.2   414  ASN414      0.2627
     40  OD1       26.5880   -6.6230   -4.1520 O.2   414  ASN414     -0.2716
     41  ND2       25.2850   -8.3360   -3.6170 N.am  414  ASN414     -0.0877
     42  N         28.8330   -4.6410   -4.6510 N.3   416  THR416     -0.1203
     43  CA        29.7410   -4.6970   -3.5270 C.3   416  THR416      0.1994
     44  C         30.8580   -5.7390   -3.7550 C.2   416  THR416      0.2619
     45  O         30.5800   -6.8730   -4.1130 O.2   416  THR416     -0.2717
     46  CB        29.0160   -5.0540   -2.2370 C.3   416  THR416      0.1784
     47  OG1       27.9150   -4.1830   -2.0750 O.3   416  THR416     -0.2211
     48  CG2       29.9370   -4.8710   -1.0540 C.3   416  THR416      0.0376
     49  N         32.1060   -5.3700   -3.5100 N.am  417  SER417     -0.1937
     50  CA        33.1880   -6.3440   -3.6150 C.3   417  SER417      0.2055
     51  C         33.3900   -7.1080   -2.3280 C.2   417  SER417      0.2643
     52  O         33.0560   -6.6330   -1.2340 O.2   417  SER417     -0.2714
     53  CB        34.4440   -5.6070   -4.0180 C.3   417  SER417      0.2130
     54  OG        34.0910   -4.2260   -4.1450 O.3   417  SER417     -0.2179
     55  N         33.9200   -8.3150   -2.4340 N.am  418  ASN418     -0.1957
     56  CA        34.1860   -9.0690   -1.2410 C.3   418  ASN418      0.1819
     57  C         35.6460   -9.4420   -1.2550 C.2   418  ASN418      0.2621
     58  O         36.0510  -10.2080   -2.1020 O.2   418  ASN418     -0.2715
     59  CB        33.3060  -10.2950   -1.1740 C.3   418  ASN418      0.1195
     60  CG        33.5120  -11.0970    0.1170 C.2   418  ASN418      0.2630
     61  OD1       34.5170  -10.9490    0.8030 O.2   418  ASN418     -0.2716
     62  ND2       32.5740  -11.9930    0.4130 N.am  418  ASN418     -0.0877
     63  N         36.4350   -8.8650   -0.3370 N.am  419  TYR419     -0.1960
     64  CA        37.8610   -9.1530   -0.2690 C.3   419  TYR419      0.1771
     65  C         38.2110   -9.9660    0.9870 C.2   419  TYR419      0.2620
     66  O         39.3930  -10.2210    1.2350 O.2   419  TYR419     -0.2715
     67  CB        38.7570   -7.9050   -0.3750 C.3   419  TYR419      0.0574
     68  CG        38.4980   -6.9550   -1.5340 C.ar  419  TYR419     -0.0198
     69  CD1       37.8700   -5.7220   -1.3250 C.ar  419  TYR419     -0.0009
     70  CD2       38.9120   -7.2590   -2.8190 C.ar  419  TYR419     -0.0009
     71  CE1       37.6460   -4.8320   -2.3880 C.ar  419  TYR419      0.0417
     72  CE2       38.6700   -6.3940   -3.8810 C.ar  419  TYR419      0.0417
     73  CZ        38.0470   -5.1830   -3.6570 C.ar  419  TYR419      0.1957
     74  OH        37.8130   -4.3340   -4.7250 O.3   419  TYR419     -0.2866
     75  N         37.2050  -10.4050    1.7510 N.am  420  ASP420     -0.1957
     76  CA        37.4740  -11.3290    2.8620 C.3   420  ASP420      0.1840
     77  C         37.3740  -12.7590    2.4070 C.2   420  ASP420      0.2622
     78  O         38.3840  -13.4530    2.3410 O.2   420  ASP420     -0.2715
     79  CB        36.4830  -11.1910    4.0220 C.3   420  ASP420      0.1450
     80  CG        36.3990   -9.7770    4.5750 C.2   420  ASP420      0.3671
     81  OD1       37.2760   -8.9400    4.2690 O.co2 420  ASP420     -0.2456
     82  OD2       35.4230   -9.4850    5.3290 O.co2 420  ASP420     -0.2456
     83  N         36.1350  -13.1850    2.1390 N.am  421  ASP421     -0.1971
     84  CA        35.7860  -14.5990    2.0260 C.3   421  ASP421      0.1709
     85  C         34.9090  -15.0400    0.8460 C.2   421  ASP421      0.2293
     86  O         34.0890  -15.9010    1.0240 O.2   421  ASP421     -0.2864
     87  CB        35.1140  -15.0570    3.3060 C.3   421  ASP421      0.1436
     88  CG        33.7270  -14.4480    3.5150 C.2   421  ASP421      0.3671
     89  OD1       33.2630  -13.5540    2.7680 O.co2 421  ASP421     -0.2456
     90  OD2       33.0680  -14.9090    4.4470 O.co2 421  ASP421     -0.2456
@<TRIPOS>BOND
     1    34    35    1
     2    37    36    2
     3    36    35    1
     4    35    38    1
     5    38    39    1
     6     8     6    1
     7    74    73    1
     8     2     3    1
     9     2     1    1
    10     2     5    1
    11    42    43    1
    12     3     4    2
    13    39    40    2
    14    39    41   am
    15    54    53    1
    16    45    44    2
    17     7     5    1
    18    53    50    1
    19     9    10    1
    20    72    73   ar
    21    72    70   ar
    22    15    13    1
    23    44    43    1
    24    44    49   am
    25    73    71   ar
    26     5     6    1
    27    50    49    1
    28    50    51    1
    29    43    46    1
    30    70    68   ar
    31    10    13    1
    32    10    11    1
    33    14    13    1
    34    55    51   am
    35    55    56    1
    36    71    69   ar
    37    51    52    2
    38    46    47    1
    39    46    48    1
    40    58    57    2
    41    68    69   ar
    42    68    67    1
    43    11    16   am
    44    11    12    2
    45    16    17    1
    46    57    56    1
    47    57    63   am
    48    56    59    1
    49    59    60    1
    50    67    64    1
    51    23    21   ar
    52    63    64    1
    53    64    65    1
    54    17    20    1
    55    17    18    1
    56    20    21    1
    57    18    19    2
    58    21    22   ar
    59    60    62   am
    60    60    61    2
    61    24    25    1
    62    85    86    2
    63    85    84    1
    64    65    66    2
    65    65    75   am
    66    25    26    1
    67    25    28    1
    68    26    27    2
    69    75    76    1
    70    84    83    1
    71    84    87    1
    72    83    77   am
    73    31    33   ar
    74    31    29   ar
    75    33    32   ar
    76    78    77    2
    77    77    76    1
    78    28    29    1
    79    29    30   ar
    80    32    30   ar
    81    89    88   ar
    82    76    79    1
    83    87    88    1
    84    88    90   ar
    85    79    80    1
    86    81    80   ar
    87    80    82   ar
