@<TRIPOS>MOLECULE
tmp/3t71A01.pdb
 85 79 0 0 0
SMALL
GASTEIGER

@<TRIPOS>ATOM
      1  N         39.7900   -1.8890   -5.5790 N.3   323  GLN323     -0.1231
      2  CA        39.9710   -2.1210   -7.0240 C.3   323  GLN323      0.1698
      3  C         41.3110   -1.7080   -7.6470 C.2   323  GLN323      0.2592
      4  O         41.6380   -0.5150   -7.7580 O.2   323  GLN323     -0.2718
      5  CB        38.7850   -1.6270   -7.8770 C.3   323  GLN323      0.0381
      6  CG        37.6750   -1.0080   -7.0950 C.3   323  GLN323      0.0905
      7  CD        36.4110   -0.9440   -7.8930 C.2   323  GLN323      0.2608
      8  OE1       35.3460   -1.4020   -7.4480 O.2   323  GLN323     -0.2717
      9  NE2       36.5030   -0.3650   -9.0860 N.am  323  GLN323     -0.0878
     10  N         42.0590   -2.7030   -8.0930 N.am  324  GLY324     -0.1957
     11  CA        43.4110   -2.4530   -8.5560 C.3   324  GLY324      0.1869
     12  C         44.4110   -2.9230   -7.5300 C.2   324  GLY324      0.2309
     13  O         45.5940   -2.9160   -7.8030 O.2   324  GLY324     -0.2863
     14  N         46.6330   -5.5830  -12.8140 N.3   329  ASN329     -0.1225
     15  CA        45.2040   -5.4630  -12.7540 C.3   329  ASN329      0.1785
     16  C         44.7240   -5.0490  -14.0940 C.2   329  ASN329      0.2597
     17  O         45.2470   -4.1330  -14.6910 O.2   329  ASN329     -0.2718
     18  CB        44.8840   -4.4050  -11.7300 C.3   329  ASN329      0.1169
     19  CG        46.0550   -3.5050  -11.5130 C.2   329  ASN329      0.2627
     20  OD1       45.9430   -2.2750  -11.6190 O.2   329  ASN329     -0.2716
     21  ND2       47.2280   -4.1160  -11.2610 N.am  329  ASN329     -0.0877
     22  N         43.7290   -5.7770  -14.5630 N.am  330  LEU330     -0.1966
     23  CA        43.2400   -5.6480  -15.9050 C.3   330  LEU330      0.1728
     24  C         41.7730   -5.3270  -15.8380 C.2   330  LEU330      0.2616
     25  O         41.0550   -5.6840  -14.8990 O.2   330  LEU330     -0.2715
     26  CB        43.4540   -6.9480  -16.6830 C.3   330  LEU330      0.0311
     27  CG        44.8330   -7.6070  -16.5470 C.3   330  LEU330      0.0022
     28  CD1       44.8100   -8.9660  -17.2010 C.3   330  LEU330      0.0001
     29  CD2       45.9450   -6.7340  -17.1300 C.3   330  LEU330      0.0001
     30  N         41.3420   -4.6310  -16.8690 N.am  331  ASN331     -0.1972
     31  CA        39.9750   -4.3710  -17.0770 C.3   331  ASN331      0.1688
     32  C         39.7740   -4.6460  -18.5180 C.2   331  ASN331      0.2292
     33  O         40.3350   -3.9380  -19.3410 O.2   331  ASN331     -0.2864
     34  CB        39.7380   -2.8980  -16.8520 C.3   331  ASN331      0.1181
     35  CG        38.3470   -2.5270  -17.1150 C.2   331  ASN331      0.2629
     36  OD1       37.6460   -2.0390  -16.2220 O.2   331  ASN331     -0.2716
     37  ND2       37.8830   -2.8080  -18.3340 N.am  331  ASN331     -0.0877
     38  N         44.3040   -9.2730  -11.1880 N.3   385  GLU385     -0.1245
     39  CA        42.9070   -8.9770  -11.0220 C.3   385  GLU385      0.1567
     40  C         42.3130   -8.7810  -12.4010 C.2   385  GLU385      0.2260
     41  O         42.9020   -8.1210  -13.2480 O.2   385  GLU385     -0.2867
     42  CB        42.7200   -7.7500  -10.1450 C.3   385  GLU385      0.0388
     43  CG        41.2820   -7.5560   -9.6900 C.3   385  GLU385      0.1160
     44  CD        41.0100   -6.1960   -9.0550 C.2   385  GLU385      0.3649
     45  OE1       40.7310   -6.2150   -7.8240 O.co2 385  GLU385     -0.2457
     46  OE2       41.0770   -5.1320   -9.7840 O.co2 385  GLU385     -0.2457
     47  N         38.8340   -7.4070  -14.0760 N.3   387  ALA387     -0.1245
     48  CA        37.4860   -6.8860  -14.1700 C.3   387  ALA387      0.1562
     49  C         36.8720   -7.2720  -15.4860 C.2   387  ALA387      0.2260
     50  O         37.5130   -7.1270  -16.5310 O.2   387  ALA387     -0.2867
     51  CB        37.5180   -5.4270  -14.0690 C.3   387  ALA387      0.0290
     52  N         33.4930   -6.2380  -17.0880 N.3   389  PRO389     -0.2116
     53  CA        32.2650   -5.4600  -17.1530 C.3   389  PRO389      0.1372
     54  C         31.3370   -5.8590  -18.2870 C.2   389  PRO389      0.2244
     55  O         31.6900   -5.8010  -19.5020 O.2   389  PRO389     -0.2868
     56  CB        32.7550   -4.0180  -17.3090 C.3   389  PRO389      0.0268
     57  CG        34.2550   -4.0900  -17.5160 C.3   389  PRO389      0.0207
     58  CD        34.7150   -5.4090  -17.0740 C.3   389  PRO389      0.0892
     59  N         26.1110   -2.8640  -16.4920 N.3   434  GLY434     -0.1210
     60  CA        26.3230   -2.1160  -15.2520 C.3   434  GLY434      0.1956
     61  C         27.1500   -2.9170  -14.2830 C.2   434  GLY434      0.2612
     62  O         27.7450   -2.3600  -13.3380 O.2   434  GLY434     -0.2717
     63  N         27.2040   -4.2320  -14.4840 N.am  435  ASP435     -0.1959
     64  CA        27.8930   -5.0930  -13.4990 C.3   435  ASP435      0.1840
     65  C         29.4010   -4.9640  -13.6470 C.2   435  ASP435      0.2622
     66  O         29.9220   -4.5470  -14.6890 O.2   435  ASP435     -0.2715
     67  CB        27.4430   -6.5680  -13.5890 C.3   435  ASP435      0.1450
     68  CG        26.0780   -6.8050  -12.9550 C.2   435  ASP435      0.3671
     69  OD1       25.5350   -5.8280  -12.4050 O.co2 435  ASP435     -0.2456
     70  OD2       25.5290   -7.9540  -12.9930 O.co2 435  ASP435     -0.2456
     71  N         30.1070   -5.3380  -12.6080 N.am  436  ASN436     -0.1972
     72  CA        31.5090   -5.3280  -12.7390 C.3   436  ASN436      0.1688
     73  C         32.1310   -6.5290  -12.0520 C.2   436  ASN436      0.2292
     74  O         32.9060   -6.3950  -11.1290 O.2   436  ASN436     -0.2864
     75  CB        32.0540   -4.0020  -12.2450 C.3   436  ASN436      0.1181
     76  CG        33.4000   -3.6950  -12.8180 C.2   436  ASN436      0.2629
     77  OD1       33.8500   -4.3170  -13.8150 O.2   436  ASN436     -0.2716
     78  ND2       34.0980   -2.7610  -12.1690 N.am  436  ASN436     -0.0877
     79  N         34.3430   -9.3430  -10.9710 N.3   438  THR438     -0.1218
     80  CA        35.7860   -9.1860  -10.8980 C.3   438  THR438      0.1862
     81  C         36.4090  -10.4070  -10.2620 C.2   438  THR438      0.2287
     82  O         35.8820  -10.9180   -9.2680 O.2   438  THR438     -0.2866
     83  CB        36.1590   -7.8650  -10.1420 C.3   438  THR438      0.1770
     84  OG1       35.6310   -6.7530  -10.8830 O.3   438  THR438     -0.2211
     85  CG2       37.6570   -7.6980  -10.0590 C.3   438  THR438      0.0375
@<TRIPOS>BOND
     1    55    54    2
     2    33    32    2
     3    32    31    1
     4    37    35   am
     5    54    53    1
     6    57    56    1
     7    57    58    1
     8    56    53    1
     9    28    27    1
    10    53    52    1
    11    29    27    1
    12    35    34    1
    13    35    36    2
    14    52    58    1
    15    31    30    1
    16    31    34    1
    17    30    24   am
    18    26    27    1
    19    26    23    1
    20    50    49    2
    21    59    60    1
    22    23    24    1
    23    23    22    1
    24    24    25    2
    25    49    48    1
    26    60    61    1
    27    17    16    2
    28    66    65    2
    29    22    16   am
    30    63    61   am
    31    63    64    1
    32    61    62    2
    33    48    47    1
    34    48    51    1
    35    16    15    1
    36    77    76    2
    37    65    64    1
    38    65    71   am
    39    67    64    1
    40    67    68    1
    41    41    40    2
    42    70    68   ar
    43    68    69   ar
    44    76    75    1
    45    76    78   am
    46    14    15    1
    47    15    18    1
    48    72    71    1
    49    72    75    1
    50    72    73    1
    51    40    39    1
    52    73    74    2
    53    18    19    1
    54    20    19    2
    55    19    21   am
    56    38    39    1
    57    39    42    1
    58    79    80    1
    59    80    81    1
    60    80    83    1
    61    84    83    1
    62    81    82    2
    63    42    43    1
    64    83    85    1
    65    46    44   ar
    66    43    44    1
    67     9     7   am
    68    44    45   ar
    69    11    10    1
    70    11    12    1
    71    10     3   am
    72     7     8    2
    73     7     6    1
    74     5     6    1
    75     5     2    1
    76    13    12    2
    77     4     3    2
    78     3     2    1
    79     2     1    1
