@<TRIPOS>MOLECULE
tmp/3t73A00.pdb
 155 152 0 0 0
SMALL
GASTEIGER

@<TRIPOS>ATOM
      1  N         13.3640  -44.0080   -0.0790 N.3   112  ASN112     -0.1225
      2  CA        13.1750  -43.0070    0.9610 C.3   112  ASN112      0.1785
      3  C         14.3190  -42.0140    0.9510 C.2   112  ASN112      0.2597
      4  O         15.2870  -42.1590    0.1910 O.2   112  ASN112     -0.2718
      5  CB        13.0880  -43.7000    2.3290 C.3   112  ASN112      0.1169
      6  CG        12.0490  -43.0780    3.2620 C.2   112  ASN112      0.2627
      7  OD1       11.6470  -41.9220    3.1150 O.2   112  ASN112     -0.2716
      8  ND2       11.5980  -43.8720    4.2310 N.am  112  ASN112     -0.0877
      9  N         14.1860  -40.9940    1.7910 N.am  113  ALA113     -0.1966
     10  CA        15.2340  -40.0140    2.0210 C.3   113  ALA113      0.1728
     11  C         15.0620  -39.5900    3.4670 C.2   113  ALA113      0.2616
     12  O         13.9790  -39.7500    4.0350 O.2   113  ALA113     -0.2715
     13  CB        15.0750  -38.8260    1.0670 C.3   113  ALA113      0.0334
     14  N         16.1210  -39.0720    4.0810 N.am  114  PHE114     -0.1960
     15  CA        16.0280  -38.7040    5.4890 C.3   114  PHE114      0.1771
     16  C         17.1090  -37.7330    5.9200 C.2   114  PHE114      0.2619
     17  O         18.0860  -37.5050    5.1960 O.2   114  PHE114     -0.2715
     18  CB        16.0030  -39.9500    6.4100 C.3   114  PHE114      0.0574
     19  CG        17.2140  -40.8640    6.2920 C.ar  114  PHE114     -0.0200
     20  CD1       17.2840  -41.8320    5.2920 C.ar  114  PHE114     -0.0042
     21  CD2       18.2440  -40.7900    7.2160 C.ar  114  PHE114     -0.0042
     22  CE1       18.3770  -42.6900    5.1960 C.ar  114  PHE114     -0.0003
     23  CE2       19.3500  -41.6370    7.1220 C.ar  114  PHE114     -0.0003
     24  CZ        19.4060  -42.5990    6.1130 C.ar  114  PHE114     -0.0000
     25  N         16.8940  -37.1250    7.0830 N.am  115  TRP115     -0.1974
     26  CA        17.9210  -36.3580    7.7700 C.3   115  TRP115      0.1640
     27  C         18.4060  -37.2540    8.9040 C.2   115  TRP115      0.2290
     28  O         17.6070  -37.6890    9.7190 O.2   115  TRP115     -0.2864
     29  CB        17.3060  -35.0610    8.3140 C.3   115  TRP115      0.0576
     30  CG        18.2040  -34.3040    9.2390 C.ar  115  TRP115      0.0006
     31  CD1       18.1630  -34.3230   10.6000 C.ar  115  TRP115      0.0946
     32  CD2       19.2710  -33.4140    8.8780 C.ar  115  TRP115      0.0152
     33  NE1       19.1420  -33.5040   11.1170 N.ar  115  TRP115     -0.2442
     34  CE2       19.8340  -32.9310   10.0800 C.ar  115  TRP115      0.0810
     35  CE3       19.7980  -32.9710    7.6570 C.ar  115  TRP115      0.0012
     36  CZ2       20.9100  -32.0330   10.0990 C.ar  115  TRP115      0.0191
     37  CZ3       20.8640  -32.0740    7.6760 C.ar  115  TRP115      0.0001
     38  CH2       21.4110  -31.6210    8.8900 C.ar  115  TRP115      0.0015
     39  N          9.7550  -45.2610   -6.5320 N.3   130  PHE130     -0.1241
     40  CA        10.4240  -43.9630   -6.6490 C.3   130  PHE130      0.1605
     41  C         11.5180  -44.0020   -7.6930 C.2   130  PHE130      0.2264
     42  O         12.1290  -45.0540   -7.9140 O.2   130  PHE130     -0.2867
     43  CB        11.1080  -43.5770   -5.3330 C.3   130  PHE130      0.0534
     44  CG        10.1940  -42.9930   -4.2990 C.ar  130  PHE130     -0.0203
     45  CD1        9.8000  -41.6640   -4.3750 C.ar  130  PHE130     -0.0042
     46  CD2        9.7700  -43.7590   -3.2200 C.ar  130  PHE130     -0.0042
     47  CE1        8.9750  -41.1170   -3.4040 C.ar  130  PHE130     -0.0003
     48  CE2        8.9460  -43.2130   -2.2470 C.ar  130  PHE130     -0.0003
     49  CZ         8.5540  -41.8900   -2.3450 C.ar  130  PHE130     -0.0000
     50  N         15.3280  -39.6820   -5.2450 N.3   133  LEU133     -0.1245
     51  CA        14.3780  -38.8260   -4.5340 C.3   133  LEU133      0.1561
     52  C         14.7630  -37.3570   -4.5200 C.2   133  LEU133      0.2260
     53  O         13.9030  -36.5000   -4.3200 O.2   133  LEU133     -0.2867
     54  CB        14.0960  -39.3440   -3.1170 C.3   133  LEU133      0.0270
     55  CG        13.1450  -40.5550   -3.0850 C.3   133  LEU133      0.0019
     56  CD1       13.8560  -41.8760   -3.3630 C.3   133  LEU133      0.0001
     57  CD2       12.4220  -40.6030   -1.7530 C.3   133  LEU133      0.0001
     58  N         10.7960  -32.6720   -1.7930 N.3   139  VAL139     -0.1245
     59  CA        11.4800  -33.6850   -0.9950 C.3   139  VAL139      0.1561
     60  C         12.7620  -33.1150   -0.3790 C.2   139  VAL139      0.2260
     61  O         13.0070  -33.2580    0.8340 O.2   139  VAL139     -0.2867
     62  CB        11.8320  -34.9280   -1.8360 C.3   139  VAL139      0.0252
     63  CG1       12.6450  -35.9060   -1.0030 C.3   139  VAL139      0.0019
     64  CG2       10.5600  -35.5770   -2.3740 C.3   139  VAL139      0.0019
     65  N         11.8000  -30.7150    2.2560 N.3   142  HIS142     -0.1226
     66  CA        11.2350  -31.4910    3.3630 C.3   142  HIS142      0.1752
     67  C         12.3800  -31.9830    4.2580 C.2   142  HIS142      0.2595
     68  O         12.3310  -31.8310    5.4770 O.2   142  HIS142     -0.2718
     69  CB        10.4140  -32.6720    2.8090 C.3   142  HIS142      0.0759
     70  CG         9.8460  -33.5900    3.8590 C.ar  142  HIS142      0.0818
     71  ND1        8.4920  -33.6950    4.1060 N.ar  142  HIS142     -0.2268
     72  CD2       10.4480  -34.4740    4.6900 C.ar  142  HIS142      0.1154
     73  CE1        8.2880  -34.5850    5.0620 C.ar  142  HIS142      0.1986
     74  NE2        9.4590  -35.0730    5.4360 N.ar  142  HIS142     -0.2212
     75  N         13.4170  -32.5470    3.6470 N.am  143  GLU143     -0.1979
     76  CA        14.5310  -33.0730    4.4330 C.3   143  GLU143      0.1602
     77  C         15.3100  -31.9680    5.1490 C.2   143  GLU143      0.2287
     78  O         15.6280  -32.1010    6.3310 O.2   143  GLU143     -0.2864
     79  CB        15.4890  -33.9110    3.5770 C.3   143  GLU143      0.0415
     80  CG        14.8300  -35.0390    2.7620 C.3   143  GLU143      0.1163
     81  CD        13.9280  -35.9590    3.5860 C.2   143  GLU143      0.3649
     82  OE1       14.1220  -36.0770    4.8110 O.co2 143  GLU143     -0.2457
     83  OE2       13.0230  -36.5680    2.9840 O.co2 143  GLU143     -0.2457
     84  N         13.6200  -30.7550    8.2440 N.3   146  HIS146     -0.1241
     85  CA        13.7960  -31.5600    9.4540 C.3   146  HIS146      0.1621
     86  C         14.9650  -31.0180   10.2820 C.2   146  HIS146      0.2264
     87  O         14.9060  -31.0090   11.5060 O.2   146  HIS146     -0.2867
     88  CB        14.0330  -33.0380    9.1220 C.3   146  HIS146      0.0745
     89  CG        12.7790  -33.8170    8.8760 C.ar  146  HIS146      0.0817
     90  ND1       11.7320  -33.8410    9.7740 N.ar  146  HIS146     -0.2268
     91  CD2       12.4090  -34.6160    7.8450 C.ar  146  HIS146      0.1154
     92  CE1       10.7630  -34.6050    9.2980 C.ar  146  HIS146      0.1986
     93  NE2       11.1570  -35.1060    8.1400 N.ar  146  HIS146     -0.2212
     94  N         10.0890  -37.0740   17.4920 N.3   157  TYR157     -0.1241
     95  CA         9.5740  -37.7760   16.3080 C.3   157  TYR157      0.1605
     96  C          8.6550  -38.9490   16.6170 C.2   157  TYR157      0.2264
     97  O          8.8960  -40.0780   16.1810 O.2   157  TYR157     -0.2867
     98  CB        10.7370  -38.2420   15.4250 C.3   157  TYR157      0.0534
     99  CG        10.4060  -38.4080   13.9550 C.ar  157  TYR157     -0.0201
    100  CD1        9.9650  -37.3320   13.1960 C.ar  157  TYR157     -0.0009
    101  CD2       10.5700  -39.6320   13.3210 C.ar  157  TYR157     -0.0009
    102  CE1        9.6910  -37.4670   11.8370 C.ar  157  TYR157      0.0417
    103  CE2       10.2980  -39.7830   11.9650 C.ar  157  TYR157      0.0417
    104  CZ         9.8580  -38.6990   11.2290 C.ar  157  TYR157      0.1957
    105  OH         9.5770  -38.8530    9.8810 O.3   157  TYR157     -0.2866
    106  N          6.5070  -33.7600   10.9570 N.3   166  GLU166     -0.1245
    107  CA         6.2690  -34.1420    9.5660 C.3   166  GLU166      0.1567
    108  C          5.5330  -33.0680    8.7620 C.2   166  GLU166      0.2260
    109  O          5.9300  -32.7520    7.6370 O.2   166  GLU166     -0.2867
    110  CB         5.5180  -35.4720    9.4910 C.3   166  GLU166      0.0388
    111  CG         6.4700  -36.6530    9.4910 C.3   166  GLU166      0.1160
    112  CD         7.4280  -36.5790    8.3260 C.2   166  GLU166      0.3649
    113  OE1        6.9570  -36.4050    7.1890 O.co2 166  GLU166     -0.2457
    114  OE2        8.6460  -36.6650    8.5450 O.co2 166  GLU166     -0.2457
    115  N          2.8860  -33.9200   -2.3090 N.3   188  ILE188     -0.1231
    116  CA         4.2440  -34.2060   -1.8450 C.3   188  ILE188      0.1692
    117  C          4.8660  -35.3360   -2.6490 C.2   188  ILE188      0.2592
    118  O          4.3340  -36.4550   -2.6830 O.2   188  ILE188     -0.2718
    119  CB         4.2650  -34.6240   -0.3660 C.3   188  ILE188      0.0266
    120  CG1        3.5890  -33.5610    0.5080 C.3   188  ILE188      0.0019
    121  CG2        5.7120  -34.9620    0.0820 C.3   188  ILE188      0.0020
    122  CD1        4.3000  -32.2120    0.5290 C.3   188  ILE188      0.0001
    123  N          5.9840  -35.0390   -3.3090 N.am  189  GLY189     -0.1957
    124  CA         6.8040  -36.0610   -3.9370 C.3   189  GLY189      0.1869
    125  C          6.3850  -36.4670   -5.3380 C.2   189  GLY189      0.2309
    126  O          6.9320  -37.4250   -5.8990 O.2   189  GLY189     -0.2863
    127  N          2.9090  -39.0290   -3.0660 N.3   202  LEU202     -0.1231
    128  CA         3.0490  -39.7990   -1.8380 C.3   202  LEU202      0.1693
    129  C          2.0270  -39.3400   -0.7990 C.2   202  LEU202      0.2591
    130  O          1.4450  -40.1650   -0.0900 O.2   202  LEU202     -0.2718
    131  CB         4.4630  -39.6380   -1.2890 C.3   202  LEU202      0.0284
    132  CG         4.7870  -40.4320   -0.0240 C.3   202  LEU202      0.0019
    133  CD1        4.7330  -41.9310   -0.2860 C.3   202  LEU202      0.0001
    134  CD2        6.1580  -40.0230    0.4980 C.3   202  LEU202      0.0001
    135  N          1.8360  -38.0250   -0.7000 N.am  203  ARG203     -0.1980
    136  CA         0.8090  -37.4460    0.1660 C.3   203  ARG203      0.1597
    137  C          0.1810  -36.2660   -0.5400 C.2   203  ARG203      0.2287
    138  O          0.7640  -35.7050   -1.4720 O.2   203  ARG203     -0.2864
    139  CB         1.4200  -36.9190    1.4650 C.3   203  ARG203      0.0334
    140  CG         1.8700  -37.9900    2.4290 C.3   203  ARG203      0.0492
    141  CD         2.4060  -37.3670    3.7170 C.3   203  ARG203      0.2205
    142  NE         3.7000  -36.6860    3.5840 N.pl3 203  ARG203     -0.0865
    143  CZ         4.8770  -37.3050    3.5820 C.cat 203  ARG203      0.5346
    144  NH1        4.9320  -38.6310    3.6390 N.pl3 203  ARG203      0.1354
    145  NH2        6.0030  -36.5900    3.5060 N.pl3 203  ARG203      0.1354
    146  N          3.7000  -39.8810    9.6710 N.3   231  HIS231     -0.1241
    147  CA         3.4780  -39.5670    8.2580 C.3   231  HIS231      0.1621
    148  C          2.0180  -39.7020    7.8760 C.2   231  HIS231      0.2264
    149  O          1.6520  -39.4930    6.7150 O.2   231  HIS231     -0.2867
    150  CB         4.2930  -40.4930    7.3400 C.3   231  HIS231      0.0745
    151  CG         5.7730  -40.3230    7.4610 C.ar  231  HIS231      0.0817
    152  ND1        6.5520  -41.1300    8.2640 N.ar  231  HIS231     -0.2268
    153  CD2        6.6210  -39.4440    6.8710 C.ar  231  HIS231      0.1154
    154  CE1        7.8150  -40.7440    8.1730 C.ar  231  HIS231      0.1986
    155  NE2        7.8830  -39.7220    7.3360 N.ar  231  HIS231     -0.2212
@<TRIPOS>BOND
     1    42    41    2
     2    41    40    1
     3    40    39    1
     4    40    43    1
     5   126   125    2
     6   125   124    1
     7    43    44    1
     8    50    51    1
     9    51    52    1
    10    51    54    1
    11    52    53    2
    12    45    44   ar
    13    45    47   ar
    14    44    46   ar
    15   124   123    1
    16    47    49   ar
    17    56    55    1
    18   123   117   am
    19    46    48   ar
    20    54    55    1
    21    55    57    1
    22   127   128    1
    23   118   117    2
    24   117   116    1
    25    64    62    1
    26    49    48   ar
    27   115   116    1
    28   116   119    1
    29   128   131    1
    30   128   129    1
    31    62    63    1
    32    62    59    1
    33    58    59    1
    34   138   137    2
    35   131   132    1
    36    59    60    1
    37   129   135   am
    38   129   130    2
    39   135   136    1
    40   137   136    1
    41    60    61    2
    42   119   121    1
    43   119   120    1
    44   133   132    1
    45     1     2    1
    46   132   134    1
    47   136   139    1
    48     4     3    2
    49   120   122    1
    50     3     2    1
    51     3     9   am
    52     2     5    1
    53    13    10    1
    54   139   140    1
    55     9    10    1
    56    10    11    1
    57    65    66    1
    58     5     6    1
    59   140   141    1
    60    80    79    1
    61    80    81    1
    62    69    66    1
    63    69    70    1
    64    83    81   ar
    65     7     6    2
    66     6     8   am
    67    66    67    1
    68    11    12    2
    69    11    14   am
    70   145   143    1
    71    79    76    1
    72   143   142    2
    73   143   144    1
    74   142   141    1
    75    81    82   ar
    76    75    67   am
    77    75    76    1
    78    70    71   ar
    79    70    72   ar
    80    14    15    1
    81    71    73   ar
    82    67    68    2
    83    76    77    1
    84    72    74   ar
    85    73    74   ar
    86    77    78    2
    87    17    16    2
    88    22    20   ar
    89    22    24   ar
    90    20    19   ar
    91    15    16    1
    92    15    18    1
    93    16    25   am
    94    24    23   ar
    95    19    18    1
    96    19    21   ar
    97   149   148    2
    98   153   155   ar
    99   153   151   ar
   100    25    26    1
   101    23    21   ar
   102   113   112   ar
   103   155   154   ar
   104   150   151    1
   105   150   147    1
   106   151   152   ar
   107   109   108    2
   108    35    37   ar
   109    35    32   ar
   110    37    38   ar
   111    26    29    1
   112    26    27    1
   113    91    93   ar
   114    91    89   ar
   115   148   147    1
   116    93    92   ar
   117   154   152   ar
   118    84    85    1
   119   147   146    1
   120    29    30    1
   121   112   114   ar
   122   112   111    1
   123   108   107    1
   124    89    88    1
   125    89    90   ar
   126    32    30   ar
   127    32    34   ar
   128    38    36   ar
   129    27    28    2
   130    88    85    1
   131    30    31   ar
   132    92    90   ar
   133    85    86    1
   134   110   111    1
   135   110   107    1
   136   107   106    1
   137   105   104    1
   138    34    36   ar
   139    34    33   ar
   140    86    87    2
   141    31    33   ar
   142   104   102   ar
   143   104   103   ar
   144   102   100   ar
   145   103   101   ar
   146   100    99   ar
   147   101    99   ar
   148    99    98    1
   149    98    95    1
   150    97    96    2
   151    95    96    1
   152    95    94    1
