@<TRIPOS>MOLECULE
tmp/3t78A01.pdb
 104 97 0 0 0
SMALL
GASTEIGER

@<TRIPOS>ATOM
      1  N         -8.9020    9.2240   -4.9390 N.3    53  GLU53      -0.1245
      2  CA        -9.0240    8.9990   -6.3750 C.3    53  GLU53       0.1567
      3  C         -9.5010   10.1990   -7.1840 C.2    53  GLU53       0.2260
      4  O        -10.3980   10.9340   -6.7730 O.2    53  GLU53      -0.2867
      5  CB        -9.9390    7.8000   -6.6250 C.3    53  GLU53       0.0388
      6  CG       -10.1350    7.4510   -8.0910 C.3    53  GLU53       0.1160
      7  CD       -10.7380    6.0730   -8.2530 C.2    53  GLU53       0.3649
      8  OE1      -11.9780    5.9830   -8.3660 O.co2  53  GLU53      -0.2457
      9  OE2       -9.9760    5.0820   -8.2350 O.co2  53  GLU53      -0.2457
     10  N        -11.4230   11.0370  -10.4090 N.3    55  LYS55      -0.1245
     11  CA       -12.4350   10.3870  -11.2330 C.3    55  LYS55       0.1561
     12  C        -13.5260   11.3970  -11.5540 C.2    55  LYS55       0.2260
     13  O        -14.1450   11.9530  -10.6410 O.2    55  LYS55      -0.2867
     14  CB       -13.0430    9.2020  -10.4800 C.3    55  LYS55       0.0271
     15  CG       -14.1780    8.5100  -11.2220 C.3    55  LYS55       0.0035
     16  CD       -14.5570    7.1860  -10.5710 C.3    55  LYS55       0.0206
     17  CE       -14.9930    7.3620   -9.1140 C.3    55  LYS55       0.1093
     18  NZ       -15.4430    6.0390   -8.5690 N.3    55  LYS55      -0.1314
     19  N         -5.7110    3.6410  -12.4830 N.3   115  LYS115     -0.1245
     20  CA        -6.9800    2.9390  -12.3440 C.3   115  LYS115      0.1561
     21  C         -7.6350    2.8560  -13.7200 C.2   115  LYS115      0.2260
     22  O         -8.1360    3.8440  -14.2520 O.2   115  LYS115     -0.2867
     23  CB        -7.8760    3.6870  -11.3510 C.3   115  LYS115      0.0271
     24  CG        -9.0600    2.8930  -10.8140 C.3   115  LYS115      0.0035
     25  CD        -8.7230    2.2150   -9.4960 C.3   115  LYS115      0.0206
     26  CE        -9.9620    1.6010   -8.8470 C.3   115  LYS115      0.1093
     27  NZ       -11.0610    2.5960   -8.6730 N.3   115  LYS115     -0.1314
     28  N        -13.7680   -4.8790   -4.3720 N.3   185  ASN185     -0.1240
     29  CA       -14.7560   -3.9650   -4.9090 C.3   185  ASN185      0.1653
     30  C        -16.1380   -4.4860   -4.5650 C.2   185  ASN185      0.2266
     31  O        -16.5120   -5.5830   -4.9730 O.2   185  ASN185     -0.2867
     32  CB       -14.6020   -3.8140   -6.4170 C.3   185  ASN185      0.1155
     33  CG       -15.3430   -2.6090   -6.9510 C.2   185  ASN185      0.2627
     34  OD1      -16.1540   -2.0050   -6.2460 O.2   185  ASN185     -0.2716
     35  ND2      -15.0660   -2.2460   -8.1970 N.am  185  ASN185     -0.0877
     36  N        -18.7960   -3.3990   -5.6630 N.3   187  ARG187     -0.1245
     37  CA       -19.6250   -3.3390   -6.8550 C.3   187  ARG187      0.1563
     38  C        -19.3530   -4.5270   -7.7730 C.2   187  ARG187      0.2260
     39  O        -18.2000   -4.8770   -8.0250 O.2   187  ARG187     -0.2867
     40  CB       -19.3770   -2.0280   -7.6070 C.3   187  ARG187      0.0307
     41  CG       -20.4630   -1.6740   -8.6070 C.3   187  ARG187      0.0489
     42  CD       -20.1700   -0.3490   -9.2930 C.3   187  ARG187      0.2205
     43  NE       -19.6380    0.6410   -8.3600 N.pl3 187  ARG187     -0.0865
     44  CZ       -20.3690    1.5530   -7.7270 C.cat 187  ARG187      0.5346
     45  NH1      -21.6790    1.6120   -7.9200 N.pl3 187  ARG187      0.1354
     46  NH2      -19.7860    2.4100   -6.8990 N.pl3 187  ARG187      0.1354
     47  N        -12.2080   -1.1140   -1.6390 N.3   213  GLU213     -0.1231
     48  CA       -12.1600   -0.2460   -2.8200 C.3   213  GLU213      0.1699
     49  C        -13.3640    0.6510   -3.0790 C.2   213  GLU213      0.2593
     50  O        -13.3300    1.4760   -3.9970 O.2   213  GLU213     -0.2718
     51  CB       -11.9130   -1.0750   -4.0760 C.3   213  GLU213      0.0402
     52  CG       -10.4950   -1.5410   -4.2400 C.3   213  GLU213      0.1161
     53  CD       -10.2820   -2.2200   -5.5700 C.2   213  GLU213      0.3649
     54  OE1      -10.4480   -1.5520   -6.6110 O.co2 213  GLU213     -0.2457
     55  OE2       -9.9560   -3.4210   -5.5750 O.co2 213  GLU213     -0.2457
     56  N        -14.4290    0.4940   -2.3090 N.am  214  SER214     -0.1938
     57  CA       -15.6310    1.2690   -2.5890 C.3   214  SER214      0.2055
     58  C        -16.5040    1.4990   -1.3650 C.2   214  SER214      0.2644
     59  O        -16.3050    0.8800   -0.3250 O.2   214  SER214     -0.2714
     60  CB       -16.4520    0.5910   -3.6880 C.3   214  SER214      0.2130
     61  OG       -16.7740   -0.7400   -3.3250 O.3   214  SER214     -0.2179
     62  N        -17.4590    2.4130   -1.5020 N.am  215  GLY215     -0.1939
     63  CA       -18.4660    2.6330   -0.4810 C.3   215  GLY215      0.2014
     64  C        -18.0610    3.4880    0.7080 C.2   215  GLY215      0.2638
     65  O        -18.7460    3.4770    1.7310 O.2   215  GLY215     -0.2714
     66  N        -16.9640    4.2310    0.5950 N.am  216  VAL216     -0.1977
     67  CA       -16.5230    5.0620    1.7190 C.3   216  VAL216      0.1596
     68  C        -17.1410    6.4560    1.6370 C.2   216  VAL216      0.2287
     69  O        -16.7600    7.2750    0.7980 O.2   216  VAL216     -0.2864
     70  CB       -14.9840    5.1480    1.8080 C.3   216  VAL216      0.0276
     71  CG1      -14.5560    6.0710    2.9470 C.3   216  VAL216      0.0022
     72  CG2      -14.3910    3.7560    2.0000 C.3   216  VAL216      0.0022
     73  N         -9.9330    2.9020   -0.5930 N.3   234  LEU234     -0.1231
     74  CA        -9.9270    3.7650   -1.7660 C.3   234  LEU234      0.1693
     75  C        -11.2010    4.5980   -1.7600 C.2   234  LEU234      0.2592
     76  O        -12.2930    4.0780   -1.5240 O.2   234  LEU234     -0.2718
     77  CB        -9.8160    2.9280   -3.0460 C.3   234  LEU234      0.0284
     78  CG        -9.6000    3.6840   -4.3600 C.3   234  LEU234      0.0019
     79  CD1       -8.8510    2.8110   -5.3590 C.3   234  LEU234      0.0001
     80  CD2      -10.9330    4.1600   -4.9240 C.3   234  LEU234      0.0001
     81  N        -11.0570    5.8970   -1.9970 N.am  235  VAL235     -0.1966
     82  CA       -12.1840    6.8130   -1.9090 C.3   235  VAL235      0.1727
     83  C        -12.1550    7.7580   -3.0980 C.2   235  VAL235      0.2617
     84  O        -11.1490    8.4200   -3.3370 O.2   235  VAL235     -0.2715
     85  CB       -12.1130    7.6450   -0.6220 C.3   235  VAL235      0.0290
     86  CG1      -13.4150    8.4160   -0.4040 C.3   235  VAL235      0.0023
     87  CG2      -11.8000    6.7440    0.5720 C.3   235  VAL235      0.0023
     88  N        -13.2660    7.8170   -3.8290 N.am  236  GLY236     -0.1940
     89  CA       -13.3670    8.6340   -5.0260 C.3   236  GLY236      0.2014
     90  C        -14.5460    9.5900   -5.0050 C.2   236  GLY236      0.2639
     91  O        -14.3690   10.8020   -4.9000 O.2   236  GLY236     -0.2714
     92  N        -15.7560    9.0480   -5.0990 N.am  237  GLU237     -0.1963
     93  CA       -16.9500    9.8830   -5.2310 C.3   237  GLU237      0.1733
     94  C        -17.0220   10.9940   -4.1850 C.2   237  GLU237      0.2616
     95  O        -17.3060   12.1480   -4.5150 O.2   237  GLU237     -0.2715
     96  CB       -18.2180    9.0310   -5.1550 C.3   237  GLU237      0.0429
     97  CG       -18.3860    8.0690   -6.3190 C.3   237  GLU237      0.1163
     98  CD       -19.6700    7.2630   -6.2320 C.2   237  GLU237      0.3649
     99  OE1      -20.3750    7.3560   -5.2030 O.co2 237  GLU237     -0.2457
    100  OE2      -19.9690    6.5260   -7.1930 O.co2 237  GLU237     -0.2457
    101  N        -16.7630   10.6420   -2.9300 N.am  238  GLY238     -0.1955
    102  CA       -16.9180   11.5750   -1.8290 C.3   238  GLY238      0.1869
    103  C        -15.8600   12.6580   -1.8140 C.2   238  GLY238      0.2309
    104  O        -16.0390   13.7100   -1.1970 O.2   238  GLY238     -0.2863
@<TRIPOS>BOND
     1    22    21    2
     2    21    20    1
     3    19    20    1
     4    20    23    1
     5    12    11    1
     6    12    13    2
     7    23    24    1
     8    11    14    1
     9    11    10    1
    10    15    16    1
    11    15    14    1
    12    24    25    1
    13    16    17    1
    14    25    26    1
    15    42    41    1
    16    42    43    1
    17    17    18    1
    18    26    27    1
    19    41    40    1
    20     8     7   ar
    21    43    44    2
    22     7     9   ar
    23     7     6    1
    24    35    33   am
    25     6     5    1
    26    39    38    2
    27    45    44    1
    28    38    37    1
    29    44    46    1
    30    40    37    1
    31   100    98   ar
    32     3     4    2
    33     3     2    1
    34    33    32    1
    35    33    34    2
    36    37    36    1
    37     5     2    1
    38    54    53   ar
    39    32    29    1
    40     2     1    1
    41    97    98    1
    42    97    96    1
    43    98    99   ar
    44    55    53   ar
    45    53    52    1
    46    79    78    1
    47    93    96    1
    48    93    92    1
    49    93    94    1
    50    92    90   am
    51    89    90    1
    52    89    88    1
    53    90    91    2
    54    31    30    2
    55    80    78    1
    56    29    30    1
    57    29    28    1
    58    95    94    2
    59    78    77    1
    60    52    51    1
    61    94   101   am
    62    51    48    1
    63    50    49    2
    64    88    83   am
    65    60    61    1
    66    60    57    1
    67    84    83    2
    68    83    82    1
    69    49    48    1
    70    49    56   am
    71    77    74    1
    72   101   102    1
    73    48    47    1
    74    57    56    1
    75    57    58    1
    76    81    82    1
    77    81    75   am
    78    82    85    1
    79   102   103    1
    80   103   104    2
    81    74    75    1
    82    74    73    1
    83    75    76    2
    84    62    58   am
    85    62    63    1
    86    58    59    2
    87    85    86    1
    88    85    87    1
    89    63    64    1
    90    66    64   am
    91    66    67    1
    92    64    65    2
    93    69    68    2
    94    68    67    1
    95    67    70    1
    96    70    72    1
    97    70    71    1
