@<TRIPOS>MOLECULE
tmp/3t78A00.pdb
 149 137 0 0 0
SMALL
GASTEIGER

@<TRIPOS>ATOM
      1  N        -21.9190   -5.3770  -18.4630 N.3     2  VAL2       -0.1231
      2  CA       -21.4530   -3.9970  -18.4080 C.3     2  VAL2        0.1692
      3  C        -19.9310   -3.9590  -18.5240 C.2     2  VAL2        0.2591
      4  O        -19.3690   -3.1420  -19.2580 O.2     2  VAL2       -0.2718
      5  CB       -21.8810   -3.3050  -17.0980 C.3     2  VAL2        0.0266
      6  CG1      -21.1790   -1.9650  -16.9480 C.3     2  VAL2        0.0020
      7  CG2      -23.3940   -3.1260  -17.0590 C.3     2  VAL2        0.0020
      8  N        -19.2690   -4.8560  -17.8010 N.am    3  LEU3       -0.1980
      9  CA       -17.8160   -4.9550  -17.8560 C.3     3  LEU3        0.1596
     10  C        -17.3530   -5.2950  -19.2710 C.2     3  LEU3        0.2287
     11  O        -16.3730   -4.7330  -19.7600 O.2     3  LEU3       -0.2864
     12  CB       -17.3120   -6.0020  -16.8620 C.3     3  LEU3        0.0297
     13  CG       -15.8000   -6.2140  -16.7890 C.3     3  LEU3        0.0022
     14  CD1      -15.1010   -4.9030  -16.4680 C.3     3  LEU3        0.0001
     15  CD2      -15.4580   -7.2790  -15.7550 C.3     3  LEU3        0.0001
     16  N        -17.3390   -2.2940  -21.4850 N.3     6  ILE6       -0.1245
     17  CA       -16.2110   -1.4310  -21.1520 C.3     6  ILE6        0.1561
     18  C        -14.9170   -1.9640  -21.7700 C.2     6  ILE6        0.2260
     19  O        -14.1530   -1.2120  -22.3770 O.2     6  ILE6       -0.2867
     20  CB       -16.0410   -1.2820  -19.6260 C.3     6  ILE6        0.0252
     21  CG1      -17.2680   -0.5960  -19.0190 C.3     6  ILE6        0.0019
     22  CG2      -14.7880   -0.4890  -19.3010 C.3     6  ILE6        0.0019
     23  CD1      -17.1920   -0.4300  -17.5100 C.3     6  ILE6        0.0001
     24  N        -11.4230   11.0370  -10.4090 N.3    55  LYS55      -0.1245
     25  CA       -12.4350   10.3870  -11.2330 C.3    55  LYS55       0.1561
     26  C        -13.5260   11.3970  -11.5540 C.2    55  LYS55       0.2260
     27  O        -14.1450   11.9530  -10.6410 O.2    55  LYS55      -0.2867
     28  CB       -13.0430    9.2020  -10.4800 C.3    55  LYS55       0.0271
     29  CG       -14.1780    8.5100  -11.2220 C.3    55  LYS55       0.0035
     30  CD       -14.5570    7.1860  -10.5710 C.3    55  LYS55       0.0206
     31  CE       -14.9930    7.3620   -9.1140 C.3    55  LYS55       0.1093
     32  NZ       -15.4430    6.0390   -8.5690 N.3    55  LYS55      -0.1314
     33  N        -18.5970    7.9990  -13.8160 N.3    58  SER58      -0.1203
     34  CA       -18.5800    6.5420  -13.8080 C.3    58  SER58       0.2005
     35  C        -19.8900    6.0100  -14.3650 C.2    58  SER58       0.2461
     36  O        -20.8720    6.7420  -14.4400 O.2    58  SER58      -0.2732
     37  CB       -18.3600    6.0280  -12.3890 C.3    58  SER58       0.2103
     38  OG       -19.4940    6.2950  -11.5820 O.3    58  SER58      -0.2182
     39  N        -19.9070    4.7340  -14.7750 N.am   59  PRO59      -0.2717
     40  CA       -21.1510    4.1580  -15.2940 C.3    59  PRO59       0.1535
     41  C        -22.3030    4.2930  -14.3010 C.2    59  PRO59       0.2599
     42  O        -23.4230    4.5990  -14.7050 O.2    59  PRO59      -0.2715
     43  CB       -20.7920    2.6840  -15.4920 C.3    59  PRO59       0.0310
     44  CG       -19.3270    2.6960  -15.7640 C.3    59  PRO59       0.0237
     45  CD       -18.7680    3.8090  -14.9090 C.3    59  PRO59       0.0939
     46  N        -22.0260    4.0810  -13.0190 N.am   60  SER60      -0.1950
     47  CA       -23.0790    4.0780  -12.0090 C.3    60  SER60       0.1924
     48  C        -23.4870    5.4840  -11.5860 C.2    60  SER60       0.2314
     49  O        -24.6600    5.7430  -11.3170 O.2    60  SER60      -0.2863
     50  CB       -22.6520    3.2670  -10.7810 C.3    60  SER60       0.2116
     51  OG       -21.7080    3.9800  -10.0000 O.3    60  SER60      -0.2180
     52  N        -15.5480    6.8730  -17.8660 N.3    94  PHE94      -0.1241
     53  CA       -15.0860    7.6130  -16.6960 C.3    94  PHE94       0.1605
     54  C        -14.5200    8.9980  -17.0330 C.2    94  PHE94       0.2264
     55  O        -14.1690    9.7650  -16.1360 O.2    94  PHE94      -0.2867
     56  CB       -14.0320    6.8020  -15.9380 C.3    94  PHE94       0.0534
     57  CG       -14.5550    5.5250  -15.3530 C.ar   94  PHE94      -0.0203
     58  CD1      -14.7000    4.3940  -16.1430 C.ar   94  PHE94      -0.0042
     59  CD2      -14.8980    5.4490  -14.0140 C.ar   94  PHE94      -0.0042
     60  CE1      -15.1790    3.2170  -15.6030 C.ar   94  PHE94      -0.0003
     61  CE2      -15.3830    4.2720  -13.4730 C.ar   94  PHE94      -0.0003
     62  CZ       -15.5190    3.1560  -14.2700 C.ar   94  PHE94      -0.0000
     63  N         -5.7110    3.6410  -12.4830 N.3   115  LYS115     -0.1245
     64  CA        -6.9800    2.9390  -12.3440 C.3   115  LYS115      0.1561
     65  C         -7.6350    2.8560  -13.7200 C.2   115  LYS115      0.2260
     66  O         -8.1360    3.8440  -14.2520 O.2   115  LYS115     -0.2867
     67  CB        -7.8760    3.6870  -11.3510 C.3   115  LYS115      0.0271
     68  CG        -9.0600    2.8930  -10.8140 C.3   115  LYS115      0.0035
     69  CD        -8.7230    2.2150   -9.4960 C.3   115  LYS115      0.0206
     70  CE        -9.9620    1.6010   -8.8470 C.3   115  LYS115      0.1093
     71  NZ       -11.0610    2.5960   -8.6730 N.3   115  LYS115     -0.1314
     72  N         -8.7410   -0.3530  -17.0500 N.3   117  PHE117     -0.1241
     73  CA        -9.0670   -1.7400  -17.3190 C.3   117  PHE117      0.1605
     74  C         -7.9360   -2.3560  -18.1130 C.2   117  PHE117      0.2264
     75  O         -7.9060   -2.2770  -19.3400 O.2   117  PHE117     -0.2867
     76  CB       -10.4100   -1.8280  -18.0450 C.3   117  PHE117      0.0534
     77  CG       -11.5480   -1.2550  -17.2450 C.ar  117  PHE117     -0.0203
     78  CD1      -12.3510   -2.0740  -16.4660 C.ar  117  PHE117     -0.0042
     79  CD2      -11.7830    0.1070  -17.2370 C.ar  117  PHE117     -0.0042
     80  CE1      -13.3840   -1.5410  -15.7130 C.ar  117  PHE117     -0.0003
     81  CE2      -12.8130    0.6450  -16.4880 C.ar  117  PHE117     -0.0003
     82  CZ       -13.6150   -0.1810  -15.7260 C.ar  117  PHE117     -0.0000
     83  N         -7.9390   -6.4550  -12.7020 N.3   138  ILE138     -0.1245
     84  CA        -9.2870   -6.8310  -12.2770 C.3   138  ILE138      0.1561
     85  C         -9.5230   -8.3070  -12.5660 C.2   138  ILE138      0.2260
     86  O         -9.5800   -8.7110  -13.7280 O.2   138  ILE138     -0.2867
     87  CB       -10.3680   -5.9700  -12.9860 C.3   138  ILE138      0.0252
     88  CG1      -10.1650   -4.4840  -12.6750 C.3   138  ILE138      0.0019
     89  CG2      -11.7680   -6.3980  -12.5480 C.3   138  ILE138      0.0019
     90  CD1      -10.9540   -3.5370  -13.5740 C.3   138  ILE138      0.0001
     91  N         -7.8940   -6.5920   -7.9250 N.3   164  GLU164     -0.1245
     92  CA        -9.2650   -6.3470   -7.4900 C.3   164  GLU164      0.1567
     93  C        -10.1520   -7.5780   -7.6250 C.2   164  GLU164      0.2260
     94  O        -10.2160   -8.1950   -8.6880 O.2   164  GLU164     -0.2867
     95  CB        -9.8730   -5.2030   -8.2990 C.3   164  GLU164      0.0388
     96  CG       -11.3630   -5.0340   -8.0770 C.3   164  GLU164      0.1160
     97  CD       -11.9240   -3.8370   -8.8130 C.2   164  GLU164      0.3649
     98  OE1      -11.3360   -2.7380   -8.7030 O.co2 164  GLU164     -0.2457
     99  OE2      -12.9560   -3.9940   -9.4940 O.co2 164  GLU164     -0.2457
    100  N        -13.7680   -4.8790   -4.3720 N.3   185  ASN185     -0.1240
    101  CA       -14.7560   -3.9650   -4.9090 C.3   185  ASN185      0.1653
    102  C        -16.1380   -4.4860   -4.5650 C.2   185  ASN185      0.2266
    103  O        -16.5120   -5.5830   -4.9730 O.2   185  ASN185     -0.2867
    104  CB       -14.6020   -3.8140   -6.4170 C.3   185  ASN185      0.1155
    105  CG       -15.3430   -2.6090   -6.9510 C.2   185  ASN185      0.2627
    106  OD1      -16.1540   -2.0050   -6.2460 O.2   185  ASN185     -0.2716
    107  ND2      -15.0660   -2.2460   -8.1970 N.am  185  ASN185     -0.0877
    108  N        -18.7960   -3.3990   -5.6630 N.3   187  ARG187     -0.1245
    109  CA       -19.6250   -3.3390   -6.8550 C.3   187  ARG187      0.1563
    110  C        -19.3530   -4.5270   -7.7730 C.2   187  ARG187      0.2260
    111  O        -18.2000   -4.8770   -8.0250 O.2   187  ARG187     -0.2867
    112  CB       -19.3770   -2.0280   -7.6070 C.3   187  ARG187      0.0307
    113  CG       -20.4630   -1.6740   -8.6070 C.3   187  ARG187      0.0489
    114  CD       -20.1700   -0.3490   -9.2930 C.3   187  ARG187      0.2205
    115  NE       -19.6380    0.6410   -8.3600 N.pl3 187  ARG187     -0.0865
    116  CZ       -20.3690    1.5530   -7.7270 C.cat 187  ARG187      0.5346
    117  NH1      -21.6790    1.6120   -7.9200 N.pl3 187  ARG187      0.1354
    118  NH2      -19.7860    2.4100   -6.8990 N.pl3 187  ARG187      0.1354
    119  N        -19.0850   -5.7150  -11.3550 N.3   189  LEU189     -0.1245
    120  CA       -18.8650   -4.9540  -12.5660 C.3   189  LEU189      0.1561
    121  C        -19.6910   -5.4590  -13.7200 C.2   189  LEU189      0.2260
    122  O        -19.7880   -4.8440  -14.7230 O.2   189  LEU189     -0.2867
    123  CB       -17.3790   -4.9410  -12.9270 C.3   189  LEU189      0.0270
    124  CG       -16.4540   -4.3570  -11.8550 C.3   189  LEU189      0.0019
    125  CD1      -15.0140   -4.1060  -12.2500 C.3   189  LEU189      0.0001
    126  CD2      -17.0430   -3.1490  -11.1190 C.3   189  LEU189      0.0001
    127  N        -23.2430   -3.8490  -11.8860 N.3   192  LEU192     -0.1245
    128  CA       -23.1640   -2.5920  -11.1250 C.3   192  LEU192      0.1561
    129  C        -23.7920   -2.4520   -9.7080 C.2   192  LEU192      0.2260
    130  O        -23.8680   -1.3810   -9.2510 O.2   192  LEU192     -0.2867
    131  CB       -23.5400   -1.3500  -11.9670 C.3   192  LEU192      0.0270
    132  CG       -22.7550   -0.9890  -13.2110 C.3   192  LEU192      0.0019
    133  CD1      -23.2080    0.3560  -13.6850 C.3   192  LEU192      0.0001
    134  CD2      -21.2860   -1.0000  -12.9310 C.3   192  LEU192      0.0001
    135  N        -14.4290    0.4940   -2.3090 N.3   214  SER214     -0.1217
    136  CA       -15.6310    1.2690   -2.5890 C.3   214  SER214      0.1889
    137  C        -16.5040    1.4990   -1.3650 C.2   214  SER214      0.2288
    138  O        -16.3050    0.8800   -0.3250 O.2   214  SER214     -0.2866
    139  CB       -16.4520    0.5910   -3.6880 C.3   214  SER214      0.2089
    140  OG       -16.7740   -0.7400   -3.3250 O.3   214  SER214     -0.2183
    141  N        -15.7560    9.0480   -5.0990 N.3   237  GLU237     -0.1245
    142  CA       -16.9500    9.8830   -5.2310 C.3   237  GLU237      0.1567
    143  C        -17.0220   10.9940   -4.1850 C.2   237  GLU237      0.2260
    144  O        -17.3060   12.1480   -4.5150 O.2   237  GLU237     -0.2867
    145  CB       -18.2180    9.0310   -5.1550 C.3   237  GLU237      0.0388
    146  CG       -18.3860    8.0690   -6.3190 C.3   237  GLU237      0.1160
    147  CD       -19.6700    7.2630   -6.2320 C.2   237  GLU237      0.3649
    148  OE1      -20.3750    7.3560   -5.2030 O.co2 237  GLU237     -0.2457
    149  OE2      -19.9690    6.5260   -7.1930 O.co2 237  GLU237     -0.2457
@<TRIPOS>BOND
     1    19    18    2
     2    18    17    1
     3    16    17    1
     4    17    20    1
     5    11    10    2
     6    20    22    1
     7    20    21    1
     8    75    74    2
     9    10     9    1
    10     4     3    2
    11    21    23    1
    12     3     2    1
    13     3     8   am
    14     1     2    1
    15     2     5    1
    16    74    73    1
    17    76    73    1
    18    76    77    1
    19    52    53    1
    20     9     8    1
    21     9    12    1
    22    73    72    1
    23    77    79   ar
    24    77    78   ar
    25    79    81   ar
    26     5     7    1
    27     5     6    1
    28    54    53    1
    29    54    55    2
    30    12    13    1
    31    13    14    1
    32    13    15    1
    33    53    56    1
    34    81    82   ar
    35    78    80   ar
    36    58    60   ar
    37    58    57   ar
    38    56    57    1
    39    44    43    1
    40    44    45    1
    41    82    80   ar
    42    60    62   ar
    43    43    40    1
    44    57    59   ar
    45    40    39    1
    46    40    41    1
    47    45    39    1
    48    39    35   am
    49   122   121    2
    50    42    41    2
    51    36    35    2
    52    35    34    1
    53    41    46   am
    54    62    61   ar
    55    66    65    2
    56    59    61   ar
    57    33    34    1
    58    34    37    1
    59    86    85    2
    60   121   120    1
    61    65    64    1
    62   133   132    1
    63    90    88    1
    64   132   134    1
    65   132   131    1
    66    46    47    1
    67    87    88    1
    68    87    89    1
    69    87    84    1
    70   123   120    1
    71   123   124    1
    72    83    84    1
    73   120   119    1
    74    85    84    1
    75    63    64    1
    76    37    38    1
    77    64    67    1
    78   125   124    1
    79    47    48    1
    80    47    50    1
    81   131   128    1
    82   127   128    1
    83   124   126    1
    84    48    49    2
    85    26    25    1
    86    26    27    2
    87    67    68    1
    88    25    28    1
    89    25    24    1
    90    29    30    1
    91    29    28    1
    92   128   129    1
    93    68    69    1
    94    50    51    1
    95    30    31    1
    96   129   130    2
    97    69    70    1
    98    99    97   ar
    99   114   113    1
   100   114   115    1
   101    31    32    1
   102    70    71    1
   103    97    98   ar
   104    97    96    1
   105    94    93    2
   106   113   112    1
   107   115   116    2
   108    95    96    1
   109    95    92    1
   110   107   105   am
   111   111   110    2
   112    91    92    1
   113   117   116    1
   114   110   109    1
   115   116   118    1
   116    93    92    1
   117   112   109    1
   118   149   147   ar
   119   105   104    1
   120   105   106    2
   121   109   108    1
   122   104   101    1
   123   146   147    1
   124   146   145    1
   125   147   148   ar
   126   142   145    1
   127   142   141    1
   128   142   143    1
   129   103   102    2
   130   101   102    1
   131   101   100    1
   132   144   143    2
   133   139   140    1
   134   139   136    1
   135   136   135    1
   136   136   137    1
   137   137   138    2
