@<TRIPOS>MOLECULE
tmp/3t7bA00.pdb
 115 107 0 0 0
SMALL
GASTEIGER

@<TRIPOS>ATOM
      1  N         46.0050   34.5160   17.1280 N.3     7  LYS7       -0.1231
      2  CA        45.8410   35.9570   17.3380 C.3     7  LYS7        0.1693
      3  C         47.0380   36.4220   18.1280 C.2     7  LYS7        0.2592
      4  O         47.3670   35.8340   19.1470 O.2     7  LYS7       -0.2718
      5  CB        44.5330   36.2620   18.0750 C.3     7  LYS7        0.0285
      6  CG        44.2880   37.7270   18.3540 C.3     7  LYS7        0.0035
      7  CD        44.9850   38.1990   19.6330 C.3     7  LYS7        0.0206
      8  CE        44.6040   39.6370   20.0120 C.3     7  LYS7        0.1093
      9  NZ        45.0470   39.9480   21.3980 N.3     7  LYS7       -0.1314
     10  N         47.6980   37.4630   17.6440 N.am    8  LEU8       -0.1966
     11  CA        48.9670   37.8960   18.2290 C.3     8  LEU8        0.1728
     12  C         48.7080   39.1130   19.0870 C.2     8  LEU8        0.2617
     13  O         48.0190   40.0480   18.6600 O.2     8  LEU8       -0.2715
     14  CB        50.0030   38.2130   17.1450 C.3     8  LEU8        0.0311
     15  CG        50.1890   37.1490   16.0680 C.3     8  LEU8        0.0022
     16  CD1       51.2680   37.5690   15.0740 C.3     8  LEU8        0.0001
     17  CD2       50.5020   35.8090   16.7280 C.3     8  LEU8        0.0001
     18  N         49.2370   39.0790   20.3090 N.am    9  GLY9       -0.1940
     19  CA        49.0280   40.1560   21.2590 C.3     9  GLY9        0.2014
     20  C         50.0200   41.2910   21.0870 C.2     9  GLY9        0.2639
     21  O         51.1180   41.1030   20.5590 O.2     9  GLY9       -0.2714
     22  N         49.6350   42.4590   21.5850 N.am   10  GLY10      -0.1954
     23  CA        50.4460   43.6490   21.4850 C.3    10  GLY10       0.1869
     24  C         51.9060   43.4130   21.7980 C.2    10  GLY10       0.2309
     25  O         52.7670   43.6870   20.9730 O.2    10  GLY10      -0.2863
     26  N         53.9380   41.7140   19.0840 N.3    13  LEU13      -0.1245
     27  CA        54.3160   42.5340   17.9360 C.3    13  LEU13       0.1561
     28  C         55.4480   43.5060   18.2680 C.2    13  LEU13       0.2260
     29  O         56.1900   43.9020   17.3800 O.2    13  LEU13      -0.2867
     30  CB        53.1360   43.3460   17.4000 C.3    13  LEU13       0.0270
     31  CG        51.8070   42.6620   17.0730 C.3    13  LEU13       0.0019
     32  CD1       50.7370   43.6980   16.6130 C.3    13  LEU13       0.0001
     33  CD2       52.0100   41.5260   16.0500 C.3    13  LEU13       0.0001
     34  N         46.1040   42.7930   16.2760 N.3    41  GLY41      -0.1210
     35  CA        45.8570   44.2000   16.5250 C.3    41  GLY41       0.1956
     36  C         47.1420   44.9950   16.3120 C.2    41  GLY41       0.2612
     37  O         47.9050   44.7240   15.3890 O.2    41  GLY41      -0.2717
     38  N         47.3770   45.9800   17.1700 N.am   42  GLY42      -0.1942
     39  CA        48.6070   46.7420   17.1150 C.3    42  GLY42       0.2014
     40  C         49.1410   46.9710   18.4890 C.2    42  GLY42       0.2639
     41  O         48.4120   47.4580   19.3420 O.2    42  GLY42      -0.2714
     42  N         50.4160   46.6580   18.7060 N.am   43  GLY43      -0.1954
     43  CA        51.0640   46.9720   19.9870 C.3    43  GLY43       0.1869
     44  C         51.3730   48.4390   20.2590 C.2    43  GLY43       0.2309
     45  O         50.5480   49.3230   20.0620 O.2    43  GLY43      -0.2863
     46  N         37.9530   52.1510   25.1820 N.3    63  ARG63      -0.1245
     47  CA        38.5490   53.2250   24.3930 C.3    63  ARG63       0.1563
     48  C         37.5970   53.9530   23.4090 C.2    63  ARG63       0.2260
     49  O         36.5880   53.4060   22.9580 O.2    63  ARG63      -0.2867
     50  CB        39.8040   52.7140   23.6550 C.3    63  ARG63       0.0307
     51  CG        39.5850   52.2780   22.1920 C.3    63  ARG63       0.0489
     52  CD        40.9340   52.0980   21.4690 C.3    63  ARG63       0.2205
     53  NE        41.7300   53.3330   21.4660 N.pl3  63  ARG63      -0.0865
     54  CZ        42.8780   53.5060   20.8130 C.cat  63  ARG63       0.5346
     55  NH1       43.4280   52.5340   20.0740 N.pl3  63  ARG63       0.1354
     56  NH2       43.4840   54.6790   20.9010 N.pl3  63  ARG63       0.1354
     57  N         47.9730   50.1900   12.0040 N.3    77  LEU77      -0.1245
     58  CA        47.4200   48.8920   12.3190 C.3    77  LEU77       0.1561
     59  C         47.2580   48.0850   11.0320 C.2    77  LEU77       0.2260
     60  O         47.9340   47.0780   10.8590 O.2    77  LEU77      -0.2867
     61  CB        46.0960   49.0560   13.0820 C.3    77  LEU77       0.0270
     62  CG        45.7900   48.0800   14.2350 C.3    77  LEU77       0.0019
     63  CD1       46.8920   48.2830   15.2430 C.3    77  LEU77       0.0001
     64  CD2       44.4430   48.3370   14.9230 C.3    77  LEU77       0.0001
     65  N         42.9440   44.0260   12.5120 N.3   143  SER143     -0.1217
     66  CA        41.6880   44.2400   13.1890 C.3   143  SER143      0.1889
     67  C         41.0510   45.5940   12.8610 C.2   143  SER143      0.2288
     68  O         40.4470   46.2160   13.7200 O.2   143  SER143     -0.2866
     69  CB        41.9300   44.1120   14.6730 C.3   143  SER143      0.2089
     70  OG        42.9280   45.0060   15.0970 O.3   143  SER143     -0.2183
     71  N         37.9080   50.7360   14.0970 N.3   153  ASN153     -0.1225
     72  CA        38.9180   50.1180   14.9350 C.3   153  ASN153      0.1785
     73  C         38.1720   49.0810   15.7540 C.2   153  ASN153      0.2597
     74  O         37.1860   49.4160   16.4190 O.2   153  ASN153     -0.2718
     75  CB        39.5470   51.1750   15.8280 C.3   153  ASN153      0.1169
     76  CG        40.6890   50.6480   16.6680 C.2   153  ASN153      0.2627
     77  OD1       41.0690   51.2940   17.6560 O.2   153  ASN153     -0.2716
     78  ND2       41.2580   49.5040   16.2890 N.am  153  ASN153     -0.0877
     79  N         38.6070   47.8310   15.6730 N.am  154  VAL154     -0.1966
     80  CA        37.9060   46.7380   16.3280 C.3   154  VAL154      0.1727
     81  C         38.8090   46.0240   17.3280 C.2   154  VAL154      0.2616
     82  O         39.9270   45.6840   17.0080 O.2   154  VAL154     -0.2715
     83  CB        37.4100   45.7080   15.2970 C.3   154  VAL154      0.0290
     84  CG1       36.6210   44.6140   15.9960 C.3   154  VAL154      0.0023
     85  CG2       36.5830   46.4060   14.1710 C.3   154  VAL154      0.0023
     86  N         38.3320   45.7980   18.5380 N.am  155  ASN155     -0.1958
     87  CA        39.0460   44.9230   19.4730 C.3   155  ASN155      0.1819
     88  C         39.4950   43.6180   18.7630 C.2   155  ASN155      0.2621
     89  O         38.6580   42.8740   18.2130 O.2   155  ASN155     -0.2715
     90  CB        38.1610   44.6060   20.6710 C.3   155  ASN155      0.1195
     91  CG        38.8000   43.6270   21.6300 C.2   155  ASN155      0.2630
     92  OD1       38.8240   42.4060   21.4060 O.2   155  ASN155     -0.2716
     93  ND2       39.2840   44.1480   22.7270 N.am  155  ASN155     -0.0877
     94  N         40.8130   43.3790   18.7800 N.am  156  ALA156     -0.1963
     95  CA        41.4490   42.2950   18.0300 C.3   156  ALA156      0.1728
     96  C         41.0170   40.9250   18.5360 C.2   156  ALA156      0.2616
     97  O         40.8020   39.9750   17.7550 O.2   156  ALA156     -0.2715
     98  CB        42.9990   42.4380   18.0630 C.3   156  ALA156      0.0334
     99  N         40.8500   40.8280   19.8440 N.am  157  ASP157     -0.1971
    100  CA        40.3120   39.6080   20.4440 C.3   157  ASP157      0.1709
    101  C         38.9330   39.2840   19.9440 C.2   157  ASP157      0.2293
    102  O         38.6480   38.1410   19.6000 O.2   157  ASP157     -0.2864
    103  CB        40.3290   39.7090   21.9770 C.3   157  ASP157      0.1436
    104  CG        41.7420   39.6290   22.5360 C.2   157  ASP157      0.3671
    105  OD1       42.5560   38.9050   21.9350 O.co2 157  ASP157     -0.2456
    106  OD2       42.0410   40.2710   23.5560 O.co2 157  ASP157     -0.2456
    107  N         43.5880   39.1360   30.4310 N.3   207  LYS207     -0.1245
    108  CA        43.9040   38.1280   29.4250 C.3   207  LYS207      0.1561
    109  C         43.0610   36.8910   29.5610 C.2   207  LYS207      0.2260
    110  O         42.7480   36.2690   28.5580 O.2   207  LYS207     -0.2867
    111  CB        45.4010   37.8020   29.4050 C.3   207  LYS207      0.0271
    112  CG        46.1430   38.7300   28.4410 C.3   207  LYS207      0.0035
    113  CD        47.5190   39.1250   28.9100 C.3   207  LYS207      0.0206
    114  CE        48.0150   40.3380   28.1170 C.3   207  LYS207      0.1093
    115  NZ        49.2980   40.8200   28.6420 N.3   207  LYS207     -0.1314
@<TRIPOS>BOND
     1    60    59    2
     2    59    58    1
     3    57    58    1
     4    58    61    1
     5    65    66    1
     6    67    66    1
     7    67    68    2
     8    61    62    1
     9    66    69    1
    10    71    72    1
    11    85    83    1
    12    62    64    1
    13    62    63    1
    14    69    70    1
    15    72    73    1
    16    72    75    1
    17    16    15    1
    18    83    84    1
    19    83    80    1
    20    37    36    2
    21    79    73   am
    22    79    80    1
    23    73    74    2
    24    75    76    1
    25    33    31    1
    26    15    17    1
    27    15    14    1
    28    34    35    1
    29    78    76   am
    30    36    35    1
    31    36    38   am
    32    80    81    1
    33    32    31    1
    34    76    77    2
    35    82    81    2
    36    31    30    1
    37    39    38    1
    38    39    40    1
    39     1     2    1
    40    14    11    1
    41    81    86   am
    42     2     5    1
    43     2     3    1
    44    29    28    2
    45    30    27    1
    46    10     3   am
    47    10    11    1
    48    97    96    2
    49    27    28    1
    50    27    26    1
    51    95    98    1
    52    95    96    1
    53    95    94    1
    54     5     6    1
    55     3     4    2
    56    89    88    2
    57    11    12    1
    58     6     7    1
    59    40    42   am
    60    40    41    2
    61    96    99   am
    62    86    87    1
    63    13    12    2
    64    42    43    1
    65    88    94   am
    66    88    87    1
    67    12    18   am
    68    87    90    1
    69   102   101    2
    70     7     8    1
    71    99   100    1
    72   101   100    1
    73    43    44    1
    74     8     9    1
    75    45    44    2
    76    55    54    1
    77    18    19    1
    78   100   103    1
    79    21    20    2
    80    90    91    1
    81    54    56    1
    82    54    53    2
    83    25    24    2
    84    20    19    1
    85    20    22   am
    86    92    91    2
    87    53    52    1
    88    52    51    1
    89    23    22    1
    90    23    24    1
    91    91    93   am
    92   105   104   ar
    93   103   104    1
    94    51    50    1
    95   104   106   ar
    96    49    48    2
    97    48    47    1
    98    50    47    1
    99    47    46    1
   100   114   115    1
   101   114   113    1
   102   112   113    1
   103   112   111    1
   104   110   109    2
   105   111   108    1
   106   108   109    1
   107   108   107    1
