@<TRIPOS>MOLECULE
tmp/3t7dB00.pdb
 198 190 0 0 0
SMALL
GASTEIGER

@<TRIPOS>ATOM
      1  N          9.5490   14.7360   92.0340 N.3     8  ARG8       -0.1245
      2  CA         9.5800   13.5320   92.8690 C.3     8  ARG8        0.1563
      3  C          8.8240   13.6930   94.1760 C.2     8  ARG8        0.2260
      4  O          9.1380   14.5430   95.0050 O.2     8  ARG8       -0.2867
      5  CB        11.0240   13.0380   93.1000 C.3     8  ARG8        0.0307
      6  CG        11.7290   12.5590   91.8190 C.3     8  ARG8        0.0489
      7  CD        13.0640   11.8850   92.0920 C.3     8  ARG8        0.2205
      8  NE        12.8720   10.5760   92.7120 N.pl3   8  ARG8       -0.0865
      9  CZ        13.8290    9.8450   93.2760 C.cat   8  ARG8        0.5346
     10  NH1       15.0840   10.2790   93.3190 N.pl3   8  ARG8        0.1354
     11  NH2       13.5220    8.6650   93.8040 N.pl3   8  ARG8        0.1354
     12  N         12.6940   17.9380  100.5330 N.3    15  VAL15      -0.1245
     13  CA        13.0170   19.3270  100.7730 C.3    15  VAL15       0.1561
     14  C         11.9760   20.2510  100.1370 C.2    15  VAL15       0.2260
     15  O         11.6270   21.3240  100.6910 O.2    15  VAL15      -0.2867
     16  CB        14.4760   19.5780  100.3040 C.3    15  VAL15       0.0252
     17  CG1       14.6840   20.9740   99.7520 C.3    15  VAL15       0.0019
     18  CG2       15.4380   19.2660  101.4510 C.3    15  VAL15       0.0019
     19  N         21.1160   12.0970   84.6010 N.3    79  TRP79      -0.1241
     20  CA        21.8780   11.9770   85.8320 C.3    79  TRP79       0.1605
     21  C         23.3500   11.8600   85.5580 C.2    79  TRP79       0.2264
     22  O         24.1620   12.5670   86.1690 O.2    79  TRP79      -0.2867
     23  CB        21.4120   10.7880   86.6490 C.3    79  TRP79       0.0550
     24  CG        21.9130   10.8220   88.0790 C.ar   79  TRP79       0.0003
     25  CD1       22.9010   10.0330   88.6560 C.ar   79  TRP79       0.0946
     26  CD2       21.4760   11.7330   89.1480 C.ar   79  TRP79       0.0152
     27  NE1       23.0880   10.3730   89.9850 N.ar   79  TRP79      -0.2442
     28  CE2       22.2610   11.3860   90.3330 C.ar   79  TRP79       0.0810
     29  CE3       20.5400   12.7580   89.2330 C.ar   79  TRP79       0.0012
     30  CZ2       22.0960   12.0490   91.5420 C.ar   79  TRP79       0.0191
     31  CZ3       20.3760   13.4120   90.4610 C.ar   79  TRP79       0.0001
     32  CH2       21.1390   13.0670   91.5810 C.ar   79  TRP79       0.0015
     33  N         26.0170   14.4970   86.7150 N.3    83  ASN83      -0.1240
     34  CA        26.7640   14.0060   87.8960 C.3    83  ASN83       0.1653
     35  C         28.0160   13.2390   87.4950 C.2    83  ASN83       0.2266
     36  O         28.5600   12.4530   88.2820 O.2    83  ASN83      -0.2867
     37  CB        25.9050   13.1760   88.8540 C.3    83  ASN83       0.1155
     38  CG        24.8330   13.9940   89.5380 C.2    83  ASN83       0.2627
     39  OD1       25.0220   14.4800   90.6770 O.2    83  ASN83      -0.2716
     40  ND2       23.6750   14.1330   88.8620 N.am   83  ASN83      -0.0877
     41  N         14.1980   21.4580   90.6390 N.3   132  ASP132     -0.1225
     42  CA        14.8110   20.2030   90.2210 C.3   132  ASP132      0.1805
     43  C         15.2950   20.2480   88.7820 C.2   132  ASP132      0.2598
     44  O         14.9290   21.1430   88.0200 O.2   132  ASP132     -0.2718
     45  CB        13.8300   19.0430   90.4060 C.3   132  ASP132      0.1424
     46  CG        14.3880   17.9430   91.2880 C.2   132  ASP132      0.3668
     47  OD1       15.6270   17.8020   91.3510 O.co2 132  ASP132     -0.2456
     48  OD2       13.5880   17.2200   91.9170 O.co2 132  ASP132     -0.2456
     49  N         16.1210   19.2750   88.4130 N.am  133  TYR133     -0.1962
     50  CA        16.6300   19.2120   87.0460 C.3   133  TYR133      0.1771
     51  C         15.5990   18.6280   86.0990 C.2   133  TYR133      0.2619
     52  O         15.6900   18.8410   84.9120 O.2   133  TYR133     -0.2715
     53  CB        17.9170   18.3730   87.0010 C.3   133  TYR133      0.0574
     54  CG        17.7220   16.8720   87.2450 C.ar  133  TYR133     -0.0198
     55  CD1       17.5070   16.3640   88.5450 C.ar  133  TYR133     -0.0009
     56  CD2       17.8060   15.9710   86.1940 C.ar  133  TYR133     -0.0009
     57  CE1       17.3180   15.0040   88.7630 C.ar  133  TYR133      0.0417
     58  CE2       17.6480   14.6190   86.4020 C.ar  133  TYR133      0.0417
     59  CZ        17.4030   14.1520   87.6850 C.ar  133  TYR133      0.1957
     60  OH        17.2480   12.8190   87.8960 O.3   133  TYR133     -0.2866
     61  N         14.6350   17.8670   86.6060 N.am  134  GLN134     -0.1977
     62  CA        13.6560   17.2490   85.6740 C.3   134  GLN134      0.1601
     63  C         12.7230   18.3070   85.0600 C.2   134  GLN134      0.2287
     64  O         12.0540   18.0470   84.0530 O.2   134  GLN134     -0.2864
     65  CB        12.8500   16.1150   86.3480 C.3   134  GLN134      0.0394
     66  CG        13.6860   15.0560   87.0790 C.3   134  GLN134      0.0908
     67  CD        13.8550   15.3330   88.5690 C.2   134  GLN134      0.2608
     68  OE1       13.8800   16.4930   88.9740 O.2   134  GLN134     -0.2717
     69  NE2       13.9950   14.2640   89.3960 N.am  134  GLN134     -0.0878
     70  N         18.8950   21.1730   92.0050 N.3   156  HIS156     -0.1226
     71  CA        19.4700   20.6100   93.2130 C.3   156  HIS156      0.1752
     72  C         20.7290   19.8220   92.9900 C.2   156  HIS156      0.2595
     73  O         21.3060   19.3460   93.9590 O.2   156  HIS156     -0.2718
     74  CB        18.4590   19.6970   93.9230 C.3   156  HIS156      0.0759
     75  CG        17.2570   20.4230   94.4810 C.ar  156  HIS156      0.0818
     76  ND1       16.7600   20.1740   95.7200 N.ar  156  HIS156     -0.2268
     77  CD2       16.4400   21.3970   93.9120 C.ar  156  HIS156      0.1154
     78  CE1       15.6960   20.9880   95.9380 C.ar  156  HIS156      0.1986
     79  NE2       15.4950   21.7220   94.8230 N.ar  156  HIS156     -0.2212
     80  N         21.1290   19.6090   91.7220 N.am  157  ILE157     -0.1980
     81  CA        22.2370   18.7390   91.3870 C.3   157  ILE157      0.1595
     82  C         23.3440   19.6180   90.7500 C.2   157  ILE157      0.2287
     83  O         23.1360   20.8360   90.5940 O.2   157  ILE157     -0.2864
     84  CB        21.7640   17.5650   90.4560 C.3   157  ILE157      0.0276
     85  CG1       21.3540   18.1150   89.0870 C.3   157  ILE157      0.0022
     86  CG2       20.6350   16.7770   91.1330 C.3   157  ILE157      0.0022
     87  CD1       21.1040   16.9980   88.0680 C.3   157  ILE157      0.0001
     88  N         23.1200   25.1220   94.2120 N.3   188  PHE188     -0.1241
     89  CA        23.5990   25.1170   95.6020 C.3   188  PHE188      0.1605
     90  C         25.0200   25.6380   95.7900 C.2   188  PHE188      0.2264
     91  O         25.4210   25.9330   96.9300 O.2   188  PHE188     -0.2867
     92  CB        23.5390   23.6960   96.1770 C.3   188  PHE188      0.0534
     93  CG        22.1440   23.2270   96.5430 C.ar  188  PHE188     -0.0203
     94  CD1       21.3260   23.9560   97.4280 C.ar  188  PHE188     -0.0042
     95  CD2       21.6780   22.0250   96.0430 C.ar  188  PHE188     -0.0042
     96  CE1       20.0460   23.4770   97.7690 C.ar  188  PHE188     -0.0003
     97  CE2       20.4140   21.5430   96.3810 C.ar  188  PHE188     -0.0003
     98  CZ        19.6050   22.2590   97.2350 C.ar  188  PHE188     -0.0000
     99  N         21.9050   25.2890  100.9190 N.3   228  LEU228     -0.1245
    100  CA        20.9750   24.6990  101.8960 C.3   228  LEU228      0.1561
    101  C         21.7380   23.6970  102.7470 C.2   228  LEU228      0.2260
    102  O         22.5850   22.9850  102.2180 O.2   228  LEU228     -0.2867
    103  CB        19.8470   23.9770  101.1560 C.3   228  LEU228      0.0270
    104  CG        18.8760   23.0860  101.9310 C.3   228  LEU228      0.0019
    105  CD1       18.0850   23.8980  102.9450 C.3   228  LEU228      0.0001
    106  CD2       17.9500   22.3430  100.9550 C.3   228  LEU228      0.0001
    107  N         22.5300    7.5530   99.6720 N.3   258  ARG258     -0.1245
    108  CA        21.6770    6.8170   98.7200 C.3   258  ARG258      0.1563
    109  C         22.4440    5.7200   97.9680 C.2   258  ARG258      0.2260
    110  O         23.6710    5.7530   97.8640 O.2   258  ARG258     -0.2867
    111  CB        21.0240    7.7530   97.6750 C.3   258  ARG258      0.0307
    112  CG        20.3410    9.0540   98.1420 C.3   258  ARG258      0.0489
    113  CD        19.2450    8.9060   99.1940 C.3   258  ARG258      0.2205
    114  NE        18.1230    8.0900   98.7350 N.pl3 258  ARG258     -0.0865
    115  CZ        16.9760    7.9270   99.3990 C.cat 258  ARG258      0.5346
    116  NH1       16.7740    8.5380  100.5630 N.pl3 258  ARG258      0.1354
    117  NH2       16.0220    7.1460   98.8960 N.pl3 258  ARG258      0.1354
    118  N         23.5310    5.3050   95.0490 N.3   260  ASP260     -0.1239
    119  CA        23.7730    6.1080   93.8670 C.3   260  ASP260      0.1674
    120  C         25.3060    6.1200   93.7580 C.2   260  ASP260      0.2266
    121  O         25.9780    6.3860   94.7400 O.2   260  ASP260     -0.2867
    122  CB        23.2260    7.5360   94.1270 C.3   260  ASP260      0.1410
    123  CG        23.4230    8.5080   92.9470 C.2   260  ASP260      0.3668
    124  OD1       24.3890    8.4160   92.1420 O.co2 260  ASP260     -0.2456
    125  OD2       22.6070    9.4540   92.8740 O.co2 260  ASP260     -0.2456
    126  N         27.3960    8.1890   92.8500 N.3   262  ILE262     -0.1231
    127  CA        28.0840    9.4110   93.2800 C.3   262  ILE262      0.1692
    128  C         28.4540    9.3370   94.7400 C.2   262  ILE262      0.2591
    129  O         29.3650   10.0120   95.1660 O.2   262  ILE262     -0.2718
    130  CB        27.2970   10.7270   93.0100 C.3   262  ILE262      0.0266
    131  CG1       26.0040   10.8450   93.8240 C.3   262  ILE262      0.0019
    132  CG2       27.0480   10.8890   91.5280 C.3   262  ILE262      0.0020
    133  CD1       25.3120   12.1680   93.5800 C.3   262  ILE262      0.0001
    134  N         27.7190    8.5470   95.5230 N.am  263  LYS263     -0.1980
    135  CA        28.0040    8.5080   96.9930 C.3   263  LYS263      0.1596
    136  C         29.3700    7.8840   97.3650 C.2   263  LYS263      0.2287
    137  O         29.8890    8.1460   98.4660 O.2   263  LYS263     -0.2864
    138  CB        26.8250    7.9040   97.7920 C.3   263  LYS263      0.0298
    139  CG        25.5230    8.6750   97.5520 C.3   263  LYS263      0.0038
    140  CD        25.7130   10.1520   97.9110 C.3   263  LYS263      0.0206
    141  CE        24.4550   11.0050   97.7980 C.3   263  LYS263      0.1093
    142  NZ        23.6320   10.6260   96.6290 N.3   263  LYS263     -0.1314
    143  N         17.2310    3.7190   96.4430 N.3   291  ASN291     -0.1225
    144  CA        16.7140    4.8700   95.7430 C.3   291  ASN291      0.1785
    145  C         16.9890    4.6520   94.2560 C.2   291  ASN291      0.2597
    146  O         18.1360    4.4220   93.8530 O.2   291  ASN291     -0.2718
    147  CB        17.4600    6.1270   96.2290 C.3   291  ASN291      0.1169
    148  CG        16.8940    7.4220   95.6480 C.2   291  ASN291      0.2627
    149  OD1       15.9120    7.9730   96.1570 O.2   291  ASN291     -0.2716
    150  ND2       17.5270    7.9270   94.6060 N.am  291  ASN291     -0.0877
    151  N         15.9270    4.7330   93.4560 N.am  292  ARG292     -0.1979
    152  CA        16.0050    4.6260   91.9930 C.3   292  ARG292      0.1597
    153  C         16.7600    3.4110   91.5170 C.2   292  ARG292      0.2287
    154  O         17.6500    3.4940   90.6490 O.2   292  ARG292     -0.2864
    155  CB        16.6790    5.8400   91.3870 C.3   292  ARG292      0.0334
    156  CG        16.1130    7.1440   91.8440 C.3   292  ARG292      0.0492
    157  CD        17.1480    8.1370   91.4190 C.3   292  ARG292      0.2205
    158  NE        16.5180    9.2710   90.8070 N.pl3 292  ARG292     -0.0865
    159  CZ        17.2030   10.2870   90.3300 C.cat 292  ARG292      0.5346
    160  NH1       18.5600   10.2450   90.4090 N.pl3 292  ARG292      0.1354
    161  NH2       16.5180   11.3140   89.8010 N.pl3 292  ARG292      0.1354
    162  N         28.5000   16.0630   94.2560 N.3   349  ASP349     -0.1225
    163  CA        27.1520   16.1060   94.8330 C.3   349  ASP349      0.1805
    164  C         26.6250   17.5240   94.7170 C.2   349  ASP349      0.2598
    165  O         27.3810   18.4920   94.9230 O.2   349  ASP349     -0.2718
    166  CB        27.2090   15.6900   96.3190 C.3   349  ASP349      0.1424
    167  CG        26.1690   14.6330   96.6940 C.2   349  ASP349      0.3668
    168  OD1       25.0640   14.6190   96.1360 O.co2 349  ASP349     -0.2456
    169  OD2       26.4620   13.8080   97.5800 O.co2 349  ASP349     -0.2456
    170  N         25.3410   17.6630   94.3830 N.am  350  GLY350     -0.1942
    171  CA        24.7850   19.0110   94.2140 C.3   350  GLY350      0.2014
    172  C         25.0440   19.8000   95.4910 C.2   350  GLY350      0.2639
    173  O         25.5700   20.9180   95.4620 O.2   350  GLY350     -0.2714
    174  N         24.6760   19.2100   96.6220 N.am  351  GLN351     -0.1963
    175  CA        25.0260   19.8170   97.9130 C.3   351  GLN351      0.1733
    176  C         25.5850   18.7590   98.8520 C.2   351  GLN351      0.2616
    177  O         26.7780   18.7990   99.1820 O.2   351  GLN351     -0.2715
    178  CB        23.8400   20.5580   98.5580 C.3   351  GLN351      0.0408
    179  CG        24.2270   21.2670   99.8570 C.3   351  GLN351      0.0908
    180  CD        25.0710   22.5320   99.6510 C.2   351  GLN351      0.2608
    181  OE1       25.7890   22.6890   98.6620 O.2   351  GLN351     -0.2717
    182  NE2       25.0010   23.4350  100.6220 N.am  351  GLN351     -0.0878
    183  N         24.7210   17.8240   99.2610 N.am  352  ASN352     -0.1958
    184  CA        25.0120   16.8700  100.3290 C.3   352  ASN352      0.1819
    185  C         24.5210   17.4530  101.6550 C.2   352  ASN352      0.2621
    186  O         25.1730   18.3240  102.2380 O.2   352  ASN352     -0.2715
    187  CB        26.5100   16.5550  100.3900 C.3   352  ASN352      0.1195
    188  CG        26.7920   15.2330  101.0720 C.2   352  ASN352      0.2630
    189  OD1       26.3910   15.0100  102.2200 O.2   352  ASN352     -0.2716
    190  ND2       27.5110   14.3470  100.3820 N.am  352  ASN352     -0.0877
    191  N         23.3540   17.0020  102.1100 N.am  353  LEU353     -0.1977
    192  CA        22.7200   17.6550  103.2600 C.3   353  LEU353      0.1596
    193  C         23.1660   16.8730  104.4500 C.2   353  LEU353      0.2287
    194  O         23.1640   17.4020  105.5630 O.2   353  LEU353     -0.2864
    195  CB        21.1830   17.7240  103.2440 C.3   353  LEU353      0.0297
    196  CG        20.5460   18.4750  102.0610 C.3   353  LEU353      0.0022
    197  CD1       19.0320   18.6310  102.2570 C.3   353  LEU353      0.0001
    198  CD2       21.2020   19.8310  101.8120 C.3   353  LEU353      0.0001
@<TRIPOS>BOND
     1    64    63    2
     2    19    20    1
     3    52    51    2
     4    63    62    1
     5    21    20    1
     6    21    22    2
     7    62    65    1
     8    62    61    1
     9    20    23    1
    10    51    61   am
    11    51    50    1
    12    56    58   ar
    13    56    54   ar
    14    65    66    1
    15    58    59   ar
    16    23    24    1
    17    33    34    1
    18    53    50    1
    19    53    54    1
    20    50    49    1
    21    66    67    1
    22    54    55   ar
    23    35    34    1
    24    35    36    2
    25    59    60    1
    26    59    57   ar
    27    34    37    1
    28    44    43    2
    29    87    85    1
    30    24    25   ar
    31    24    26   ar
    32    49    43   am
    33    55    57   ar
    34    67    68    2
    35    67    69   am
    36    25    27   ar
    37    43    42    1
    38    37    38    1
    39    40    38   am
    40    85    84    1
    41    26    29   ar
    42    26    28   ar
    43    29    31   ar
    44    38    39    2
    45   161   159    1
    46    27    28   ar
    47    42    45    1
    48    42    41    1
    49   159   160    1
    50   159   158    2
    51    28    30   ar
    52    45    46    1
    53    84    86    1
    54    84    81    1
    55    31    32   ar
    56    83    82    2
    57   154   153    2
    58    82    81    1
    59   158   157    1
    60    46    47   ar
    61    46    48   ar
    62   155   156    1
    63   155   152    1
    64    81    80    1
    65   157   156    1
    66   153   152    1
    67   132   130    1
    68    30    32   ar
    69    80    72   am
    70     6     7    1
    71     6     5    1
    72   152   151    1
    73    70    71    1
    74     1     2    1
    75     7     8    1
    76   124   123   ar
    77     8     9    2
    78   126   127    1
    79     2     5    1
    80     2     3    1
    81   125   123   ar
    82   123   122    1
    83    72    71    1
    84    72    73    2
    85   130   127    1
    86   130   131    1
    87    71    74    1
    88     9    10    1
    89     9    11    1
    90   127   128    1
    91   151   145   am
    92   133   131    1
    93   120   119    1
    94   120   121    2
    95   146   145    2
    96   119   122    1
    97   119   118    1
    98    77    75   ar
    99    77    79   ar
   100    74    75    1
   101     3     4    2
   102    88    89    1
   103   171   170    1
   104   171   172    1
   105   145   144    1
   106   162   163    1
   107   170   164   am
   108    75    76   ar
   109   150   148   am
   110   164   163    1
   111   164   165    2
   112   128   129    2
   113   128   134   am
   114    79    78   ar
   115   163   166    1
   116   173   172    2
   117   172   174   am
   118   134   135    1
   119    89    90    1
   120    89    92    1
   121   148   149    2
   122   148   147    1
   123    76    78   ar
   124   144   147    1
   125   144   143    1
   126    90    91    2
   127    95    97   ar
   128    95    93   ar
   129   168   167   ar
   130    92    93    1
   131   166   167    1
   132    97    98   ar
   133    93    94   ar
   134   174   175    1
   135   142   141    1
   136   167   169   ar
   137   135   136    1
   138   135   138    1
   139    98    96   ar
   140   136   137    2
   141    94    96   ar
   142   139   138    1
   143   139   140    1
   144   111   112    1
   145   111   108    1
   146   141   140    1
   147   110   109    2
   148   175   178    1
   149   175   176    1
   150   109   108    1
   151   112   113    1
   152   178   179    1
   153   181   180    2
   154   108   107    1
   155   114   113    1
   156   114   115    2
   157   176   177    2
   158   176   183   am
   159   117   115    1
   160   183   184    1
   161   115   116    1
   162   180   179    1
   163   180   182   am
   164    17    16    1
   165    14    15    2
   166    14    13    1
   167    16    13    1
   168    16    18    1
   169   184   187    1
   170   184   185    1
   171   190   188   am
   172   187   188    1
   173    12    13    1
   174    99   100    1
   175   106   104    1
   176   188   189    2
   177   103   100    1
   178   103   104    1
   179   185   191   am
   180   185   186    2
   181   198   196    1
   182   100   101    1
   183   104   105    1
   184   196   197    1
   185   196   195    1
   186   191   192    1
   187   102   101    2
   188   195   192    1
   189   192   193    1
   190   193   194    2
