@<TRIPOS>MOLECULE
tmp/3t7gB00.pdb
 161 158 0 0 0
SMALL
GASTEIGER

@<TRIPOS>ATOM
      1  N         28.8310  -67.9290   42.0630 N.3    83  LEU83      -0.1245
      2  CA        29.9240  -67.0000   41.8110 C.3    83  LEU83       0.1561
      3  C         31.2630  -67.6790   41.4990 C.2    83  LEU83       0.2260
      4  O         31.8770  -67.4110   40.4660 O.2    83  LEU83      -0.2867
      5  CB        30.0960  -66.0710   43.0120 C.3    83  LEU83       0.0270
      6  CG        31.0990  -64.9430   42.8020 C.3    83  LEU83       0.0019
      7  CD1       31.0150  -64.4750   41.3630 C.3    83  LEU83       0.0001
      8  CD2       30.8250  -63.7890   43.7640 C.3    83  LEU83       0.0001
      9  N         31.5880  -69.1940   37.9990 N.3    86  PHE86      -0.1227
     10  CA        31.8030  -68.1150   37.0400 C.3    86  PHE86       0.1736
     11  C         33.2430  -67.6460   37.1700 C.2    86  PHE86       0.2595
     12  O         33.9880  -67.5820   36.1860 O.2    86  PHE86      -0.2718
     13  CB        30.8330  -66.9640   37.3510 C.3    86  PHE86       0.0547
     14  CG        30.9750  -65.7580   36.4540 C.ar   86  PHE86      -0.0202
     15  CD1       30.7170  -65.8440   35.0980 C.ar   86  PHE86      -0.0042
     16  CD2       31.2950  -64.5200   36.9890 C.ar   86  PHE86      -0.0042
     17  CE1       30.8050  -64.7270   34.2830 C.ar   86  PHE86      -0.0003
     18  CE2       31.3820  -63.3870   36.1820 C.ar   86  PHE86      -0.0003
     19  CZ        31.1470  -63.4900   34.8280 C.ar   86  PHE86      -0.0000
     20  N         33.6390  -67.3320   38.4000 N.am   87  LYS87      -0.1980
     21  CA        34.9740  -66.8070   38.6500 C.3    87  LYS87       0.1596
     22  C         36.0830  -67.7630   38.2030 C.2    87  LYS87       0.2287
     23  O         36.9900  -67.3720   37.4650 O.2    87  LYS87      -0.2864
     24  CB        35.1740  -66.4820   40.1280 C.3    87  LYS87       0.0298
     25  CG        36.3820  -65.6040   40.3550 C.3    87  LYS87       0.0038
     26  CD        36.9960  -65.7950   41.7290 C.3    87  LYS87       0.0206
     27  CE        36.1270  -65.2220   42.8280 C.3    87  LYS87       0.1093
     28  NZ        36.8670  -65.2280   44.1310 N.3    87  LYS87      -0.1314
     29  N         39.0160  -69.6850   31.3450 N.3    91  LYS91      -0.1231
     30  CA        38.4100  -68.9200   30.2790 C.3    91  LYS91       0.1693
     31  C         38.9980  -69.2800   28.9240 C.2    91  LYS91       0.2591
     32  O         38.2890  -69.2710   27.9120 O.2    91  LYS91      -0.2718
     33  CB        38.5620  -67.4220   30.5550 C.3    91  LYS91       0.0285
     34  CG        37.9300  -66.9530   31.8740 C.3    91  LYS91       0.0035
     35  CD        36.4900  -67.4230   32.0270 C.3    91  LYS91       0.0206
     36  CE        35.8190  -66.7660   33.2420 C.3    91  LYS91       0.1093
     37  NZ        36.4920  -67.0570   34.5480 N.3    91  LYS91      -0.1314
     38  N         40.2930  -69.5910   28.9090 N.am   92  GLN92      -0.1979
     39  CA        40.9630  -70.0190   27.6810 C.3    92  GLN92       0.1601
     40  C         40.4630  -71.3990   27.2310 C.2    92  GLN92       0.2287
     41  O         40.0860  -71.5930   26.0810 O.2    92  GLN92      -0.2864
     42  CB        42.4880  -70.0260   27.8690 C.3    92  GLN92       0.0394
     43  CG        43.2210  -70.2220   26.5710 C.3    92  GLN92       0.0908
     44  CD        43.0960  -69.0160   25.6640 C.2    92  GLN92       0.2608
     45  OE1       43.3070  -67.8440   26.0480 O.2    92  GLN92      -0.2717
     46  NE2       42.7170  -69.2610   24.4100 N.am   92  GLN92      -0.0878
     47  N         23.5300  -57.0520   40.8190 N.3   128  ARG128     -0.1245
     48  CA        24.4920  -56.7800   39.7640 C.3   128  ARG128      0.1563
     49  C         24.4850  -57.9280   38.7690 C.2   128  ARG128      0.2260
     50  O         24.3770  -59.0880   39.1620 O.2   128  ARG128     -0.2867
     51  CB        25.8940  -56.6770   40.3630 C.3   128  ARG128      0.0307
     52  CG        26.0490  -55.6170   41.4350 C.3   128  ARG128      0.0489
     53  CD        27.4180  -55.6880   42.0780 C.3   128  ARG128      0.2205
     54  NE        27.6070  -54.5980   43.0330 N.pl3 128  ARG128     -0.0865
     55  CZ        28.6780  -54.4520   43.8080 C.cat 128  ARG128      0.5346
     56  NH1       29.6660  -55.3360   43.7530 N.pl3 128  ARG128      0.1354
     57  NH2       28.7590  -53.4190   44.6370 N.pl3 128  ARG128      0.1354
     58  N         26.8850  -59.6790   36.0860 N.3   130  TYR130     -0.1241
     59  CA        28.2130  -59.8070   35.4980 C.3   130  TYR130      0.1605
     60  C         28.1290  -60.6080   34.2320 C.2   130  TYR130      0.2264
     61  O         27.4210  -61.6110   34.1720 O.2   130  TYR130     -0.2867
     62  CB        29.1450  -60.5400   36.4510 C.3   130  TYR130      0.0534
     63  CG        29.3780  -59.8310   37.7520 C.ar  130  TYR130     -0.0201
     64  CD1       30.4630  -58.9870   37.9060 C.ar  130  TYR130     -0.0009
     65  CD2       28.5130  -59.9940   38.8250 C.ar  130  TYR130     -0.0009
     66  CE1       30.6930  -58.3270   39.0910 C.ar  130  TYR130      0.0417
     67  CE2       28.7450  -59.3410   40.0280 C.ar  130  TYR130      0.0417
     68  CZ        29.8370  -58.5090   40.1480 C.ar  130  TYR130      0.1957
     69  OH        30.0870  -57.8460   41.3270 O.3   130  TYR130     -0.2866
     70  N         30.3530  -61.5730   30.2330 N.3   132  TRP132     -0.1241
     71  CA        31.5680  -61.4850   29.4490 C.3   132  TRP132      0.1605
     72  C         31.2810  -62.1030   28.0960 C.2   132  TRP132      0.2264
     73  O         30.9480  -63.2970   28.0080 O.2   132  TRP132     -0.2867
     74  CB        32.6840  -62.2520   30.1610 C.3   132  TRP132      0.0550
     75  CG        34.0790  -61.8750   29.7420 C.ar  132  TRP132      0.0003
     76  CD1       34.4440  -61.0880   28.6760 C.ar  132  TRP132      0.0946
     77  CD2       35.2940  -62.2480   30.4020 C.ar  132  TRP132      0.0152
     78  NE1       35.8190  -60.9710   28.6290 N.ar  132  TRP132     -0.2442
     79  CE2       36.3590  -61.6710   29.6730 C.ar  132  TRP132      0.0810
     80  CE3       35.5900  -63.0400   31.5210 C.ar  132  TRP132      0.0012
     81  CZ2       37.6910  -61.8490   30.0430 C.ar  132  TRP132      0.0191
     82  CZ3       36.9160  -63.2060   31.8900 C.ar  132  TRP132      0.0001
     83  CH2       37.9480  -62.6160   31.1500 C.ar  132  TRP132      0.0015
     84  N         37.8780  -63.0390   23.6350 N.3   257  TRP257     -0.1241
     85  CA        37.2320  -62.4840   24.8280 C.3   257  TRP257      0.1605
     86  C         37.1620  -60.9490   24.7200 C.2   257  TRP257      0.2264
     87  O         38.1700  -60.3050   24.4620 O.2   257  TRP257     -0.2867
     88  CB        37.9820  -62.8960   26.0920 C.3   257  TRP257      0.0550
     89  CG        37.7260  -64.3160   26.5010 C.ar  257  TRP257      0.0003
     90  CD1       38.6320  -65.3380   26.5460 C.ar  257  TRP257      0.0946
     91  CD2       36.4590  -64.8740   26.9180 C.ar  257  TRP257      0.0152
     92  NE1       38.0090  -66.5000   26.9780 N.ar  257  TRP257     -0.2442
     93  CE2       36.6800  -66.2340   27.2110 C.ar  257  TRP257      0.0810
     94  CE3       35.1700  -64.3420   27.0800 C.ar  257  TRP257      0.0012
     95  CZ2       35.6450  -67.0800   27.6530 C.ar  257  TRP257      0.0191
     96  CZ3       34.1420  -65.1840   27.5120 C.ar  257  TRP257      0.0001
     97  CH2       34.3860  -66.5340   27.7930 C.ar  257  TRP257      0.0015
     98  N         36.6220  -55.0720   28.5930 N.3   260  ASN260     -0.1240
     99  CA        35.5400  -54.3930   29.2880 C.3   260  ASN260      0.1653
    100  C         35.6830  -52.8690   29.2270 C.2   260  ASN260      0.2266
    101  O         36.3910  -52.3340   28.3750 O.2   260  ASN260     -0.2867
    102  CB        35.4210  -54.8620   30.7380 C.3   260  ASN260      0.1155
    103  CG        36.6240  -54.4920   31.5690 C.2   260  ASN260      0.2627
    104  OD1       37.4620  -53.6910   31.1490 O.2   260  ASN260     -0.2716
    105  ND2       36.7160  -55.0640   32.7620 N.am  260  ASN260     -0.0877
    106  N         37.2020  -50.7820   30.8180 N.3   262  GLN262     -0.1245
    107  CA        38.5160  -50.2210   31.0850 C.3   262  GLN262      0.1566
    108  C         39.5690  -50.7910   30.1530 C.2   262  GLN262      0.2260
    109  O         40.7550  -50.7380   30.4550 O.2   262  GLN262     -0.2867
    110  CB        38.9130  -50.4870   32.5320 C.3   262  GLN262      0.0367
    111  CG        37.9390  -49.9150   33.5390 C.3   262  GLN262      0.0905
    112  CD        38.2660  -50.3460   34.9490 C.2   262  GLN262      0.2608
    113  OE1       39.2680  -51.0240   35.1850 O.2   262  GLN262     -0.2717
    114  NE2       37.4220  -49.9570   35.8980 N.am  262  GLN262     -0.0878
    115  N         40.3160  -53.7240   29.5990 N.3   264  LYS264     -0.1231
    116  CA        40.9220  -54.9470   30.1320 C.3   264  LYS264      0.1693
    117  C         40.1580  -56.2270   29.7830 C.2   264  LYS264      0.2592
    118  O         38.9520  -56.1900   29.5320 O.2   264  LYS264     -0.2718
    119  CB        41.0780  -54.8300   31.6450 C.3   264  LYS264      0.0285
    120  CG        41.8490  -53.5920   32.0490 C.3   264  LYS264      0.0035
    121  CD        42.3850  -53.6860   33.4630 C.3   264  LYS264      0.0206
    122  CE        43.5620  -52.7320   33.6510 C.3   264  LYS264      0.1093
    123  NZ        43.2860  -51.3960   33.0520 N.3   264  LYS264     -0.1314
    124  N         40.8670  -57.3570   29.7850 N.am  265  LEU265     -0.1966
    125  CA        40.2630  -58.6580   29.5120 C.3   265  LEU265      0.1728
    126  C         39.6380  -59.2130   30.7870 C.2   265  LEU265      0.2616
    127  O         40.2400  -60.0280   31.4910 O.2   265  LEU265     -0.2715
    128  CB        41.2990  -59.6430   28.9650 C.3   265  LEU265      0.0311
    129  CG        41.9660  -59.2900   27.6360 C.3   265  LEU265      0.0022
    130  CD1       43.1070  -60.2750   27.3110 C.3   265  LEU265      0.0001
    131  CD2       40.9380  -59.2620   26.5220 C.3   265  LEU265      0.0001
    132  N         38.4270  -58.7540   31.0760 N.am  266  ALA266     -0.1964
    133  CA        37.7290  -59.1000   32.3050 C.3   266  ALA266      0.1713
    134  C         36.2470  -58.8700   32.0650 C.2   266  ALA266      0.2458
    135  O         35.8650  -58.3300   31.0260 O.2   266  ALA266     -0.2730
    136  CB        38.2300  -58.2440   33.4680 C.3   266  ALA266      0.0333
    137  N         35.4030  -59.2940   33.0100 N.am  267  PRO267     -0.2716
    138  CA        33.9660  -59.1730   32.7550 C.3   267  PRO267      0.1536
    139  C         33.4820  -57.7280   32.7950 C.2   267  PRO267      0.2598
    140  O         34.1950  -56.8360   33.2580 O.2   267  PRO267     -0.2715
    141  CB        33.3420  -59.9740   33.9040 C.3   267  PRO267      0.0310
    142  CG        34.4080  -60.9370   34.3170 C.3   267  PRO267      0.0237
    143  CD        35.6840  -60.1540   34.1720 C.3   267  PRO267      0.0939
    144  N         32.2740  -57.5150   32.2860 N.am  268  ARG268     -0.1964
    145  CA        31.5590  -56.2630   32.4660 C.3   268  ARG268      0.1729
    146  C         30.5010  -56.5080   33.5200 C.2   268  ARG268      0.2616
    147  O         30.2190  -57.6560   33.8760 O.2   268  ARG268     -0.2715
    148  CB        30.9220  -55.8500   31.1490 C.3   268  ARG268      0.0348
    149  CG        31.9480  -55.3820   30.1190 C.3   268  ARG268      0.0492
    150  CD        31.3940  -55.3840   28.7070 C.3   268  ARG268      0.2205
    151  NE        32.3240  -54.7420   27.7900 N.pl3 268  ARG268     -0.0865
    152  CZ        32.2440  -53.4630   27.4240 C.cat 268  ARG268      0.5346
    153  NH1       31.2520  -52.7010   27.8750 N.pl3 268  ARG268      0.1354
    154  NH2       33.1440  -52.9500   26.5950 N.pl3 268  ARG268      0.1354
    155  N         29.9100  -55.4440   34.0300 N.am  269  VAL269     -0.1977
    156  CA        28.9070  -55.5790   35.0740 C.3   269  VAL269      0.1596
    157  C         27.9360  -54.4180   34.9820 C.2   269  VAL269      0.2287
    158  O         28.3500  -53.2710   34.8050 O.2   269  VAL269     -0.2864
    159  CB        29.5450  -55.6090   36.4810 C.3   269  VAL269      0.0276
    160  CG1       30.3160  -54.3190   36.7610 C.3   269  VAL269      0.0022
    161  CG2       28.4830  -55.8150   37.5340 C.3   269  VAL269      0.0022
@<TRIPOS>BOND
     1    84    85    1
     2    46    44   am
     3    87    86    2
     4    86    85    1
     5    85    88    1
     6    44    45    2
     7    44    43    1
     8    41    40    2
     9    88    89    1
    10    89    90   ar
    11    89    91   ar
    12   131   129    1
    13    90    92   ar
    14    43    42    1
    15   154   152    1
    16    91    94   ar
    17    91    93   ar
    18    92    93   ar
    19    94    96   ar
    20    93    95   ar
    21    40    39    1
    22   130   129    1
    23   152   151    2
    24   152   153    1
    25    96    97   ar
    26   129   128    1
    27    95    97   ar
    28    39    42    1
    29    39    38    1
    30   151   150    1
    31    32    31    2
    32    73    72    2
    33    72    71    1
    34   101   100    2
    35    98    99    1
    36    78    76   ar
    37    78    79   ar
    38    76    75   ar
    39   150   149    1
    40    38    31   am
    41    31    30    1
    42   128   125    1
    43   100    99    1
    44    99   102    1
    45    71    74    1
    46    71    70    1
    47   125   124    1
    48   125   126    1
    49   118   117    2
    50   115   116    1
    51    79    81   ar
    52    79    77   ar
    53    75    74    1
    54    75    77   ar
    55   117   124   am
    56   117   116    1
    57    81    83   ar
    58   149   148    1
    59   116   119    1
    60   108   109    2
    61   108   107    1
    62    30    33    1
    63    30    29    1
    64    77    80   ar
    65    33    34    1
    66   102   103    1
    67   126   132   am
    68   126   127    2
    69   106   107    1
    70   135   134    2
    71   132   133    1
    72   107   110    1
    73   104   103    2
    74   148   145    1
    75    83    82   ar
    76    80    82   ar
    77   103   105   am
    78   119   120    1
    79    34    35    1
    80    35    36    1
    81   120   121    1
    82   134   133    1
    83   134   137   am
    84   144   145    1
    85   144   139   am
    86   133   136    1
    87   145   146    1
    88   110   111    1
    89   138   139    1
    90   138   137    1
    91   138   141    1
    92   139   140    2
    93   137   143    1
    94   123   122    1
    95    36    37    1
    96   121   122    1
    97   146   147    2
    98   146   155   am
    99   111   112    1
   100   141   142    1
   101   155   156    1
   102    61    60    2
   103   143   142    1
   104    60    59    1
   105    17    19   ar
   106    17    15   ar
   107   158   157    2
   108    19    18   ar
   109   112   113    2
   110   112   114   am
   111   157   156    1
   112   156   159    1
   113    15    14   ar
   114    59    58    1
   115    59    62    1
   116    18    16   ar
   117    12    11    2
   118    62    63    1
   119    14    16   ar
   120    14    13    1
   121   159   160    1
   122   159   161    1
   123    10    11    1
   124    10    13    1
   125    10     9    1
   126    11    20   am
   127    23    22    2
   128    63    64   ar
   129    63    65   ar
   130    64    66   ar
   131    22    21    1
   132    20    21    1
   133    21    24    1
   134    49    50    2
   135    49    48    1
   136    65    67   ar
   137    66    68   ar
   138    48    51    1
   139    48    47    1
   140    67    68   ar
   141    24    25    1
   142    68    69    1
   143    25    26    1
   144    51    52    1
   145     4     3    2
   146     7     6    1
   147    52    53    1
   148     3     2    1
   149    26    27    1
   150     2     1    1
   151     2     5    1
   152    53    54    1
   153     6     5    1
   154     6     8    1
   155    27    28    1
   156    54    55    2
   157    56    55    1
   158    55    57    1
