@<TRIPOS>MOLECULE
tmp/3t7gA00.pdb
 167 161 0 0 0
SMALL
GASTEIGER

@<TRIPOS>ATOM
      1  N         32.5420  -42.4540   29.5080 N.3    88  LEU88      -0.1245
      2  CA        32.1440  -41.5820   28.4070 C.3    88  LEU88       0.1561
      3  C         32.2130  -42.2790   27.0460 C.2    88  LEU88       0.2260
      4  O         31.3470  -42.0860   26.1980 O.2    88  LEU88      -0.2867
      5  CB        33.0020  -40.3140   28.3960 C.3    88  LEU88       0.0270
      6  CG        32.6320  -39.3100   27.2980 C.3    88  LEU88       0.0019
      7  CD1       31.1980  -38.8080   27.4720 C.3    88  LEU88       0.0001
      8  CD2       33.6310  -38.1580   27.3010 C.3    88  LEU88       0.0001
      9  N         28.9400  -44.2220   26.4460 N.3    91  PHE91      -0.1227
     10  CA        27.9600  -43.2150   26.0330 C.3    91  PHE91       0.1736
     11  C         28.1280  -42.8310   24.5570 C.2    91  PHE91       0.2595
     12  O         27.1720  -42.8570   23.7810 O.2    91  PHE91      -0.2718
     13  CB        28.0910  -41.9980   26.9630 C.3    91  PHE91       0.0547
     14  CG        27.1800  -40.8440   26.6290 C.ar   91  PHE91      -0.0202
     15  CD1       25.8220  -40.8960   26.9200 C.ar   91  PHE91      -0.0042
     16  CD2       27.6940  -39.6770   26.0820 C.ar   91  PHE91      -0.0042
     17  CE1       24.9990  -39.8340   26.6460 C.ar   91  PHE91      -0.0003
     18  CE2       26.8680  -38.6100   25.7940 C.ar   91  PHE91      -0.0003
     19  CZ        25.5130  -38.6880   26.0790 C.ar   91  PHE91      -0.0000
     20  N         29.3570  -42.5170   24.1550 N.am   92  LYS92      -0.1980
     21  CA        29.6270  -42.0760   22.7840 C.3    92  LYS92       0.1596
     22  C         29.3320  -43.1610   21.7640 C.2    92  LYS92       0.2287
     23  O         28.7420  -42.8930   20.7200 O.2    92  LYS92      -0.2864
     24  CB        31.0960  -41.6180   22.6260 C.3    92  LYS92       0.0298
     25  CG        31.4960  -41.3080   21.1860 C.3    92  LYS92       0.0038
     26  CD        33.0130  -41.1680   21.0060 C.3    92  LYS92       0.0206
     27  CE        33.5880  -40.0500   21.8760 C.3    92  LYS92       0.1093
     28  NZ        34.9990  -39.7120   21.4990 N.3    92  LYS92      -0.1314
     29  N         22.7080  -45.3160   18.8310 N.3    96  LYS96      -0.1231
     30  CA        21.5120  -44.5850   19.2490 C.3    96  LYS96       0.1693
     31  C         20.2320  -45.0190   18.5390 C.2    96  LYS96       0.2591
     32  O         19.1460  -44.9800   19.1290 O.2    96  LYS96      -0.2718
     33  CB        21.7270  -43.0780   19.0840 C.3    96  LYS96       0.0285
     34  CG        23.0560  -42.5840   19.6360 C.3    96  LYS96       0.0035
     35  CD        23.2070  -42.8710   21.1350 C.3    96  LYS96       0.0206
     36  CE        24.4850  -42.2010   21.6840 C.3    96  LYS96       0.1093
     37  NZ        25.7300  -42.7090   20.9960 N.3    96  LYS96      -0.1314
     38  N         20.3390  -45.4250   17.2760 N.am   97  GLN97      -0.1979
     39  CA        19.1570  -45.8690   16.5500 C.3    97  GLN97       0.1601
     40  C         18.6470  -47.1930   17.1220 C.2    97  GLN97       0.2287
     41  O         17.4610  -47.3500   17.3790 O.2    97  GLN97      -0.2864
     42  CB        19.4250  -46.0020   15.0460 C.3    97  GLN97       0.0394
     43  CG        18.2290  -46.3400   14.2730 C.3    97  GLN97       0.0908
     44  CD        17.0490  -45.3800   14.4550 C.2    97  GLN97       0.2608
     45  OE1       17.1900  -44.1800   14.0780 O.2    97  GLN97      -0.2717
     46  NE2       16.0030  -45.8190   15.0370 N.am   97  GLN97      -0.0878
     47  N         34.8430  -33.0360   36.3520 N.3   131  LYS131     -0.1245
     48  CA        34.7440  -31.6830   35.8150 C.3   131  LYS131      0.1561
     49  C         33.3860  -31.0490   36.1160 C.2   131  LYS131      0.2260
     50  O         33.1390  -29.9030   35.7590 O.2   131  LYS131     -0.2867
     51  CB        34.9960  -31.7010   34.3040 C.3   131  LYS131      0.0271
     52  CG        36.3340  -32.3310   33.9000 C.3   131  LYS131      0.0035
     53  CD        36.5240  -32.2990   32.3890 C.3   131  LYS131      0.0206
     54  CE        37.9030  -32.8030   31.9790 C.3   131  LYS131      0.1093
     55  NZ        38.0670  -32.7930   30.4960 N.3   131  LYS131     -0.1314
     56  N         30.5750  -31.7210   34.6610 N.3   133  ARG133     -0.1245
     57  CA        29.9140  -31.4970   33.3890 C.3   133  ARG133      0.1563
     58  C         29.0190  -32.7130   33.1250 C.2   133  ARG133      0.2260
     59  O         29.4090  -33.8510   33.3870 O.2   133  ARG133     -0.2867
     60  CB        30.9520  -31.3310   32.2710 C.3   133  ARG133      0.0307
     61  CG        31.9430  -30.2100   32.4830 C.3   133  ARG133      0.0489
     62  CD        33.0060  -30.2820   31.4150 C.3   133  ARG133      0.2205
     63  NE        33.8270  -29.0880   31.4730 N.pl3 133  ARG133     -0.0865
     64  CZ        34.2840  -28.4770   30.3890 C.cat 133  ARG133      0.5346
     65  NH1       34.1210  -28.9670   29.1720 N.pl3 133  ARG133      0.1354
     66  NH2       34.9510  -27.3370   30.5090 N.pl3 133  ARG133      0.1354
     67  N         26.6260  -34.7320   30.3470 N.3   135  TYR135     -0.1241
     68  CA        26.2080  -34.9400   28.9610 C.3   135  TYR135      0.1605
     69  C         24.9320  -35.7700   28.9890 C.2   135  TYR135      0.2264
     70  O         24.8550  -36.7670   29.7050 O.2   135  TYR135     -0.2867
     71  CB        27.2860  -35.7070   28.1730 C.3   135  TYR135      0.0534
     72  CG        28.6670  -35.1000   28.2470 C.ar  135  TYR135     -0.0201
     73  CD1       29.1790  -34.3590   27.1880 C.ar  135  TYR135     -0.0009
     74  CD2       29.4650  -35.2810   29.3710 C.ar  135  TYR135     -0.0009
     75  CE1       30.4540  -33.8040   27.2520 C.ar  135  TYR135      0.0417
     76  CE2       30.7380  -34.7260   29.4470 C.ar  135  TYR135      0.0417
     77  CZ        31.2240  -33.9880   28.3870 C.ar  135  TYR135      0.1957
     78  OH        32.4830  -33.4420   28.4570 O.3   135  TYR135     -0.2866
     79  N         21.1250  -36.9040   26.5740 N.3   137  TRP137     -0.1241
     80  CA        20.3770  -36.8450   25.3300 C.3   137  TRP137      0.1605
     81  C         19.0140  -37.4150   25.6250 C.2   137  TRP137      0.2264
     82  O         18.8980  -38.5680   26.0790 O.2   137  TRP137     -0.2867
     83  CB        21.1130  -37.6860   24.2780 C.3   137  TRP137      0.0550
     84  CG        20.7760  -37.3440   22.8610 C.ar  137  TRP137      0.0003
     85  CD1       19.7100  -36.6040   22.4130 C.ar  137  TRP137      0.0946
     86  CD2       21.5080  -37.7430   21.6990 C.ar  137  TRP137      0.0152
     87  NE1       19.7320  -36.5230   21.0340 N.ar  137  TRP137     -0.2442
     88  CE2       20.8300  -37.2030   20.5730 C.ar  137  TRP137      0.0810
     89  CE3       22.6750  -38.4920   21.4940 C.ar  137  TRP137      0.0012
     90  CZ2       21.2830  -37.4050   19.2620 C.ar  137  TRP137      0.0191
     91  CZ3       23.1280  -38.6850   20.1900 C.ar  137  TRP137      0.0001
     92  CH2       22.4260  -38.1490   19.0920 C.ar  137  TRP137      0.0015
     93  N         15.0040  -38.7390   18.7950 N.3   271  TRP271     -0.1241
     94  CA        16.1200  -38.1100   19.5050 C.3   271  TRP271      0.1605
     95  C         15.9450  -36.5770   19.4460 C.2   271  TRP271      0.2264
     96  O         15.6390  -36.0240   18.3990 O.2   271  TRP271     -0.2867
     97  CB        17.4880  -38.5140   18.9340 C.3   271  TRP271      0.0550
     98  CG        17.8540  -39.9600   19.3240 C.ar  271  TRP271      0.0003
     99  CD1       17.9430  -41.0410   18.5000 C.ar  271  TRP271      0.0946
    100  CD2       18.0940  -40.4400   20.6540 C.ar  271  TRP271      0.0152
    101  NE1       18.2650  -42.1620   19.2340 N.ar  271  TRP271     -0.2442
    102  CE2       18.3530  -41.8180   20.5530 C.ar  271  TRP271      0.0810
    103  CE3       18.1310  -39.8210   21.9140 C.ar  271  TRP271      0.0012
    104  CZ2       18.6560  -42.5930   21.6700 C.ar  271  TRP271      0.0191
    105  CZ3       18.4180  -40.5940   23.0200 C.ar  271  TRP271      0.0001
    106  CH2       18.6660  -41.9730   22.8930 C.ar  271  TRP271      0.0015
    107  N         19.8760  -30.6670   19.5140 N.3   274  ASN274     -0.1240
    108  CA        20.6110  -29.8880   20.5110 C.3   274  ASN274      0.1653
    109  C         20.6180  -28.3770   20.2620 C.2   274  ASN274      0.2266
    110  O         19.8120  -27.8630   19.4870 O.2   274  ASN274     -0.2867
    111  CB        22.0270  -30.4070   20.6850 C.3   274  ASN274      0.1155
    112  CG        22.9550  -30.0250   19.5310 C.2   274  ASN274      0.2627
    113  OD1       22.5440  -29.4580   18.5100 O.2   274  ASN274     -0.2716
    114  ND2       24.2210  -30.3530   19.6960 N.am  274  ASN274     -0.0877
    115  N         22.5610  -26.4760   18.6410 N.3   276  GLN276     -0.1245
    116  CA        22.7960  -26.0960   17.2490 C.3   276  GLN276      0.1566
    117  C         21.7610  -26.6790   16.2790 C.2   276  GLN276      0.2260
    118  O         21.9200  -26.5830   15.0610 O.2   276  GLN276     -0.2867
    119  CB        24.2040  -26.5030   16.8120 C.3   276  GLN276      0.0367
    120  CG        25.2940  -25.9960   17.7300 C.3   276  GLN276      0.0905
    121  CD        26.6770  -26.2210   17.1610 C.2   276  GLN276      0.2608
    122  OE1       26.9530  -27.2570   16.5560 O.2   276  GLN276     -0.2717
    123  NE2       27.5540  -25.2400   17.3430 N.am  276  GLN276     -0.0878
    124  N         21.2090  -29.8120   15.8950 N.3   278  LYS278     -0.1231
    125  CA        21.7000  -31.0980   15.4140 C.3   278  LYS278      0.1693
    126  C         21.2060  -32.2700   16.2740 C.2   278  LYS278      0.2592
    127  O         20.9020  -32.1010   17.4560 O.2   278  LYS278     -0.2718
    128  CB        23.2240  -31.0930   15.3940 C.3   278  LYS278      0.0285
    129  CG        23.7990  -29.9180   14.6480 C.3   278  LYS278      0.0035
    130  CD        23.8050  -30.1550   13.1720 C.3   278  LYS278      0.0206
    131  CE        24.4640  -29.0420   12.3680 C.3   278  LYS278      0.1093
    132  NZ        23.8920  -27.7170   12.5710 N.3   278  LYS278     -0.1314
    133  N         21.1310  -33.4520   15.6690 N.am  279  LEU279     -0.1966
    134  CA        20.8640  -34.6740   16.4090 C.3   279  LEU279      0.1728
    135  C         22.1420  -35.0670   17.1360 C.2   279  LEU279      0.2616
    136  O         22.9480  -35.8670   16.6430 O.2   279  LEU279     -0.2715
    137  CB        20.3720  -35.7880   15.4750 C.3   279  LEU279      0.0311
    138  CG        19.0000  -35.5120   14.8430 C.3   279  LEU279      0.0022
    139  CD1       18.6670  -36.4690   13.7110 C.3   279  LEU279      0.0001
    140  CD2       17.8920  -35.5320   15.8930 C.3   279  LEU279      0.0001
    141  N         22.3180  -34.4780   18.3150 N.am  280  ALA280     -0.1964
    142  CA        23.5080  -34.6930   19.1280 C.3   280  ALA280      0.1713
    143  C         23.1790  -34.3510   20.5800 C.2   280  ALA280      0.2458
    144  O         22.1900  -33.6660   20.8520 O.2   280  ALA280     -0.2730
    145  CB        24.6730  -33.8270   18.6130 C.3   280  ALA280      0.0333
    146  N         24.0010  -34.8350   21.5160 N.am  281  PRO281     -0.2727
    147  CA        23.7240  -34.6780   22.9440 C.3   281  PRO281      0.1402
    148  C         23.7800  -33.2260   23.3650 C.2   281  PRO281      0.2269
    149  O         24.3380  -32.4070   22.6570 O.2   281  PRO281     -0.2865
    150  CB        24.8810  -35.4220   23.6170 C.3   281  PRO281      0.0296
    151  CG        25.4290  -36.3130   22.5630 C.3   281  PRO281      0.0237
    152  CD        25.2410  -35.5760   21.2790 C.3   281  PRO281      0.0939
    153  N         24.9640  -30.6600   26.6600 N.3   283  VAL283     -0.1245
    154  CA        25.9750  -30.6330   27.7110 C.3   283  VAL283      0.1561
    155  C         25.6890  -29.4790   28.6870 C.2   283  VAL283      0.2260
    156  O         25.3590  -28.3680   28.2660 O.2   283  VAL283     -0.2867
    157  CB        27.3720  -30.3800   27.1240 C.3   283  VAL283      0.0252
    158  CG1       28.4400  -30.6170   28.1770 C.3   283  VAL283      0.0019
    159  CG2       27.6120  -31.2510   25.8930 C.3   283  VAL283      0.0019
    160  N         27.0790  -27.5550   32.5040 N.3   285  ASP285     -0.1239
    161  CA        28.1820  -27.3810   33.4530 C.3   285  ASP285      0.1674
    162  C         27.6550  -26.8910   34.7980 C.2   285  ASP285      0.2266
    163  O         26.9600  -25.8810   34.8570 O.2   285  ASP285     -0.2867
    164  CB        29.1570  -26.3330   32.9130 C.3   285  ASP285      0.1410
    165  CG        30.5780  -26.8400   32.8340 C.2   285  ASP285      0.3668
    166  OD1       31.3000  -26.7690   33.8560 O.co2 285  ASP285     -0.2456
    167  OD2       30.9730  -27.3080   31.7440 O.co2 285  ASP285     -0.2456
@<TRIPOS>BOND
     1   131   132    1
     2   131   130    1
     3   130   129    1
     4   139   138    1
     5    45    44    2
     6    43    44    1
     7    43    42    1
     8    44    46   am
     9   129   128    1
    10   138   137    1
    11   138   140    1
    12    42    39    1
    13   118   117    2
    14   128   125    1
    15   125   124    1
    16   125   126    1
    17   137   134    1
    18   133   126   am
    19   133   134    1
    20   126   127    2
    21   117   116    1
    22   134   135    1
    23    39    40    1
    24    39    38    1
    25   122   121    2
    26   136   135    2
    27   119   116    1
    28   119   120    1
    29    40    41    2
    30   135   141   am
    31   121   123   am
    32   121   120    1
    33   116   115    1
    34    38    31   am
    35   141   142    1
    36    96    95    2
    37    99   101   ar
    38    99    98   ar
    39   113   112    2
    40    31    32    2
    41    31    30    1
    42   145   142    1
    43    93    94    1
    44    29    30    1
    45    97    98    1
    46    97    94    1
    47    33    30    1
    48    33    34    1
    49    92    90   ar
    50    92    91   ar
    51   142   143    1
    52   101   102   ar
    53    90    88   ar
    54    98   100   ar
    55    95    94    1
    56   110   109    2
    57   107   108    1
    58   112   114   am
    59   112   111    1
    60    34    35    1
    61    91    89   ar
    62   109   108    1
    63   108   111    1
    64   102   100   ar
    65   102   104   ar
    66    88    87   ar
    67    88    86   ar
    68   143   144    2
    69   143   146   am
    70   100   103   ar
    71    23    22    2
    72    37    36    1
    73    26    25    1
    74    26    27    1
    75    87    85   ar
    76    35    36    1
    77    25    24    1
    78   152   146    1
    79   152   151    1
    80    89    86   ar
    81    28    27    1
    82   146   147    1
    83   104   106   ar
    84    86    84   ar
    85    22    21    1
    86   103   105   ar
    87    85    84   ar
    88   151   150    1
    89    24    21    1
    90   149   148    2
    91    21    20    1
    92    84    83    1
    93   106   105   ar
    94   147   148    1
    95   147   150    1
    96    12    11    2
    97    20    11   am
    98    83    80    1
    99    11    10    1
   100    80    81    1
   101    80    79    1
   102    81    82    2
   103    18    19   ar
   104    18    16   ar
   105   159   157    1
   106    10     9    1
   107    10    13    1
   108    19    17   ar
   109    16    14   ar
   110     4     3    2
   111    14    15   ar
   112    14    13    1
   113    17    15   ar
   114   153   154    1
   115     3     2    1
   116   157   154    1
   117   157   158    1
   118    73    75   ar
   119    73    72   ar
   120    75    77   ar
   121     6     8    1
   122     6     7    1
   123     6     5    1
   124   154   155    1
   125    71    72    1
   126    71    68    1
   127    72    74   ar
   128   156   155    2
   129    77    78    1
   130    77    76   ar
   131     5     2    1
   132     2     1    1
   133    68    69    1
   134    68    67    1
   135    69    70    2
   136    65    64    1
   137    74    76   ar
   138    64    66    1
   139    64    63    2
   140    55    54    1
   141    62    63    1
   142    62    61    1
   143   167   165   ar
   144    54    53    1
   145    60    61    1
   146    60    57    1
   147    53    52    1
   148   160   161    1
   149   165   164    1
   150   165   166   ar
   151   164   161    1
   152    58    59    2
   153    58    57    1
   154    57    56    1
   155   161   162    1
   156    52    51    1
   157    51    48    1
   158   162   163    2
   159    50    49    2
   160    48    49    1
   161    48    47    1
