@<TRIPOS>MOLECULE
tmp/3t7kC00.pdb
 140 136 0 0 0
SMALL
GASTEIGER

@<TRIPOS>ATOM
      1  N         20.3150   29.6380   14.4340 N.3    21  CYS21      -0.1221
      2  CA        21.5280   30.2440   14.9560 C.3    21  CYS21       0.1808
      3  C         21.1730   30.9450   16.2450 C.2    21  CYS21       0.2602
      4  O         20.0620   31.4560   16.3840 O.2    21  CYS21      -0.2717
      5  CB        22.0590   31.2890   13.9940 C.3    21  CYS21       0.0970
      6  SG        22.3340   30.6200   12.3550 S.3    21  CYS21      -0.0800
      7  N         22.1180   30.9640   17.1740 N.am   22  THR22      -0.1939
      8  CA        21.9640   31.6980   18.4260 C.3    22  THR22       0.2028
      9  C         23.3290   32.3040   18.6790 C.2    22  THR22       0.2643
     10  O         24.3460   31.6460   18.4440 O.2    22  THR22      -0.2714
     11  CB        21.5060   30.7650   19.5810 C.3    22  THR22       0.1808
     12  OG1       21.2520   31.5290   20.7690 O.3    22  THR22      -0.2208
     13  CG2       22.5540   29.6960   19.8780 C.3    22  THR22       0.0379
     14  N         23.3700   33.5680   19.0940 N.am   23  GLY23      -0.1939
     15  CA        24.6430   34.2530   19.2240 C.3    23  GLY23       0.2014
     16  C         25.2840   34.4980   17.8570 C.2    23  GLY23       0.2639
     17  O         26.5000   34.7160   17.7650 O.2    23  GLY23      -0.2714
     18  N         24.4720   34.4540   16.7970 N.am   24  CYS24      -0.1967
     19  CA        24.9680   34.6860   15.4300 C.3    24  CYS24       0.1712
     20  C         23.8680   34.8950   14.3820 C.2    24  CYS24       0.2296
     21  O         22.7050   34.5290   14.6020 O.2    24  CYS24      -0.2864
     22  CB        25.9650   33.5890   14.9960 C.3    24  CYS24       0.0983
     23  SG        25.4790   31.8130   15.2040 S.3    24  CYS24      -0.0798
     24  N         21.8550   37.1860   13.2780 N.3    26  HIS26      -0.1241
     25  CA        20.5890   37.5060   13.9360 C.3    26  HIS26       0.1621
     26  C         19.4280   38.0030   13.0370 C.2    26  HIS26       0.2264
     27  O         18.2820   38.0460   13.4820 O.2    26  HIS26      -0.2867
     28  CB        20.8010   38.4020   15.1680 C.3    26  HIS26       0.0745
     29  CG        19.6170   38.4490   16.0850 C.ar   26  HIS26       0.0817
     30  ND1       19.0920   37.3200   16.6830 N.ar   26  HIS26      -0.2268
     31  CD2       18.8510   39.4800   16.4870 C.ar   26  HIS26       0.1154
     32  CE1       18.0500   37.6670   17.4250 C.ar   26  HIS26       0.1986
     33  NE2       17.8820   38.9740   17.3190 N.ar   26  HIS26      -0.2212
     34  N         29.0910   27.3410   23.7410 N.3    62  ILE62      -0.1231
     35  CA        27.9820   26.9790   24.6190 C.3    62  ILE62       0.1692
     36  C         27.3620   28.2380   25.2180 C.2    62  ILE62       0.2592
     37  O         28.0390   29.0290   25.8780 O.2    62  ILE62      -0.2718
     38  CB        28.4170   26.0020   25.7270 C.3    62  ILE62       0.0266
     39  CG1       28.8770   24.6820   25.1090 C.3    62  ILE62       0.0019
     40  CG2       27.2710   25.7390   26.6910 C.3    62  ILE62       0.0020
     41  CD1       29.2580   23.6370   26.1330 C.3    62  ILE62       0.0001
     42  N         26.0740   28.4360   24.9560 N.am   63  LEU63      -0.1966
     43  CA        25.3720   29.6330   25.4130 C.3    63  LEU63       0.1728
     44  C         24.1050   29.3080   26.1940 C.2    63  LEU63       0.2616
     45  O         23.4880   28.2520   26.0060 O.2    63  LEU63      -0.2715
     46  CB        25.0090   30.5310   24.2310 C.3    63  LEU63       0.0311
     47  CG        26.1590   31.1830   23.4700 C.3    63  LEU63       0.0022
     48  CD1       25.6150   31.9210   22.2610 C.3    63  LEU63       0.0001
     49  CD2       26.9460   32.1230   24.3780 C.3    63  LEU63       0.0001
     50  N         23.7120   30.2350   27.0610 N.am   64  ARG64      -0.1963
     51  CA        22.5280   30.0500   27.8790 C.3    64  ARG64       0.1729
     52  C         21.3030   30.6910   27.2440 C.2    64  ARG64       0.2617
     53  O         20.3580   31.0470   27.9440 O.2    64  ARG64      -0.2715
     54  CB        22.7600   30.6330   29.2770 C.3    64  ARG64       0.0348
     55  CG        23.9010   29.9570   30.0300 C.3    64  ARG64       0.0492
     56  CD        24.2210   30.6740   31.3240 C.3    64  ARG64       0.2205
     57  NE        24.5270   29.7230   32.3840 N.pl3  64  ARG64      -0.0865
     58  CZ        23.7410   29.5060   33.4310 C.cat  64  ARG64       0.5346
     59  NH1       22.6060   30.1850   33.5640 N.pl3  64  ARG64       0.1354
     60  NH2       24.0910   28.6120   34.3420 N.pl3  64  ARG64       0.1354
     61  N         21.3080   30.8530   25.9240 N.am   65  THR65      -0.1937
     62  CA        20.1350   31.4030   25.2630 C.3    65  THR65       0.2028
     63  C         19.0440   30.3670   25.2650 C.2    65  THR65       0.2642
     64  O         19.3270   29.1830   25.3530 O.2    65  THR65      -0.2714
     65  CB        20.4130   31.7420   23.7870 C.3    65  THR65       0.1808
     66  OG1       21.0900   30.6310   23.1690 O.3    65  THR65      -0.2208
     67  CG2       21.2480   33.0080   23.6790 C.3    65  THR65       0.0379
     68  N         17.8000   30.8050   25.1400 N.am   66  GLU66      -0.1963
     69  CA        16.6870   29.8860   24.9370 C.3    66  GLU66       0.1733
     70  C         16.9620   28.9140   23.7840 C.2    66  GLU66       0.2616
     71  O         16.6980   27.7140   23.8820 O.2    66  GLU66      -0.2715
     72  CB        15.4100   30.6730   24.6470 C.3    66  GLU66       0.0429
     73  CG        14.2030   29.8040   24.3410 C.3    66  GLU66       0.1163
     74  CD        12.9630   30.6260   24.0510 C.2    66  GLU66       0.3649
     75  OE1       13.0980   31.8570   23.8940 O.co2  66  GLU66      -0.2457
     76  OE2       11.8510   30.0530   23.9830 O.co2  66  GLU66      -0.2457
     77  N         17.5070   29.4370   22.6930 N.am   67  LYS67      -0.1977
     78  CA        17.7550   28.6150   21.5080 C.3    67  LYS67       0.1596
     79  C         18.7730   27.5220   21.7600 C.2    67  LYS67       0.2287
     80  O         18.5390   26.3600   21.4100 O.2    67  LYS67      -0.2864
     81  CB        18.1980   29.4810   20.3330 C.3    67  LYS67       0.0298
     82  CG        17.0530   29.9860   19.4930 C.3    67  LYS67       0.0038
     83  CD        17.5790   30.8930   18.3930 C.3    67  LYS67       0.0206
     84  CE        16.5080   31.2030   17.3760 C.3    67  LYS67       0.1093
     85  NZ        16.9200   32.3560   16.5300 N.3    67  LYS67      -0.1314
     86  N         19.6320   26.2150   24.6910 N.3    69  LEU69      -0.1245
     87  CA        19.1310   25.2350   25.6510 C.3    69  LEU69       0.1561
     88  C         18.1180   24.3210   24.9890 C.2    69  LEU69       0.2260
     89  O         18.0680   23.1130   25.2660 O.2    69  LEU69      -0.2867
     90  CB        18.4960   25.9370   26.8560 C.3    69  LEU69       0.0270
     91  CG        19.4810   26.7500   27.6940 C.3    69  LEU69       0.0019
     92  CD1       18.7340   27.6020   28.7250 C.3    69  LEU69       0.0001
     93  CD2       20.4720   25.8330   28.3610 C.3    69  LEU69       0.0001
     94  N         14.2280   35.3890   36.7400 N.3   138  PRO138     -0.2102
     95  CA        14.9760   36.0650   35.6720 C.3   138  PRO138      0.1504
     96  C         14.8720   35.3510   34.3220 C.2   138  PRO138      0.2576
     97  O         15.1940   34.1650   34.2150 O.2   138  PRO138     -0.2718
     98  CB        16.4240   36.0440   36.1860 C.3   138  PRO138      0.0282
     99  CG        16.4100   35.1860   37.4360 C.3   138  PRO138      0.0208
    100  CD        15.0270   35.2660   37.9670 C.3   138  PRO138      0.0893
    101  N         14.4420   36.0890   33.3040 N.am  139  GLY139     -0.1957
    102  CA        14.1500   35.5320   31.9940 C.3   139  GLY139      0.1869
    103  C         12.6460   35.5530   31.7870 C.2   139  GLY139      0.2309
    104  O         12.1470   35.6230   30.6540 O.2   139  GLY139     -0.2863
    105  N          9.4530   32.2090   28.9660 N.3   143  THR143     -0.1203
    106  CA        10.6440   31.6900   28.3120 C.3   143  THR143      0.1994
    107  C         11.1640   30.4790   29.0550 C.2   143  THR143      0.2617
    108  O         11.2760   29.3750   28.4980 O.2   143  THR143     -0.2717
    109  CB        11.7610   32.7350   28.3190 C.3   143  THR143      0.1784
    110  OG1       11.4130   33.7930   27.4230 O.3   143  THR143     -0.2211
    111  CG2       13.0800   32.1150   27.8690 C.3   143  THR143      0.0376
    112  N         11.4910   30.7020   30.3250 N.am  144  ILE144     -0.1979
    113  CA        11.9760   29.6400   31.1770 C.3   144  ILE144      0.1595
    114  C         10.9910   28.4860   31.1470 C.2   144  ILE144      0.2287
    115  O         11.3810   27.3250   31.1110 O.2   144  ILE144     -0.2864
    116  CB        12.2000   30.1440   32.6020 C.3   144  ILE144      0.0276
    117  CG1       13.4720   30.9860   32.6270 C.3   144  ILE144      0.0022
    118  CG2       12.2970   28.9710   33.5790 C.3   144  ILE144      0.0022
    119  CD1       13.6320   31.7940   33.8860 C.3   144  ILE144      0.0001
    120  N         11.4630   26.5990   27.7260 N.3   147  VAL147     -0.1245
    121  CA        12.6640   25.7660   27.8060 C.3   147  VAL147      0.1561
    122  C         12.4390   24.4810   28.6180 C.2   147  VAL147      0.2260
    123  O         12.7840   23.3710   28.1850 O.2   147  VAL147     -0.2867
    124  CB        13.8310   26.5510   28.4280 C.3   147  VAL147      0.0252
    125  CG1       14.9530   25.6180   28.8080 C.3   147  VAL147      0.0019
    126  CG2       14.3180   27.6340   27.4700 C.3   147  VAL147      0.0019
    127  N         17.3410   28.2330   39.2660 N.3   209  TRP209     -0.1241
    128  CA        17.2700   28.0490   37.8180 C.3   209  TRP209      0.1605
    129  C         18.5400   27.3760   37.3230 C.2   209  TRP209      0.2264
    130  O         18.4930   26.4600   36.5070 O.2   209  TRP209     -0.2867
    131  CB        17.0480   29.4000   37.1200 C.3   209  TRP209      0.0550
    132  CG        17.2410   29.3790   35.6190 C.ar  209  TRP209      0.0003
    133  CD1       18.1380   30.1180   34.9040 C.ar  209  TRP209      0.0946
    134  CD2       16.5320   28.5750   34.6600 C.ar  209  TRP209      0.0152
    135  NE1       18.0280   29.8310   33.5650 N.ar  209  TRP209     -0.2442
    136  CE2       17.0500   28.8900   33.3870 C.ar  209  TRP209      0.0810
    137  CE3       15.5130   27.6230   34.7580 C.ar  209  TRP209      0.0012
    138  CZ2       16.5830   28.2840   32.2130 C.ar  209  TRP209      0.0191
    139  CZ3       15.0510   27.0180   33.5880 C.ar  209  TRP209      0.0001
    140  CH2       15.5860   27.3550   32.3360 C.ar  209  TRP209      0.0015
@<TRIPOS>BOND
     1     6     5    1
     2    26    27    2
     3    26    25    1
     4    24    25    1
     5    25    28    1
     6     5     2    1
     7    20    21    2
     8    20    19    1
     9     1     2    1
    10     2     3    1
    11    22    23    1
    12    22    19    1
    13    28    29    1
    14    19    18    1
    15    29    31   ar
    16    29    30   ar
    17     3     4    2
    18     3     7   am
    19    31    33   ar
    20    85    84    1
    21    30    32   ar
    22    18    16   am
    23     7     8    1
    24    33    32   ar
    25    84    83    1
    26    17    16    2
    27    16    15    1
    28    83    82    1
    29     8     9    1
    30     8    11    1
    31    10     9    2
    32     9    14   am
    33    14    15    1
    34    82    81    1
    35    11    13    1
    36    11    12    1
    37    81    78    1
    38    80    79    2
    39    78    79    1
    40    78    77    1
    41    48    47    1
    42    77    70   am
    43    66    65    1
    44    47    46    1
    45    47    49    1
    46    67    65    1
    47    34    35    1
    48    70    71    2
    49    70    69    1
    50    65    62    1
    51    75    74   ar
    52    76    74   ar
    53    74    73    1
    54    46    43    1
    55    73    72    1
    56    35    36    1
    57    35    38    1
    58    72    69    1
    59    86    87    1
    60    69    68    1
    61    42    36   am
    62    42    43    1
    63    88    89    2
    64    88    87    1
    65    39    38    1
    66    39    41    1
    67    68    63   am
    68    36    37    2
    69    62    63    1
    70    62    61    1
    71    63    64    2
    72    43    44    1
    73    87    90    1
    74    38    40    1
    75    61    52   am
    76    45    44    2
    77    44    50   am
    78    90    91    1
    79    50    51    1
    80    52    51    1
    81    52    53    2
    82   110   109    1
    83   126   124    1
    84    91    93    1
    85    91    92    1
    86   120   121    1
    87   121   124    1
    88   121   122    1
    89   111   109    1
    90    51    54    1
    91   123   122    2
    92   106   109    1
    93   106   105    1
    94   106   107    1
    95   124   125    1
    96   108   107    2
    97   107   112   am
    98    54    55    1
    99    55    56    1
   100   112   113    1
   101   104   103    2
   102   115   114    2
   103   114   113    1
   104   113   116    1
   105    56    57    1
   106   103   102    1
   107   102   101    1
   108   138   140   ar
   109   138   136   ar
   110   140   139   ar
   111    57    58    2
   112   116   117    1
   113   116   118    1
   114   117   119    1
   115   101    96   am
   116   136   135   ar
   117   136   134   ar
   118    58    59    1
   119    58    60    1
   120   135   133   ar
   121   139   137   ar
   122    97    96    2
   123    96    95    1
   124   134   137   ar
   125   134   132   ar
   126   133   132   ar
   127   132   131    1
   128    95    98    1
   129    95    94    1
   130    98    99    1
   131   130   129    2
   132    94   100    1
   133   131   128    1
   134   129   128    1
   135    99   100    1
   136   128   127    1
