@<TRIPOS>MOLECULE
tmp/3t7oA00.pdb
 105 99 0 0 0
SMALL
GASTEIGER

@<TRIPOS>ATOM
      1  N         45.0470   18.7980   34.3090 N.3    76  MET76      -0.1245
      2  CA        43.8680   18.2150   33.7010 C.3    76  MET76       0.1570
      3  C         44.1820   16.9010   32.9800 C.2    76  MET76       0.2261
      4  O         43.2680   16.2290   32.5130 O.2    76  MET76      -0.2867
      5  CB        43.3440   19.2080   32.6490 C.3    76  MET76       0.0387
      6  CG        41.8870   19.4100   32.6830 C.3    76  MET76       0.0595
      7  SD        41.5060   20.9670   31.9360 S.3    76  MET76      -0.1393
      8  CE        42.0000   20.7800   30.2410 C.3    76  MET76       0.0692
      9  N         45.4980   16.9110   30.1180 N.3    78  ARG78      -0.1245
     10  CA        45.2400   17.1990   28.7030 C.3    78  ARG78       0.1563
     11  C         46.3660   18.0760   28.1580 C.2    78  ARG78       0.2260
     12  O         46.1440   19.2240   27.7780 O.2    78  ARG78      -0.2867
     13  CB        43.8750   17.8500   28.5230 C.3    78  ARG78       0.0307
     14  CG        42.6870   16.9870   28.9870 C.3    78  ARG78       0.0489
     15  CD        42.5090   15.6760   28.1820 C.3    78  ARG78       0.2205
     16  NE        42.2680   15.8980   26.7460 N.pl3  78  ARG78      -0.0865
     17  CZ        41.1120   16.3010   26.2110 C.cat  78  ARG78       0.5346
     18  NH1       40.0580   16.5730   26.9880 N.pl3  78  ARG78       0.1354
     19  NH2       41.0170   16.4590   24.8970 N.pl3  78  ARG78       0.1354
     20  N         46.0400   20.4450   24.7550 N.3    81  LEU81      -0.1245
     21  CA        44.9010   21.3730   24.5450 C.3    81  LEU81       0.1561
     22  C         45.2830   22.8560   24.5870 C.2    81  LEU81       0.2260
     23  O         44.4080   23.7350   24.6090 O.2    81  LEU81      -0.2867
     24  CB        43.7360   21.0670   25.5170 C.3    81  LEU81       0.0270
     25  CG        42.9010   19.8340   25.1260 C.3    81  LEU81       0.0019
     26  CD1       41.7120   19.6040   26.0240 C.3    81  LEU81       0.0001
     27  CD2       42.4380   19.8880   23.6660 C.3    81  LEU81       0.0001
     28  N         29.1150   22.1630   32.9610 N.3   126  ASP126     -0.1225
     29  CA        30.1660   21.2070   32.7240 C.3   126  ASP126      0.1791
     30  C         30.0770   20.1070   33.7730 C.2   126  ASP126      0.2444
     31  O         30.1550   20.3900   34.9410 O.2   126  ASP126     -0.2733
     32  CB        31.5110   21.9030   32.8550 C.3   126  ASP126      0.1423
     33  CG        32.6580   20.9470   32.7230 C.2   126  ASP126      0.3668
     34  OD1       32.9390   20.5570   31.5740 O.co2 126  ASP126     -0.2456
     35  OD2       33.2250   20.5530   33.7970 O.co2 126  ASP126     -0.2456
     36  N         29.9430   18.8590   33.3590 N.am  127  PRO127     -0.2643
     37  CA        29.9900   17.8610   34.4280 C.3   127  PRO127      0.1762
     38  C         31.3280   17.9990   35.1360 C.2   127  PRO127      0.2642
     39  O         32.2990   18.4240   34.5260 O.2   127  PRO127     -0.2712
     40  CB        29.9380   16.5250   33.7080 C.2   127  PRO127     -0.0003
     41  CG        29.8080   16.7670   32.3430 C.2   127  PRO127     -0.0071
     42  CD        29.9800   18.2490   32.0270 C.3   127  PRO127      0.1204
     43  N         31.4040   17.6340   36.3940 N.am  128  GLY128     -0.1938
     44  CA        32.6830   17.7550   37.0760 C.3   128  GLY128      0.2014
     45  C         32.7140   19.0230   37.8840 C.2   128  GLY128      0.2638
     46  O         32.8410   18.9450   39.0710 O.2   128  GLY128     -0.2714
     47  N         32.6010   20.1850   37.2460 N.am  129  TRP129     -0.1973
     48  CA        32.5050   21.4500   37.9890 C.3   129  TRP129      0.1640
     49  C         31.3530   22.2650   37.4110 C.2   129  TRP129      0.2290
     50  O         31.5630   23.1410   36.6160 O.2   129  TRP129     -0.2864
     51  CB        33.8180   22.2460   37.9150 C.3   129  TRP129      0.0576
     52  CG        33.8590   23.2960   38.9560 C.ar  129  TRP129      0.0006
     53  CD1       33.3440   24.5540   38.8830 C.ar  129  TRP129      0.0946
     54  CD2       34.4340   23.1690   40.2400 C.ar  129  TRP129      0.0152
     55  NE1       33.5440   25.2130   40.0620 N.ar  129  TRP129     -0.2442
     56  CE2       34.2340   24.3880   40.9090 C.ar  129  TRP129      0.0810
     57  CE3       35.1130   22.1320   40.9020 C.ar  129  TRP129      0.0012
     58  CZ2       34.6600   24.5960   42.2000 C.ar  129  TRP129      0.0191
     59  CZ3       35.5410   22.3430   42.1630 C.ar  129  TRP129      0.0001
     60  CH2       35.3170   23.5600   42.8160 C.ar  129  TRP129      0.0015
     61  N         30.4450   24.3120   30.1000 N.3   134  ASN134     -0.1240
     62  CA        31.3030   23.5690   29.1490 C.3   134  ASN134      0.1653
     63  C         31.3520   24.3480   27.8550 C.2   134  ASN134      0.2266
     64  O         30.3110   24.6960   27.2950 O.2   134  ASN134     -0.2867
     65  CB        30.7950   22.1170   28.9370 C.3   134  ASN134      0.1155
     66  CG        31.6760   21.3080   28.0340 C.2   134  ASN134      0.2627
     67  OD1       31.5370   21.3830   26.8190 O.2   134  ASN134     -0.2716
     68  ND2       32.5670   20.5010   28.6160 N.am  134  ASN134     -0.0877
     69  N         42.7760   26.8180   33.1590 N.3   161  ASP161     -0.1239
     70  CA        42.9340   25.4140   32.7630 C.3   161  ASP161      0.1674
     71  C         43.8560   25.2120   31.5580 C.2   161  ASP161      0.2266
     72  O         44.0460   24.0870   31.1110 O.2   161  ASP161     -0.2867
     73  CB        41.5620   24.7260   32.5830 C.3   161  ASP161      0.1410
     74  CG        40.8260   25.1030   31.3010 C.2   161  ASP161      0.3668
     75  OD1       41.2010   26.0660   30.5950 O.co2 161  ASP161     -0.2456
     76  OD2       39.8080   24.4190   31.0050 O.co2 161  ASP161     -0.2456
     77  N         38.3660   26.9240   27.8690 N.3   165  GLN165     -0.1245
     78  CA        37.2540   26.8700   28.8580 C.3   165  GLN165      0.1566
     79  C         37.5300   27.7240   30.0870 C.2   165  GLN165      0.2260
     80  O         36.6270   28.4040   30.5740 O.2   165  GLN165     -0.2867
     81  CB        36.9320   25.4410   29.3110 C.3   165  GLN165      0.0367
     82  CG        35.5880   25.3140   30.0800 C.3   165  GLN165      0.0905
     83  CD        35.1150   23.8960   30.2340 C.2   165  GLN165      0.2608
     84  OE1       34.7250   23.2420   29.2660 O.2   165  GLN165     -0.2717
     85  NE2       35.1340   23.4090   31.4610 N.am  165  GLN165     -0.0878
     86  N         30.6600   11.3470   29.6530 N.3   193  ILE193     -0.1245
     87  CA        31.0600   11.1020   31.0420 C.3   193  ILE193      0.1561
     88  C         29.8400   11.2270   31.9920 C.2   193  ILE193      0.2260
     89  O         29.8200   10.6120   33.0500 O.2   193  ILE193     -0.2867
     90  CB        32.2830   11.9720   31.4470 C.3   193  ILE193      0.0252
     91  CG1       32.7470   11.6780   32.8770 C.3   193  ILE193      0.0019
     92  CG2       31.9820   13.4640   31.2620 C.3   193  ILE193      0.0019
     93  CD1       32.9630   10.1730   33.2480 C.3   193  ILE193      0.0001
     94  N         33.7200   14.1880   24.7880 N.3   215  LEU215     -0.1231
     95  CA        34.7190   14.9170   25.5690 C.3   215  LEU215      0.1693
     96  C         35.7400   13.9270   26.1360 C.2   215  LEU215      0.2592
     97  O         35.3970   12.7720   26.3860 O.2   215  LEU215     -0.2718
     98  CB        33.9950   15.6670   26.6770 C.3   215  LEU215      0.0284
     99  CG        34.7620   16.2350   27.8540 C.3   215  LEU215      0.0019
    100  CD1       33.8920   17.2630   28.5420 C.3   215  LEU215      0.0001
    101  CD2       35.1190   15.1360   28.8480 C.3   215  LEU215      0.0001
    102  N         36.9870   14.3670   26.3160 N.am  216  GLY216     -0.1957
    103  CA        38.0550   13.4770   26.8110 C.3   216  GLY216      0.1869
    104  C         39.1410   13.2190   25.7760 C.2   216  GLY216      0.2309
    105  O         38.9570   13.5050   24.5980 O.2   216  GLY216     -0.2863
@<TRIPOS>BOND
     1    27    25    1
     2    21    22    1
     3    21    20    1
     4    21    24    1
     5    22    23    2
     6   105   104    2
     7    94    95    1
     8    19    17    1
     9    25    24    1
    10    25    26    1
    11    95    96    1
    12    95    98    1
    13   104   103    1
    14    96   102   am
    15    96    97    2
    16    17    16    2
    17    17    18    1
    18   102   103    1
    19    98    99    1
    20    16    15    1
    21    67    66    2
    22    64    63    2
    23    12    11    2
    24    99   100    1
    25    99   101    1
    26    63    62    1
    27    77    78    1
    28    66    68   am
    29    66    65    1
    30    11    10    1
    31    15    14    1
    32    13    10    1
    33    13    14    1
    34    10     9    1
    35    78    81    1
    36    78    79    1
    37    65    62    1
    38    62    61    1
    39    84    83    2
    40    81    82    1
    41    86    87    1
    42    82    83    1
    43    79    80    2
    44    83    85   am
    45     8     7    1
    46    75    74   ar
    47    76    74   ar
    48    87    90    1
    49    87    88    1
    50    72    71    2
    51    92    90    1
    52    74    73    1
    53    90    91    1
    54    71    70    1
    55    34    33   ar
    56     7     6    1
    57    88    89    2
    58    42    41    1
    59    42    36    1
    60    41    40    2
    61     4     3    2
    62    73    70    1
    63     5     6    1
    64     5     2    1
    65    33    32    1
    66    33    35   ar
    67    29    32    1
    68    29    28    1
    69    29    30    1
    70    70    69    1
    71    91    93    1
    72     3     2    1
    73    36    30   am
    74    36    37    1
    75     2     1    1
    76    40    37    1
    77    30    31    2
    78    37    38    1
    79    39    38    2
    80    38    43   am
    81    43    44    1
    82    50    49    2
    83    44    45    1
    84    47    45   am
    85    47    48    1
    86    49    48    1
    87    45    46    2
    88    51    48    1
    89    51    52    1
    90    53    52   ar
    91    53    55   ar
    92    52    54   ar
    93    55    56   ar
    94    54    57   ar
    95    54    56   ar
    96    57    59   ar
    97    56    58   ar
    98    59    60   ar
    99    58    60   ar
