@<TRIPOS>MOLECULE
tmp/3t7pA00.pdb
 140 131 0 0 0
SMALL
GASTEIGER

@<TRIPOS>ATOM
      1  N          1.4350   -6.4000   11.4770 N.3    33  ASP33      -0.1239
      2  CA         1.5570   -5.4470   10.3820 C.3    33  ASP33       0.1674
      3  C          2.9050   -4.7350   10.5410 C.2    33  ASP33       0.2266
      4  O          3.0700   -3.9240   11.4630 O.2    33  ASP33      -0.2867
      5  CB         0.3840   -4.4640   10.4990 C.3    33  ASP33       0.1410
      6  CG         0.2980   -3.4820    9.3590 C.2    33  ASP33       0.3668
      7  OD1        1.2290   -3.3760    8.5400 O.co2  33  ASP33      -0.2456
      8  OD2       -0.7350   -2.7740    9.3110 O.co2  33  ASP33      -0.2456
      9  N          5.3950   -2.0160   10.0060 N.3    35  ASP35      -0.1239
     10  CA         5.0500   -0.6330    9.7350 C.3    35  ASP35       0.1674
     11  C          6.2770    0.2700    9.7910 C.2    35  ASP35       0.2266
     12  O          6.7350    0.6230   10.8780 O.2    35  ASP35      -0.2867
     13  CB         4.0230   -0.1500   10.7610 C.3    35  ASP35       0.1410
     14  CG         3.5970    1.2760   10.5250 C.2    35  ASP35       0.3668
     15  OD1        3.9030    1.8020    9.4380 O.co2  35  ASP35      -0.2456
     16  OD2        2.9410    1.8530   11.4170 O.co2  35  ASP35      -0.2456
     17  N          6.3630    3.2370    9.2550 N.3    37  GLY37      -0.1210
     18  CA         5.8970    4.5380    9.7010 C.3    37  GLY37       0.1956
     19  C          5.5920    4.6700   11.1840 C.2    37  GLY37       0.2613
     20  O          5.0000    5.6600   11.6090 O.2    37  GLY37      -0.2717
     21  N          5.9820    3.6850   11.9840 N.am   38  SER38      -0.1938
     22  CA         5.8370    3.8000   13.4340 C.3    38  SER38       0.2055
     23  C          6.8960    2.9460   14.1070 C.2    38  SER38       0.2643
     24  O          7.6170    2.2160   13.4380 O.2    38  SER38      -0.2714
     25  CB         4.4310    3.4030   13.8890 C.3    38  SER38       0.2130
     26  OG         4.1880    2.0230   13.6650 O.3    38  SER38      -0.2179
     27  N          6.9780    3.0220   15.4310 N.am   39  SER39      -0.1949
     28  CA         8.1270    2.4490   16.1240 C.3    39  SER39       0.1924
     29  C          7.7720    1.6850   17.3870 C.2    39  SER39       0.2314
     30  O          8.6110    1.5150   18.2780 O.2    39  SER39      -0.2863
     31  CB         9.1630    3.5350   16.4030 C.3    39  SER39       0.2116
     32  OG         9.4710    4.1770   15.1750 O.3    39  SER39      -0.2180
     33  N         -0.4490    5.0800   21.6480 N.3    77  ILE77      -0.1231
     34  CA        -0.1330    5.5640   20.3200 C.3    77  ILE77       0.1692
     35  C         -1.3970    5.9900   19.5920 C.2    77  ILE77       0.2593
     36  O         -2.4450    5.3440   19.6990 O.2    77  ILE77      -0.2718
     37  CB         0.6780    4.5030   19.5260 C.3    77  ILE77       0.0266
     38  CG1        1.2480    5.0840   18.2350 C.3    77  ILE77       0.0019
     39  CG2       -0.1500    3.2600   19.2690 C.3    77  ILE77       0.0020
     40  CD1        2.3780    4.2560   17.6780 C.3    77  ILE77       0.0001
     41  N         -1.2930    7.1070   18.8830 N.am   78  SER78      -0.1938
     42  CA        -2.3720    7.6030   18.0440 C.3    78  SER78       0.2055
     43  C         -1.8210    7.7510   16.6400 C.2    78  SER78       0.2643
     44  O         -0.9380    8.5730   16.3990 O.2    78  SER78      -0.2714
     45  CB        -2.8610    8.9580   18.5490 C.3    78  SER78       0.2130
     46  OG        -3.2080    8.8990   19.9220 O.3    78  SER78      -0.2179
     47  N         -2.3350    6.9430   15.7230 N.am   79  TYR79      -0.1959
     48  CA        -1.8570    6.9350   14.3490 C.3    79  TYR79       0.1771
     49  C         -2.4590    8.0950   13.5630 C.2    79  TYR79       0.2620
     50  O         -3.4640    8.6800   13.9740 O.2    79  TYR79      -0.2715
     51  CB        -2.1530    5.5800   13.6910 C.3    79  TYR79       0.0574
     52  CG        -1.3980    4.4430   14.3580 C.ar   79  TYR79      -0.0198
     53  CD1       -2.0140    3.6200   15.2980 C.ar   79  TYR79      -0.0009
     54  CD2       -0.0570    4.2160   14.0650 C.ar   79  TYR79      -0.0009
     55  CE1       -1.3150    2.5880   15.9200 C.ar   79  TYR79       0.0417
     56  CE2        0.6480    3.1920   14.6760 C.ar   79  TYR79       0.0417
     57  CZ         0.0110    2.3870   15.6040 C.ar   79  TYR79       0.1957
     58  OH         0.6980    1.3680   16.2290 O.3    79  TYR79      -0.2866
     59  N         -1.8310    8.4360   12.4440 N.am   80  GLY80      -0.1940
     60  CA        -2.2780    9.5570   11.6370 C.3    80  GLY80       0.2014
     61  C         -3.7020    9.4030   11.1330 C.2    80  GLY80       0.2638
     62  O         -4.3810   10.3970   10.8730 O.2    80  GLY80      -0.2714
     63  N         -4.1620    8.1620   11.0000 N.am   81  ASP81      -0.1971
     64  CA        -5.4930    7.8920   10.4600 C.3    81  ASP81       0.1709
     65  C         -6.5930    7.8830   11.5220 C.2    81  ASP81       0.2293
     66  O         -7.7400    7.5440   11.2330 O.2    81  ASP81      -0.2864
     67  CB        -5.5100    6.5800    9.6760 C.3    81  ASP81       0.1436
     68  CG        -5.2680    5.3670   10.5550 C.2    81  ASP81       0.3671
     69  OD1       -5.2290    5.5110   11.7980 O.co2  81  ASP81      -0.2456
     70  OD2       -5.1270    4.2600    9.9980 O.co2  81  ASP81      -0.2456
     71  N         -6.7640    6.0680   14.3810 N.3    83  SER83      -0.1217
     72  CA        -6.8400    4.8790   15.2240 C.3    83  SER83       0.1889
     73  C         -5.8400    4.9800   16.3740 C.2    83  SER83       0.2288
     74  O         -4.9380    5.8160   16.3550 O.2    83  SER83      -0.2866
     75  CB        -6.6080    3.6030   14.4060 C.3    83  SER83       0.2089
     76  OG        -5.2940    3.5670   13.8760 O.3    83  SER83      -0.2183
     77  N         -9.1270   -1.3630   14.8420 N.3   116  PHE116     -0.1241
     78  CA        -8.3180   -2.5420   15.1460 C.3   116  PHE116      0.1605
     79  C         -9.2120   -3.7320   15.4840 C.2   116  PHE116      0.2264
     80  O         -9.0160   -4.8310   14.9600 O.2   116  PHE116     -0.2867
     81  CB        -7.3090   -2.2560   16.2660 C.3   116  PHE116      0.0534
     82  CG        -6.1870   -1.3490   15.8450 C.ar  116  PHE116     -0.0203
     83  CD1       -5.2760   -1.7640   14.8880 C.ar  116  PHE116     -0.0042
     84  CD2       -6.0480   -0.0810   16.3870 C.ar  116  PHE116     -0.0042
     85  CE1       -4.2440   -0.9420   14.4890 C.ar  116  PHE116     -0.0003
     86  CE2       -5.0100    0.7480   15.9970 C.ar  116  PHE116     -0.0003
     87  CZ        -4.1110    0.3190   15.0410 C.ar  116  PHE116     -0.0000
     88  N          1.1090   -4.6390   15.5950 N.3   125  LEU125     -0.1245
     89  CA         2.0200   -3.8990   14.7270 C.3   125  LEU125      0.1561
     90  C          3.4590   -4.1930   15.1090 C.2   125  LEU125      0.2260
     91  O          3.7620   -4.4040   16.2920 O.2   125  LEU125     -0.2867
     92  CB         1.7800   -2.3980   14.8970 C.3   125  LEU125      0.0270
     93  CG         0.6900   -1.7330   14.0620 C.3   125  LEU125      0.0019
     94  CD1        1.2070   -1.5430   12.6720 C.3   125  LEU125      0.0001
     95  CD2       -0.6140   -2.5170   14.0340 C.3   125  LEU125      0.0001
     96  N         10.6860    7.5470   17.8280 N.3   133  LEU133     -0.1245
     97  CA         9.2240    7.6410   17.8020 C.3   133  LEU133      0.1561
     98  C          8.5270    6.6880   18.7650 C.2   133  LEU133      0.2260
     99  O          7.3120    6.7370   18.9070 O.2   133  LEU133     -0.2867
    100  CB         8.6750    7.3890   16.3920 C.3   133  LEU133      0.0270
    101  CG         8.9160    8.4460   15.3220 C.3   133  LEU133      0.0019
    102  CD1        8.2690    8.0030   14.0230 C.3   133  LEU133      0.0001
    103  CD2        8.3640    9.7900   15.7750 C.3   133  LEU133      0.0001
    104  N          6.7160    5.0240   21.7800 N.3   135  THR135     -0.1218
    105  CA         5.8750    5.7330   22.7500 C.3   135  THR135      0.1862
    106  C          5.9800    5.2390   24.1880 C.2   135  THR135      0.2287
    107  O          5.2890    5.7610   25.0550 O.2   135  THR135     -0.2866
    108  CB         4.3710    5.7220   22.3580 C.3   135  THR135      0.1770
    109  OG1        3.7890    4.4380   22.6380 O.3   135  THR135     -0.2211
    110  CG2        4.1800    6.0950   20.8810 C.3   135  THR135      0.0375
    111  N         11.0600    9.3380   10.8710 N.3   194  PHE194     -0.1241
    112  CA        10.5700    8.5250    9.7580 C.3   194  PHE194      0.1605
    113  C         11.6520    8.2900    8.7180 C.2   194  PHE194      0.2264
    114  O         12.6950    8.9560    8.7130 O.2   194  PHE194     -0.2867
    115  CB         9.3970    9.2170    9.0580 C.3   194  PHE194      0.0534
    116  CG         8.2230    9.4900    9.9450 C.ar  194  PHE194     -0.0203
    117  CD1        8.0060   10.7570   10.4600 C.ar  194  PHE194     -0.0042
    118  CD2        7.3250    8.4870   10.2540 C.ar  194  PHE194     -0.0042
    119  CE1        6.9120   11.0120   11.2730 C.ar  194  PHE194     -0.0003
    120  CE2        6.2320    8.7310   11.0610 C.ar  194  PHE194     -0.0003
    121  CZ         6.0240    9.9950   11.5750 C.ar  194  PHE194     -0.0000
    122  N          6.4170    4.3750    3.8720 N.3   219  ASP219     -0.1239
    123  CA         5.5380    3.9150    4.9470 C.3   219  ASP219      0.1674
    124  C          4.7720    2.6430    4.5820 C.2   219  ASP219      0.2266
    125  O          3.7110    2.7000    3.9480 O.2   219  ASP219     -0.2867
    126  CB         4.5580    5.0360    5.3230 C.3   219  ASP219      0.1410
    127  CG         3.6860    4.6860    6.5110 C.2   219  ASP219      0.3668
    128  OD1        2.8210    5.5150    6.8540 O.co2 219  ASP219     -0.2456
    129  OD2        3.8500    3.5910    7.0870 O.co2 219  ASP219     -0.2456
    130  N          3.0830    0.8650    6.4230 N.3   221  GLY221     -0.1210
    131  CA         1.8500    0.8100    7.1950 C.3   221  GLY221      0.1956
    132  C          0.7050    1.6430    6.6530 C.2   221  GLY221      0.2612
    133  O         -0.3660    1.6770    7.2460 O.2   221  GLY221     -0.2717
    134  N          0.9410    2.3330    5.5450 N.am  222  THR222     -0.1952
    135  CA        -0.1020    3.0960    4.8710 C.3   222  THR222      0.1897
    136  C         -0.4240    2.4110    3.5470 C.2   222  THR222      0.2313
    137  O          0.4820    2.0320    2.8050 O.2   222  THR222     -0.2863
    138  CB         0.3490    4.5520    4.6380 C.3   222  THR222      0.1794
    139  OG1        0.3910    5.2300    5.9000 O.3   222  THR222     -0.2208
    140  CG2       -0.6290    5.3000    3.7200 C.3   222  THR222      0.0378
@<TRIPOS>BOND
     1   137   136    2
     2   136   135    1
     3   140   138    1
     4   122   123    1
     5   125   124    2
     6   124   123    1
     7   138   135    1
     8   138   139    1
     9   135   134    1
    10   123   126    1
    11   126   127    1
    12   134   132   am
    13   130   131    1
    14   127   128   ar
    15   127   129   ar
    16   132   131    1
    17   132   133    2
    18     7     6   ar
    19   114   113    2
    20   113   112    1
    21   115   112    1
    22   115   116    1
    23    17    18    1
    24     8     6   ar
    25     6     5    1
    26    15    14   ar
    27    67    64    1
    28    67    68    1
    29    18    19    1
    30    10    11    1
    31    10     9    1
    32    10    13    1
    33   112   111    1
    34    11    12    2
    35   116   118   ar
    36   116   117   ar
    37    70    68   ar
    38   118   120   ar
    39     2     5    1
    40     2     3    1
    41     2     1    1
    42    64    63    1
    43    64    65    1
    44   117   119   ar
    45    14    13    1
    46    14    16   ar
    47     3     4    2
    48    68    69   ar
    49    62    61    2
    50    63    61   am
    51   120   121   ar
    52    61    60    1
    53    19    20    2
    54    19    21   am
    55    66    65    2
    56   119   121   ar
    57    60    59    1
    58    21    22    1
    59    59    49   am
    60    94    93    1
    61    22    25    1
    62    22    23    1
    63    24    23    2
    64    49    50    2
    65    49    48    1
    66    26    25    1
    67    51    48    1
    68    51    52    1
    69    76    75    1
    70   102   101    1
    71    95    93    1
    72    93    92    1
    73    54    52   ar
    74    54    56   ar
    75    23    27   am
    76    48    47    1
    77    52    53   ar
    78    71    72    1
    79    75    72    1
    80    85    83   ar
    81    85    87   ar
    82    56    57   ar
    83    89    92    1
    84    89    90    1
    85    89    88    1
    86    77    78    1
    87    83    82   ar
    88    80    79    2
    89    87    86   ar
    90    90    91    2
    91    78    79    1
    92    78    81    1
    93    32    31    1
    94    72    73    1
    95    53    55   ar
    96   101   103    1
    97   101   100    1
    98    27    28    1
    99    57    55   ar
   100    57    58    1
   101    47    43   am
   102    82    81    1
   103    82    84   ar
   104    86    84   ar
   105    28    31    1
   106    28    29    1
   107    74    73    2
   108   100    97    1
   109    44    43    2
   110    43    42    1
   111    29    30    2
   112    40    38    1
   113    97    96    1
   114    97    98    1
   115    42    45    1
   116    42    41    1
   117    38    37    1
   118    45    46    1
   119    98    99    2
   120    41    35   am
   121    39    37    1
   122    37    34    1
   123    35    36    2
   124    35    34    1
   125    34    33    1
   126   110   108    1
   127   104   105    1
   128   108   109    1
   129   108   105    1
   130   105   106    1
   131   106   107    2
