@<TRIPOS>MOLECULE
tmp/3t7pA01.pdb
 86 78 0 0 0
SMALL
GASTEIGER

@<TRIPOS>ATOM
      1  N          6.3630    3.2370    9.2550 N.3    37  GLY37      -0.1225
      2  CA         5.8970    4.5380    9.7010 C.3    37  GLY37       0.1811
      3  C          5.5920    4.6700   11.1840 C.2    37  GLY37       0.2280
      4  O          5.0000    5.6600   11.6090 O.2    37  GLY37      -0.2866
      5  N         -1.8310    8.4360   12.4440 N.3    80  GLY80      -0.1210
      6  CA        -2.2780    9.5570   11.6370 C.3    80  GLY80       0.1956
      7  C         -3.7020    9.4030   11.1330 C.2    80  GLY80       0.2611
      8  O         -4.3810   10.3970   10.8730 O.2    80  GLY80      -0.2717
      9  N         -4.1620    8.1620   11.0000 N.am   81  ASP81      -0.1973
     10  CA        -5.4930    7.8920   10.4600 C.3    81  ASP81       0.1709
     11  C         -6.5930    7.8830   11.5220 C.2    81  ASP81       0.2293
     12  O         -7.7400    7.5440   11.2330 O.2    81  ASP81      -0.2864
     13  CB        -5.5100    6.5800    9.6760 C.3    81  ASP81       0.1436
     14  CG        -5.2680    5.3670   10.5550 C.2    81  ASP81       0.3671
     15  OD1       -5.2290    5.5110   11.7980 O.co2  81  ASP81      -0.2456
     16  OD2       -5.1270    4.2600    9.9980 O.co2  81  ASP81      -0.2456
     17  N         11.0600    9.3380   10.8710 N.3   194  PHE194     -0.1241
     18  CA        10.5700    8.5250    9.7580 C.3   194  PHE194      0.1605
     19  C         11.6520    8.2900    8.7180 C.2   194  PHE194      0.2264
     20  O         12.6950    8.9560    8.7130 O.2   194  PHE194     -0.2867
     21  CB         9.3970    9.2170    9.0580 C.3   194  PHE194      0.0534
     22  CG         8.2230    9.4900    9.9450 C.ar  194  PHE194     -0.0203
     23  CD1        8.0060   10.7570   10.4600 C.ar  194  PHE194     -0.0042
     24  CD2        7.3250    8.4870   10.2540 C.ar  194  PHE194     -0.0042
     25  CE1        6.9120   11.0120   11.2730 C.ar  194  PHE194     -0.0003
     26  CE2        6.2320    8.7310   11.0610 C.ar  194  PHE194     -0.0003
     27  CZ         6.0240    9.9950   11.5750 C.ar  194  PHE194     -0.0000
     28  N          7.5020   10.2050    3.0530 N.3   217  ILE217     -0.1245
     29  CA         7.9920    9.0970    3.8570 C.3   217  ILE217      0.1561
     30  C          7.6940    7.7560    3.2130 C.2   217  ILE217      0.2260
     31  O          6.6530    7.5750    2.5710 O.2   217  ILE217     -0.2867
     32  CB         7.4440    9.1280    5.2910 C.3   217  ILE217      0.0252
     33  CG1        5.9230    8.9690    5.3130 C.3   217  ILE217      0.0019
     34  CG2        7.8920   10.4070    6.0070 C.3   217  ILE217      0.0019
     35  CD1        5.3490    8.7400    6.7190 C.3   217  ILE217      0.0001
     36  N          6.4170    4.3750    3.8720 N.3   219  ASP219     -0.1239
     37  CA         5.5380    3.9150    4.9470 C.3   219  ASP219      0.1674
     38  C          4.7720    2.6430    4.5820 C.2   219  ASP219      0.2266
     39  O          3.7110    2.7000    3.9480 O.2   219  ASP219     -0.2867
     40  CB         4.5580    5.0360    5.3230 C.3   219  ASP219      0.1410
     41  CG         3.6860    4.6860    6.5110 C.2   219  ASP219      0.3668
     42  OD1        2.8210    5.5150    6.8540 O.co2 219  ASP219     -0.2456
     43  OD2        3.8500    3.5910    7.0870 O.co2 219  ASP219     -0.2456
     44  N          0.9410    2.3330    5.5450 N.3   222  THR222     -0.1218
     45  CA        -0.1020    3.0960    4.8710 C.3   222  THR222      0.1862
     46  C         -0.4240    2.4110    3.5470 C.2   222  THR222      0.2287
     47  O          0.4820    2.0320    2.8050 O.2   222  THR222     -0.2866
     48  CB         0.3490    4.5520    4.6380 C.3   222  THR222      0.1770
     49  OG1        0.3910    5.2300    5.9000 O.3   222  THR222     -0.2211
     50  CG2       -0.6290    5.3000    3.7200 C.3   222  THR222      0.0375
     51  N         -0.0250    9.0230   -1.1700 N.3   226  TYR226     -0.1241
     52  CA        -0.5240   10.3770   -0.9140 C.3   226  TYR226      0.1605
     53  C          0.4960   11.4020   -1.3740 C.2   226  TYR226      0.2264
     54  O          1.6280   11.4430   -0.8710 O.2   226  TYR226     -0.2867
     55  CB        -0.8370   10.5840    0.5670 C.3   226  TYR226      0.0534
     56  CG        -1.9590    9.7100    1.0590 C.ar  226  TYR226     -0.0201
     57  CD1       -3.2750   10.1540    1.0330 C.ar  226  TYR226     -0.0009
     58  CD2       -1.7050    8.4260    1.5330 C.ar  226  TYR226     -0.0009
     59  CE1       -4.3150    9.3460    1.4730 C.ar  226  TYR226      0.0417
     60  CE2       -2.7300    7.6090    1.9720 C.ar  226  TYR226      0.0417
     61  CZ        -4.0300    8.0690    1.9430 C.ar  226  TYR226      0.1957
     62  OH        -5.0390    7.2370    2.3760 O.3   226  TYR226     -0.2866
     63  N         -2.7180   16.3780    5.2580 N.3   300  ILE300     -0.1245
     64  CA        -1.8830   15.4570    6.0380 C.3   300  ILE300      0.1561
     65  C         -0.6680   16.1570    6.6240 C.2   300  ILE300      0.2260
     66  O         -0.2690   15.8750    7.7540 O.2   300  ILE300     -0.2867
     67  CB        -1.3810   14.2520    5.2010 C.3   300  ILE300      0.0252
     68  CG1       -2.5490   13.3860    4.7450 C.3   300  ILE300      0.0019
     69  CG2       -0.3930   13.4060    6.0090 C.3   300  ILE300      0.0019
     70  CD1       -2.1180   12.1770    3.9340 C.3   300  ILE300      0.0001
     71  N          2.2070   15.9280    5.1320 N.3   302  ILE302     -0.1245
     72  CA         3.3320   15.1750    4.5960 C.3   302  ILE302      0.1561
     73  C          2.8730   14.2590    3.4550 C.2   302  ILE302      0.2260
     74  O          1.7530   13.7590    3.4600 O.2   302  ILE302     -0.2867
     75  CB         4.0260   14.3340    5.7080 C.3   302  ILE302      0.0252
     76  CG1        5.3970   13.8310    5.2490 C.3   302  ILE302      0.0019
     77  CG2        3.1300   13.1940    6.1560 C.3   302  ILE302      0.0019
     78  CD1        6.5260   14.8140    5.4800 C.3   302  ILE302      0.0001
     79  N          3.1040   10.6850    1.5010 N.3   304  ILE304     -0.1245
     80  CA         3.3070    9.3280    1.9960 C.3   304  ILE304      0.1561
     81  C          3.4150    8.3400    0.8540 C.2   304  ILE304      0.2260
     82  O          2.4470    8.1130    0.1150 O.2   304  ILE304     -0.2867
     83  CB         2.1760    8.8840    2.9370 C.3   304  ILE304      0.0252
     84  CG1        1.9890    9.8890    4.0760 C.3   304  ILE304      0.0019
     85  CG2        2.4780    7.4980    3.4980 C.3   304  ILE304      0.0019
     86  CD1        0.8380    9.5330    5.0050 C.3   304  ILE304      0.0001
@<TRIPOS>BOND
     1    53    52    1
     2    53    54    2
     3    51    52    1
     4    52    55    1
     5    82    81    2
     6    55    56    1
     7    81    80    1
     8    57    56   ar
     9    57    59   ar
    10    56    58   ar
    11    59    61   ar
    12    79    80    1
    13    58    60   ar
    14    61    60   ar
    15    61    62    1
    16    80    83    1
    17    31    30    2
    18    47    46    2
    19    83    85    1
    20    83    84    1
    21    28    29    1
    22    30    29    1
    23    73    74    2
    24    73    72    1
    25    46    45    1
    26    50    48    1
    27    29    32    1
    28    36    37    1
    29    70    68    1
    30    39    38    2
    31    84    86    1
    32    38    37    1
    33    72    71    1
    34    72    75    1
    35    48    45    1
    36    48    49    1
    37    68    67    1
    38    45    44    1
    39    37    40    1
    40    67    69    1
    41    67    64    1
    42    76    78    1
    43    76    75    1
    44    63    64    1
    45    32    33    1
    46    32    34    1
    47    33    35    1
    48    40    41    1
    49    75    77    1
    50    64    65    1
    51    41    42   ar
    52    41    43   ar
    53    65    66    2
    54    20    19    2
    55    19    18    1
    56    21    18    1
    57    21    22    1
    58     1     2    1
    59    13    10    1
    60    13    14    1
    61     2     3    1
    62    18    17    1
    63    22    24   ar
    64    22    23   ar
    65    16    14   ar
    66    24    26   ar
    67    23    25   ar
    68    10     9    1
    69    10    11    1
    70    14    15   ar
    71     8     7    2
    72     9     7   am
    73    26    27   ar
    74     7     6    1
    75     3     4    2
    76    12    11    2
    77    25    27   ar
    78     6     5    1
