@<TRIPOS>MOLECULE
tmp/3t7qA00.pdb
 160 148 0 0 0
SMALL
GASTEIGER

@<TRIPOS>ATOM
      1  N         -3.6170   -4.2390    3.4460 N.3    16  ALA16      -0.1245
      2  CA        -2.4630   -4.2780    4.3300 C.3    16  ALA16       0.1562
      3  C         -1.8130   -5.6280    4.1590 C.2    16  ALA16       0.2260
      4  O         -2.3570   -6.5040    3.4880 O.2    16  ALA16      -0.2867
      5  CB        -2.8680   -4.0470    5.7890 C.3    16  ALA16       0.0290
      6  N          1.3910   -6.4150   11.3020 N.3    33  ASP33      -0.1239
      7  CA         1.5020   -5.4740   10.1970 C.3    33  ASP33       0.1674
      8  C          2.8280   -4.7270   10.3520 C.2    33  ASP33       0.2266
      9  O          2.9640   -3.8770   11.2420 O.2    33  ASP33      -0.2867
     10  CB         0.3170   -4.5070   10.2910 C.3    33  ASP33       0.1410
     11  CG         0.2140   -3.5700    9.1200 C.2    33  ASP33       0.3668
     12  OD1        1.1840   -3.4160    8.3550 O.co2  33  ASP33      -0.2456
     13  OD2       -0.8740   -2.9640    8.9910 O.co2  33  ASP33      -0.2456
     14  N          5.3570   -1.9830    9.8030 N.3    35  ASP35      -0.1239
     15  CA         5.0190   -0.5940    9.5260 C.3    35  ASP35       0.1674
     16  C          6.2560    0.2960    9.5850 C.2    35  ASP35       0.2266
     17  O          6.7010    0.6640   10.6690 O.2    35  ASP35      -0.2867
     18  CB         3.9720   -0.1180   10.5450 C.3    35  ASP35       0.1410
     19  CG         3.5560    1.3220   10.3290 C.2    35  ASP35       0.3668
     20  OD1        3.8840    1.8870    9.2630 O.co2  35  ASP35      -0.2456
     21  OD2        2.8920    1.8860   11.2270 O.co2  35  ASP35      -0.2456
     22  N          6.4040    3.2580    8.9890 N.3    37  GLY37      -0.1210
     23  CA         5.9860    4.5790    9.4130 C.3    37  GLY37       0.1956
     24  C          5.7090    4.7440   10.9030 C.2    37  GLY37       0.2612
     25  O          5.2430    5.8020   11.3310 O.2    37  GLY37      -0.2717
     26  N          5.9950    3.7240   11.7060 N.am   38  SER38      -0.1952
     27  CA         5.8550    3.8530   13.1540 C.3    38  SER38       0.1924
     28  C          6.8940    2.9850   13.8420 C.2    38  SER38       0.2314
     29  O          7.6280    2.2570   13.1760 O.2    38  SER38      -0.2863
     30  CB         4.4380    3.4960   13.6090 C.3    38  SER38       0.2116
     31  OG         4.1640    2.1150   13.4510 O.3    38  SER38      -0.2180
     32  N         -2.4690    6.9960   15.2240 N.3    79  TYR79      -0.1227
     33  CA        -1.9670    6.9590   13.8550 C.3    79  TYR79       0.1736
     34  C         -2.6330    8.0280   12.9880 C.2    79  TYR79       0.2596
     35  O         -3.6740    8.5700   13.3520 O.2    79  TYR79      -0.2718
     36  CB        -2.1670    5.5620   13.2640 C.3    79  TYR79       0.0548
     37  CG        -1.4000    4.4730   13.9960 C.ar   79  TYR79      -0.0200
     38  CD1       -2.0410    3.6140   14.8820 C.ar   79  TYR79      -0.0009
     39  CD2       -0.0340    4.3050   13.7920 C.ar   79  TYR79      -0.0009
     40  CE1       -1.3420    2.6160   15.5510 C.ar   79  TYR79       0.0417
     41  CE2        0.6750    3.3120   14.4570 C.ar   79  TYR79       0.0417
     42  CZ         0.0130    2.4680   15.3290 C.ar   79  TYR79       0.1957
     43  OH         0.6990    1.4790   16.0010 O.3    79  TYR79      -0.2866
     44  N         -2.0260    8.3260   11.8440 N.am   80  GLY80      -0.1942
     45  CA        -2.5080    9.3890   10.9800 C.3    80  GLY80       0.2014
     46  C         -3.9270    9.2080   10.4730 C.2    80  GLY80       0.2638
     47  O         -4.5880   10.1830   10.1020 O.2    80  GLY80      -0.2714
     48  N         -4.3960    7.9620   10.4500 N.am   81  ASP81      -0.1971
     49  CA        -5.7370    7.6470    9.9620 C.3    81  ASP81       0.1709
     50  C         -6.7850    7.7590   11.0630 C.2    81  ASP81       0.2293
     51  O         -7.9660    7.4980   10.8340 O.2    81  ASP81      -0.2864
     52  CB        -5.7800    6.2350    9.3940 C.3    81  ASP81       0.1436
     53  CG        -5.8130    5.1820   10.4800 C.2    81  ASP81       0.3671
     54  OD1       -5.1550    5.3910   11.5210 O.co2  81  ASP81      -0.2456
     55  OD2       -6.5050    4.1620   10.3030 O.co2  81  ASP81      -0.2456
     56  N         -6.7930    6.0060   13.9620 N.3    83  SER83      -0.1217
     57  CA        -6.8600    4.8320   14.8280 C.3    83  SER83       0.1889
     58  C         -5.8580    4.9620   15.9700 C.2    83  SER83       0.2288
     59  O         -4.9780    5.8130   15.9380 O.2    83  SER83      -0.2866
     60  CB        -6.6340    3.5330   14.0440 C.3    83  SER83       0.2089
     61  OG        -5.2900    3.3920   13.6200 O.3    83  SER83      -0.2183
     62  N        -11.2120    0.4050   14.4280 N.3   115  SER115     -0.1202
     63  CA       -10.6580   -0.0970   13.1750 C.3   115  SER115      0.2020
     64  C         -9.7770   -1.3270   13.3840 C.2   115  SER115      0.2618
     65  O         -9.7150   -2.2020   12.5220 O.2   115  SER115     -0.2717
     66  CB        -9.8710    0.9840   12.4440 C.3   115  SER115      0.2103
     67  OG        -8.8050    1.4550   13.2460 O.3   115  SER115     -0.2182
     68  N         -9.0770   -1.3860   14.5160 N.am  116  PHE116     -0.1975
     69  CA        -8.2650   -2.5590   14.8110 C.3   116  PHE116      0.1639
     70  C         -9.1500   -3.7430   15.1840 C.2   116  PHE116      0.2290
     71  O         -8.9590   -4.8550   14.6930 O.2   116  PHE116     -0.2864
     72  CB        -7.2230   -2.2540   15.8980 C.3   116  PHE116      0.0560
     73  CG        -6.1320   -1.3250   15.4390 C.ar  116  PHE116     -0.0200
     74  CD1       -5.2720   -1.7020   14.4220 C.ar  116  PHE116     -0.0042
     75  CD2       -5.9700   -0.0730   16.0130 C.ar  116  PHE116     -0.0042
     76  CE1       -4.2740   -0.8560   13.9810 C.ar  116  PHE116     -0.0003
     77  CE2       -4.9680    0.7770   15.5800 C.ar  116  PHE116     -0.0003
     78  CZ        -4.1180    0.3900   14.5620 C.ar  116  PHE116     -0.0000
     79  N        -10.6700   -5.4230   12.2010 N.3   119  ASP119     -0.1239
     80  CA        -9.7870   -6.1650   11.3150 C.3   119  ASP119      0.1674
     81  C         -9.2500   -7.4230   11.9900 C.2   119  ASP119      0.2266
     82  O         -8.2130   -7.3950   12.6580 O.2   119  ASP119     -0.2867
     83  CB        -8.6400   -5.3030   10.8230 C.3   119  ASP119      0.1410
     84  CG        -7.7950   -6.0210    9.8110 C.2   119  ASP119      0.3668
     85  OD1       -8.1740   -7.1540    9.4370 O.co2 119  ASP119     -0.2456
     86  OD2       -6.7670   -5.4610    9.3860 O.co2 119  ASP119     -0.2456
     87  N         -5.3280   -8.7870   11.5810 N.3   122  ILE122     -0.1245
     88  CA        -4.1300   -8.0960   12.0510 C.3   122  ILE122      0.1561
     89  C         -4.0540   -8.2030   13.5710 C.2   122  ILE122      0.2260
     90  O         -4.9150   -7.6750   14.2870 O.2   122  ILE122     -0.2867
     91  CB        -4.1030   -6.6240   11.5730 C.3   122  ILE122      0.0252
     92  CG1       -3.9420   -6.5790   10.0520 C.3   122  ILE122      0.0019
     93  CG2       -2.9750   -5.8500   12.2610 C.3   122  ILE122      0.0019
     94  CD1       -3.8990   -5.1730    9.4670 C.3   122  ILE122      0.0001
     95  N          1.0030   -4.5570   15.3680 N.3   125  LEU125     -0.1245
     96  CA         1.9240   -3.8660   14.4720 C.3   125  LEU125      0.1561
     97  C          3.3500   -4.0940   14.9180 C.2   125  LEU125      0.2260
     98  O          3.6210   -4.2380   16.1190 O.2   125  LEU125     -0.2867
     99  CB         1.6430   -2.3620   14.4400 C.3   125  LEU125      0.0270
    100  CG         0.7020   -1.8870   13.3230 C.3   125  LEU125      0.0019
    101  CD1       -0.7020   -2.4760   13.4850 C.3   125  LEU125      0.0001
    102  CD2        0.6440   -0.3670   13.2580 C.3   125  LEU125      0.0001
    103  N          6.5020    4.2030    3.6100 N.3   219  ASP219     -0.1239
    104  CA         5.6390    3.7430    4.6960 C.3   219  ASP219      0.1674
    105  C          4.8630    2.4720    4.3430 C.2   219  ASP219      0.2266
    106  O          3.7940    2.5150    3.7070 O.2   219  ASP219     -0.2867
    107  CB         4.6770    4.8650    5.0780 C.3   219  ASP219      0.1410
    108  CG         3.8460    4.5320    6.2810 C.2   219  ASP219      0.3668
    109  OD1        3.0390    5.3940    6.6750 O.co2 219  ASP219     -0.2456
    110  OD2        3.9940    3.4220    6.8380 O.co2 219  ASP219     -0.2456
    111  N          3.1810    0.6930    6.2050 N.3   221  GLY221     -0.1210
    112  CA         1.9590    0.5900    6.9820 C.3   221  GLY221      0.1956
    113  C          0.8050    1.4440    6.4890 C.2   221  GLY221      0.2613
    114  O         -0.2620    1.4510    7.0980 O.2   221  GLY221     -0.2717
    115  N          1.0170    2.1740    5.4000 N.am  222  THR222     -0.1938
    116  CA        -0.0490    2.9490    4.7830 C.3   222  THR222      0.2028
    117  C         -0.3790    2.3110    3.4410 C.2   222  THR222      0.2642
    118  O          0.5230    1.9670    2.6750 O.2   222  THR222     -0.2714
    119  CB         0.3980    4.3930    4.5840 C.3   222  THR222      0.1808
    120  OG1        0.5220    5.0110    5.8730 O.3   222  THR222     -0.2208
    121  CG2       -0.6160    5.1760    3.7400 C.3   222  THR222      0.0379
    122  N         -1.6680    2.1280    3.1710 N.am  223  THR223     -0.1950
    123  CA        -2.0970    1.4190    1.9660 C.3   223  THR223      0.1897
    124  C         -1.8220    2.1680    0.6690 C.2   223  THR223      0.2313
    125  O         -1.3250    1.5850   -0.3000 O.2   223  THR223     -0.2863
    126  CB        -3.5990    1.1150    2.0220 C.3   223  THR223      0.1794
    127  OG1       -3.9270    0.5830    3.3090 O.3   223  THR223     -0.2208
    128  CG2       -4.0090    0.1260    0.9220 C.3   223  THR223      0.0378
    129  N         -0.0060    8.9030   -1.2400 N.3   226  TYR226     -0.1241
    130  CA        -0.5170   10.2440   -0.9680 C.3   226  TYR226      0.1605
    131  C          0.4910   11.2810   -1.4270 C.2   226  TYR226      0.2264
    132  O          1.6220   11.3220   -0.9230 O.2   226  TYR226     -0.2867
    133  CB        -0.8120   10.4220    0.5250 C.3   226  TYR226      0.0534
    134  CG        -1.9340    9.5440    1.0210 C.ar  226  TYR226     -0.0201
    135  CD1       -3.2530    9.9810    0.9720 C.ar  226  TYR226     -0.0009
    136  CD2       -1.6800    8.2690    1.5230 C.ar  226  TYR226     -0.0009
    137  CE1       -4.2820    9.1800    1.4130 C.ar  226  TYR226      0.0417
    138  CE2       -2.7040    7.4590    1.9640 C.ar  226  TYR226      0.0417
    139  CZ        -4.0020    7.9160    1.9080 C.ar  226  TYR226      0.1957
    140  OH        -5.0010    7.0840    2.3580 O.3   226  TYR226     -0.2866
    141  N         -4.3390   17.2000    3.3070 N.3   299  GLY299     -0.1210
    142  CA        -4.7810   17.2840    4.6880 C.3   299  GLY299      0.1956
    143  C         -3.9520   16.4680    5.6630 C.2   299  GLY299      0.2611
    144  O         -4.4230   16.1320    6.7510 O.2   299  GLY299     -0.2717
    145  N         -2.7100   16.1680    5.2890 N.am  300  ILE300     -0.1979
    146  CA        -1.8710   15.2490    6.0670 C.3   300  ILE300      0.1595
    147  C         -0.6480   15.9340    6.6480 C.2   300  ILE300      0.2287
    148  O         -0.2400   15.6360    7.7680 O.2   300  ILE300     -0.2864
    149  CB        -1.3560   14.0500    5.2320 C.3   300  ILE300      0.0276
    150  CG1       -2.5050   13.1900    4.7200 C.3   300  ILE300      0.0022
    151  CG2       -0.4060   13.1860    6.0640 C.3   300  ILE300      0.0022
    152  CD1       -2.0280   11.9940    3.9120 C.3   300  ILE300      0.0001
    153  N          3.1620   10.5480    1.4140 N.3   304  ILE304     -0.1245
    154  CA         3.3760    9.1760    1.8740 C.3   304  ILE304      0.1561
    155  C          3.4690    8.2110    0.7090 C.2   304  ILE304      0.2260
    156  O          2.4950    7.9990   -0.0160 O.2   304  ILE304     -0.2867
    157  CB         2.2570    8.7040    2.8180 C.3   304  ILE304      0.0252
    158  CG1        2.0620    9.6790    3.9870 C.3   304  ILE304      0.0019
    159  CG2        2.5580    7.2800    3.3070 C.3   304  ILE304      0.0019
    160  CD1        0.8590    9.3310    4.8640 C.3   304  ILE304      0.0001
@<TRIPOS>BOND
     1   131   130    1
     2   131   132    2
     3   129   130    1
     4   130   133    1
     5   125   124    2
     6   156   155    2
     7   133   134    1
     8   124   123    1
     9   155   154    1
    10   128   126    1
    11   135   134   ar
    12   135   137   ar
    13   134   136   ar
    14   137   139   ar
    15   153   154    1
    16   136   138   ar
    17   154   157    1
    18   139   138   ar
    19   139   140    1
    20   123   126    1
    21   123   122    1
    22   126   127    1
    23   118   117    2
    24   157   159    1
    25   157   158    1
    26   122   117   am
    27   141   142    1
    28   117   116    1
    29     1     2    1
    30     4     3    2
    31   103   104    1
    32   106   105    2
    33   121   119    1
    34   152   150    1
    35   158   160    1
    36     3     2    1
    37     2     5    1
    38   105   104    1
    39   119   116    1
    40   119   120    1
    41   142   143    1
    42   104   107    1
    43   150   149    1
    44   116   115    1
    45   107   108    1
    46   149   151    1
    47   149   146    1
    48   145   143   am
    49   145   146    1
    50   115   113   am
    51   143   144    2
    52   146   147    1
    53   111   112    1
    54   108   109   ar
    55   108   110   ar
    56   113   112    1
    57   113   114    2
    58   147   148    2
    59    12    11   ar
    60    22    23    1
    61    13    11   ar
    62    11    10    1
    63    20    19   ar
    64    86    84   ar
    65    52    49    1
    66    52    53    1
    67    23    24    1
    68    85    84   ar
    69    94    92    1
    70    15    16    1
    71    15    14    1
    72    15    18    1
    73    16    17    2
    74    84    83    1
    75    49    48    1
    76    49    50    1
    77    92    91    1
    78    47    46    2
    79     7    10    1
    80     7     8    1
    81     7     6    1
    82    55    53   ar
    83    19    18    1
    84    19    21   ar
    85     8     9    2
    86    48    46   am
    87    46    45    1
    88    53    54   ar
    89    83    80    1
    90    51    50    2
    91    24    25    2
    92    24    26   am
    93    45    44    1
    94    80    81    1
    95    80    79    1
    96    91    88    1
    97    91    93    1
    98    87    88    1
    99    26    27    1
   100    44    34   am
   101    81    82    2
   102    88    89    1
   103    66    63    1
   104    66    67    1
   105    65    64    2
   106    34    35    2
   107    34    33    1
   108    27    30    1
   109    27    28    1
   110    63    64    1
   111    63    62    1
   112    29    28    2
   113   102   100    1
   114    36    33    1
   115    36    37    1
   116   100   101    1
   117   100    99    1
   118    64    68   am
   119    31    30    1
   120    89    90    2
   121    61    60    1
   122    39    37   ar
   123    39    41   ar
   124    33    32    1
   125    56    57    1
   126    76    74   ar
   127    76    78   ar
   128    37    38   ar
   129    60    57    1
   130    74    73   ar
   131    99    96    1
   132    41    42   ar
   133    96    97    1
   134    96    95    1
   135    68    69    1
   136    78    77   ar
   137    71    70    2
   138    69    70    1
   139    69    72    1
   140    57    58    1
   141    38    40   ar
   142    97    98    2
   143    42    40   ar
   144    42    43    1
   145    73    72    1
   146    73    75   ar
   147    77    75   ar
   148    59    58    2
