@<TRIPOS>MOLECULE
tmp/3t7rB00.pdb
 131 128 0 0 0
SMALL
GASTEIGER

@<TRIPOS>ATOM
      1  N          8.9650   46.8600   60.6630 N.3     6  ILE6       -0.1245
      2  CA        10.3760   46.7830   60.3180 C.3     6  ILE6        0.1561
      3  C         10.6860   47.8200   59.2230 C.2     6  ILE6        0.2260
      4  O         11.6770   48.5580   59.3270 O.2     6  ILE6       -0.2867
      5  CB        10.7870   45.3620   59.8420 C.3     6  ILE6        0.0252
      6  CG1       10.3680   44.3090   60.8800 C.3     6  ILE6        0.0019
      7  CG2       12.3110   45.3030   59.6500 C.3     6  ILE6        0.0019
      8  CD1       11.1030   44.4240   62.2040 C.3     6  ILE6        0.0001
      9  N         13.6340   51.3280   59.1400 N.3    10  PHE10      -0.1241
     10  CA        14.6140   51.6910   58.1260 C.3    10  PHE10       0.1605
     11  C         14.3290   53.0050   57.4160 C.2    10  PHE10       0.2264
     12  O         15.2190   53.5860   56.7930 O.2    10  PHE10      -0.2867
     13  CB        14.7590   50.5480   57.1270 C.3    10  PHE10       0.0534
     14  CG        15.3630   49.3170   57.7270 C.ar   10  PHE10      -0.0203
     15  CD1       16.6630   49.3450   58.2330 C.ar   10  PHE10      -0.0042
     16  CD2       14.6230   48.1460   57.8360 C.ar   10  PHE10      -0.0042
     17  CE1       17.2170   48.2280   58.8390 C.ar   10  PHE10      -0.0003
     18  CE2       15.1670   47.0240   58.4420 C.ar   10  PHE10      -0.0003
     19  CZ        16.4710   47.0660   58.9450 C.ar   10  PHE10      -0.0000
     20  N         20.1330   50.4040   54.6070 N.3    16  GLN16      -0.1231
     21  CA        19.8090   49.1180   55.2040 C.3    16  GLN16       0.1698
     22  C         20.9850   48.1520   55.2190 C.2    16  GLN16       0.2592
     23  O         20.8250   46.9640   55.5250 O.2    16  GLN16      -0.2718
     24  CB        18.6500   48.4860   54.4500 C.3    16  GLN16       0.0381
     25  CG        17.4350   49.3720   54.3690 C.3    16  GLN16       0.0905
     26  CD        16.3370   48.7550   53.5400 C.2    16  GLN16       0.2608
     27  OE1       15.7480   47.7470   53.9270 O.2    16  GLN16      -0.2717
     28  NE2       16.0590   49.3510   52.3870 N.am   16  GLN16      -0.0878
     29  N         22.1620   48.6670   54.8900 N.am   17  GLY17      -0.1957
     30  CA        23.3520   47.8430   54.8640 C.3    17  GLY17       0.1869
     31  C         24.5680   48.6710   54.5230 C.2    17  GLY17       0.2309
     32  O         24.4390   49.7850   54.0240 O.2    17  GLY17      -0.2863
     33  N          8.8480   46.2020   49.1090 N.3    68  PHE68      -0.1241
     34  CA         7.9740   46.9240   50.0400 C.3    68  PHE68       0.1605
     35  C          7.4320   48.3110   49.6040 C.2    68  PHE68       0.2264
     36  O          8.1930   49.2620   49.3890 O.2    68  PHE68      -0.2867
     37  CB         8.6950   47.0420   51.3860 C.3    68  PHE68       0.0534
     38  CG         9.1670   45.7210   51.9360 C.ar   68  PHE68      -0.0203
     39  CD1        8.3770   44.9950   52.8270 C.ar   68  PHE68      -0.0042
     40  CD2       10.4090   45.1940   51.5550 C.ar   68  PHE68      -0.0042
     41  CE1        8.8130   43.7590   53.3390 C.ar   68  PHE68      -0.0003
     42  CE2       10.8580   43.9550   52.0580 C.ar   68  PHE68      -0.0003
     43  CZ        10.0560   43.2370   52.9520 C.ar   68  PHE68      -0.0000
     44  N         23.5400   45.8660   48.3790 N.3   112  GLY112     -0.1225
     45  CA        23.1630   45.0520   49.5180 C.3   112  GLY112      0.1811
     46  C         21.7900   44.4360   49.4110 C.2   112  GLY112      0.2280
     47  O         21.0330   44.4220   50.3770 O.2   112  GLY112     -0.2866
     48  N         21.4090   39.3310   47.8850 N.3   115  TYR115     -0.1227
     49  CA        21.3580   38.1600   48.7570 C.3   115  TYR115      0.1736
     50  C         19.9520   37.5370   48.7770 C.2   115  TYR115      0.2595
     51  O         19.7920   36.3550   49.0720 O.2   115  TYR115     -0.2718
     52  CB        21.7630   38.5330   50.1810 C.3   115  TYR115      0.0548
     53  CG        20.6950   39.3200   50.8900 C.ar  115  TYR115     -0.0200
     54  CD1       20.6690   40.7120   50.8430 C.ar  115  TYR115     -0.0009
     55  CD2       19.6580   38.6690   51.5500 C.ar  115  TYR115     -0.0009
     56  CE1       19.6270   41.4370   51.4360 C.ar  115  TYR115      0.0417
     57  CE2       18.6130   39.3780   52.1410 C.ar  115  TYR115      0.0417
     58  CZ        18.6000   40.7560   52.0840 C.ar  115  TYR115      0.1957
     59  OH        17.5620   41.4320   52.6840 O.3   115  TYR115     -0.2866
     60  N         18.9310   38.3390   48.4920 N.am  116  ASN116     -0.1974
     61  CA        17.5490   37.8600   48.4700 C.3   116  ASN116      0.1688
     62  C         17.3500   36.7670   47.4250 C.2   116  ASN116      0.2292
     63  O         16.7740   35.7170   47.7060 O.2   116  ASN116     -0.2864
     64  CB        16.5830   39.0110   48.1450 C.3   116  ASN116      0.1181
     65  CG        16.3880   39.9770   49.3080 C.2   116  ASN116      0.2629
     66  OD1       15.7300   39.6460   50.2990 O.2   116  ASN116     -0.2716
     67  ND2       16.9560   41.1790   49.1880 N.am  116  ASN116     -0.0877
     68  N         26.9040   33.7760   59.8490 N.3   156  TRP156     -0.1241
     69  CA        26.5430   33.9750   58.4440 C.3   156  TRP156      0.1605
     70  C         25.8460   32.7650   57.8720 C.2   156  TRP156      0.2264
     71  O         24.9780   32.8870   57.0070 O.2   156  TRP156     -0.2867
     72  CB        27.7750   34.3160   57.5820 C.3   156  TRP156      0.0550
     73  CG        28.1520   35.7610   57.6760 C.ar  156  TRP156      0.0003
     74  CD1       29.0610   36.3230   58.5310 C.ar  156  TRP156      0.0946
     75  CD2       27.5370   36.8500   56.9750 C.ar  156  TRP156      0.0152
     76  NE1       29.0450   37.6910   58.4150 N.ar  156  TRP156     -0.2442
     77  CE2       28.1190   38.0440   57.4670 C.ar  156  TRP156      0.0810
     78  CE3       26.5460   36.9340   55.9820 C.ar  156  TRP156      0.0012
     79  CZ2       27.7430   39.3110   57.0000 C.ar  156  TRP156      0.0191
     80  CZ3       26.1700   38.1950   55.5160 C.ar  156  TRP156      0.0001
     81  CH2       26.7720   39.3660   56.0310 C.ar  156  TRP156      0.0015
     82  N         22.2180   33.2530   58.3790 N.3   159  ALA159     -0.1231
     83  CA        21.5570   34.3240   57.6300 C.3   159  ALA159      0.1694
     84  C         21.6760   34.1380   56.1200 C.2   159  ALA159      0.2592
     85  O         20.7180   33.7510   55.4400 O.2   159  ALA159     -0.2718
     86  CB        22.1500   35.6720   58.0220 C.3   159  ALA159      0.0304
     87  N         22.8700   34.4190   55.6090 N.am  160  TYR160     -0.1976
     88  CA        23.1490   34.3210   54.1840 C.3   160  TYR160      0.1639
     89  C         24.1940   33.2350   53.9290 C.2   160  TYR160      0.2290
     90  O         25.3930   33.4460   54.1380 O.2   160  TYR160     -0.2864
     91  CB        23.6600   35.6710   53.6880 C.3   160  TYR160      0.0560
     92  CG        23.7580   35.7700   52.1980 C.ar  160  TYR160     -0.0198
     93  CD1       24.8640   36.3630   51.5940 C.ar  160  TYR160     -0.0009
     94  CD2       22.7450   35.2800   51.3880 C.ar  160  TYR160     -0.0009
     95  CE1       24.9590   36.4620   50.2240 C.ar  160  TYR160      0.0417
     96  CE2       22.8240   35.3720   50.0170 C.ar  160  TYR160      0.0417
     97  CZ        23.9310   35.9610   49.4360 C.ar  160  TYR160      0.1957
     98  OH        23.9930   36.0270   48.0590 O.3   160  TYR160     -0.2866
     99  N         26.0670   53.3680   58.7250 N.3   195  TYR195     -0.1241
    100  CA        25.1100   52.2920   58.9080 C.3   195  TYR195      0.1605
    101  C         24.7760   52.0660   60.3780 C.2   195  TYR195      0.2264
    102  O         23.7390   52.5390   60.8560 O.2   195  TYR195     -0.2867
    103  CB        25.6580   51.0160   58.2680 C.3   195  TYR195      0.0534
    104  CG        24.7750   49.8170   58.4330 C.ar  195  TYR195     -0.0201
    105  CD1       23.4170   49.8830   58.1470 C.ar  195  TYR195     -0.0009
    106  CD2       25.3020   48.6030   58.8520 C.ar  195  TYR195     -0.0009
    107  CE1       22.6060   48.7610   58.2750 C.ar  195  TYR195      0.0417
    108  CE2       24.5020   47.4750   58.9800 C.ar  195  TYR195      0.0417
    109  CZ        23.1600   47.5570   58.6920 C.ar  195  TYR195      0.1957
    110  OH        22.3820   46.4250   58.8260 O.3   195  TYR195     -0.2866
    111  N         24.6560   42.3180   65.5600 N.3   226  GLU226     -0.1245
    112  CA        25.3770   42.4860   64.3010 C.3   226  GLU226      0.1567
    113  C         26.5270   43.4640   64.4320 C.2   226  GLU226      0.2260
    114  O         27.6600   43.1290   64.0930 O.2   226  GLU226     -0.2867
    115  CB        24.4310   42.9510   63.1950 C.3   226  GLU226      0.0388
    116  CG        23.6010   41.8280   62.5800 C.3   226  GLU226      0.1160
    117  CD        22.9010   42.2530   61.2980 C.2   226  GLU226      0.3649
    118  OE1       23.5900   42.7560   60.3750 O.co2 226  GLU226     -0.2457
    119  OE2       21.6650   42.0810   61.2140 O.co2 226  GLU226     -0.2457
    120  N         32.0380   44.0080   53.1100 N.3   239  TYR239     -0.1241
    121  CA        31.1870   44.1340   51.9300 C.3   239  TYR239      0.1605
    122  C         32.0610   44.5420   50.7400 C.2   239  TYR239      0.2264
    123  O         32.9730   45.3630   50.8880 O.2   239  TYR239     -0.2867
    124  CB        30.0960   45.1770   52.1730 C.3   239  TYR239      0.0534
    125  CG        28.6800   44.6230   52.1110 C.ar  239  TYR239     -0.0201
    126  CD1       28.2490   43.6580   53.0120 C.ar  239  TYR239     -0.0009
    127  CD2       27.7790   45.0460   51.1310 C.ar  239  TYR239     -0.0009
    128  CE1       26.9630   43.1250   52.9430 C.ar  239  TYR239      0.0417
    129  CE2       26.4850   44.5130   51.0530 C.ar  239  TYR239      0.0417
    130  CZ        26.0890   43.5500   51.9670 C.ar  239  TYR239      0.1957
    131  OH        24.8260   43.0050   51.9090 O.3   239  TYR239     -0.2866
@<TRIPOS>BOND
     1    62    63    2
     2    62    61    1
     3    48    49    1
     4    98    97    1
     5    64    61    1
     6    64    65    1
     7    44    45    1
     8    61    60    1
     9    60    50   am
    10    49    50    1
    11    49    52    1
    12    50    51    2
    13    33    34    1
    14    67    65   am
    15    65    66    2
    16    36    35    2
    17    46    45    1
    18    46    47    2
    19    97    96   ar
    20    97    95   ar
    21    35    34    1
    22    96    94   ar
    23    34    37    1
    24    52    53    1
    25    95    93   ar
    26   122   123    2
    27   122   121    1
    28    54    53   ar
    29    54    56   ar
    30    53    55   ar
    31   129   127   ar
    32   129   130   ar
    33   127   125   ar
    34    37    38    1
    35    94    92   ar
    36    56    58   ar
    37    55    57   ar
    38    40    38   ar
    39    40    42   ar
    40    93    92   ar
    41   131   130    1
    42   121   124    1
    43   121   120    1
    44    38    39   ar
    45   130   128   ar
    46    42    43   ar
    47    58    57   ar
    48    58    59    1
    49   125   124    1
    50   125   126   ar
    51    92    91    1
    52    28    26   am
    53    39    41   ar
    54   128   126   ar
    55    43    41   ar
    56    26    27    2
    57    26    25    1
    58    91    88    1
    59    89    90    2
    60    89    88    1
    61    32    31    2
    62    88    87    1
    63    25    24    1
    64    24    21    1
    65    31    30    1
    66    20    21    1
    67    30    29    1
    68    29    22   am
    69    21    22    1
    70    22    23    2
    71    85    84    2
    72    80    78   ar
    73    80    81   ar
    74    87    84   am
    75    78    75   ar
    76    81    79   ar
    77    84    83    1
    78    12    11    2
    79    75    77   ar
    80    75    73   ar
    81    79    77   ar
    82    71    70    2
    83    13    14    1
    84    13    10    1
    85    11    10    1
    86    77    76   ar
    87    72    73    1
    88    72    69    1
    89    83    86    1
    90    83    82    1
    91    73    74   ar
    92    14    16   ar
    93    14    15   ar
    94    16    18   ar
    95    70    69    1
    96    10     9    1
    97   105   107   ar
    98   105   104   ar
    99    15    17   ar
   100   103   104    1
   101   103   100    1
   102   107   109   ar
   103    76    74   ar
   104   104   106   ar
   105    18    19   ar
   106    69    68    1
   107   109   110    1
   108   109   108   ar
   109    99   100    1
   110    17    19   ar
   111   106   108   ar
   112   100   101    1
   113     3     4    2
   114     3     2    1
   115     7     5    1
   116     5     2    1
   117     5     6    1
   118     2     1    1
   119   118   117   ar
   120   101   102    2
   121     6     8    1
   122   119   117   ar
   123   117   116    1
   124   116   115    1
   125   115   112    1
   126   114   113    2
   127   112   113    1
   128   112   111    1
