@<TRIPOS>MOLECULE
tmp/3t7tC00.pdb
 186 183 0 0 0
SMALL
GASTEIGER

@<TRIPOS>ATOM
      1  N        -17.9570  -26.6660   45.3110 N.3    12  ARG12      -0.1231
      2  CA       -16.7510  -25.8460   45.4460 C.3    12  ARG12       0.1694
      3  C        -15.4670  -26.6240   45.1890 C.2    12  ARG12       0.2592
      4  O        -15.4250  -27.8320   45.4120 O.2    12  ARG12      -0.2718
      5  CB       -16.7040  -25.2590   46.8530 C.3    12  ARG12       0.0321
      6  CG       -18.0070  -24.6120   47.2290 C.3    12  ARG12       0.0489
      7  CD       -17.9040  -23.7330   48.4320 C.3    12  ARG12       0.2205
      8  NE       -16.7510  -22.8380   48.4040 N.pl3  12  ARG12      -0.0865
      9  CZ       -16.6130  -21.8160   49.2390 C.cat  12  ARG12       0.5346
     10  NH1      -15.5380  -21.0420   49.1920 N.pl3  12  ARG12       0.1354
     11  NH2      -17.5760  -21.5620   50.1070 N.pl3  12  ARG12       0.1354
     12  N        -14.4250  -25.9480   44.7070 N.am   13  GLN13      -0.1966
     13  CA       -13.1610  -26.6390   44.4830 C.3    13  GLN13       0.1733
     14  C        -12.2370  -26.3300   45.6570 C.2    13  GLN13       0.2617
     15  O        -11.0190  -26.4740   45.5510 O.2    13  GLN13      -0.2715
     16  CB       -12.4670  -26.2310   43.1520 C.3    13  GLN13       0.0408
     17  CG       -11.0830  -26.9990   42.9030 C.3    13  GLN13       0.0908
     18  CD       -10.1640  -26.4060   41.7960 C.2    13  GLN13       0.2608
     19  OE1       -8.9430  -26.6620   41.7590 O.2    13  GLN13      -0.2717
     20  NE2      -10.7560  -25.6310   40.8930 N.am   13  GLN13      -0.0878
     21  N        -12.8120  -25.9070   46.7820 N.am   14  GLY14      -0.1941
     22  CA       -11.9920  -25.6120   47.9460 C.3    14  GLY14       0.1998
     23  C        -12.7700  -25.5090   49.2460 C.2    14  GLY14       0.2480
     24  O        -13.9900  -25.3230   49.2230 O.2    14  GLY14      -0.2729
     25  N        -12.0930  -25.6080   50.4040 N.am   15  PRO15      -0.2726
     26  CA       -12.7680  -25.5220   51.7030 C.3    15  PRO15       0.1402
     27  C        -13.5870  -24.2470   51.9110 C.2    15  PRO15       0.2269
     28  O        -13.2380  -23.1740   51.4310 O.2    15  PRO15      -0.2865
     29  CB       -11.6130  -25.6260   52.7070 C.3    15  PRO15       0.0296
     30  CG       -10.5920  -26.4270   51.9830 C.3    15  PRO15       0.0237
     31  CD       -10.6480  -25.8400   50.5820 C.3    15  PRO15       0.0939
     32  N        -11.3510  -13.3830   42.9540 N.3    40  LEU40      -0.1231
     33  CA       -10.2610  -13.9940   42.2020 C.3    40  LEU40       0.1693
     34  C        -10.2140  -15.4990   42.4480 C.2    40  LEU40       0.2593
     35  O        -10.3150  -15.9370   43.5900 O.2    40  LEU40      -0.2718
     36  CB        -8.9320  -13.3310   42.5840 C.3    40  LEU40       0.0284
     37  CG        -8.8850  -11.8150   42.3390 C.3    40  LEU40       0.0019
     38  CD1       -7.5390  -11.2650   42.7670 C.3    40  LEU40       0.0001
     39  CD2       -9.1290  -11.5200   40.8680 C.3    40  LEU40       0.0001
     40  N        -10.0750  -16.2740   41.3670 N.am   41  GLY41      -0.1942
     41  CA       -10.0490  -17.7320   41.4560 C.3    41  GLY41       0.2014
     42  C        -11.3960  -18.2930   41.9300 C.2    41  GLY41       0.2639
     43  O        -11.4580  -19.2950   42.6580 O.2    41  GLY41      -0.2714
     44  N        -12.4750  -17.6470   41.4940 N.am   42  CYS42      -0.1953
     45  CA       -13.8350  -18.0000   41.8750 C.3    42  CYS42       0.1843
     46  C        -14.3400  -19.4140   41.5990 C.2    42  CYS42       0.2626
     47  O        -15.4440  -19.7500   42.0260 O.2    42  CYS42      -0.2714
     48  CB       -14.7990  -17.0200   41.2290 C.3    42  CYS42       0.0997
     49  SG       -14.6600  -17.0010   39.4370 S.3    42  CYS42      -0.0797
     50  N        -13.5580  -20.2400   40.9040 N.am   43  GLY43      -0.1940
     51  CA       -14.0180  -21.5840   40.5960 C.3    43  GLY43       0.2014
     52  C        -15.3870  -21.4450   39.9500 C.2    43  GLY43       0.2639
     53  O        -15.6190  -20.5010   39.1880 O.2    43  GLY43      -0.2714
     54  N        -16.3020  -22.3550   40.2660 N.am   44  THR44      -0.1950
     55  CA       -17.6370  -22.3090   39.6960 C.3    44  THR44       0.1897
     56  C        -18.4830  -21.2230   40.3430 C.2    44  THR44       0.2313
     57  O        -19.6370  -21.0260   39.9690 O.2    44  THR44      -0.2863
     58  CB       -18.3360  -23.6490   39.8560 C.3    44  THR44       0.1794
     59  OG1      -18.2590  -24.0570   41.2270 O.3    44  THR44      -0.2208
     60  CG2      -17.6670  -24.7030   38.9700 C.3    44  THR44       0.0378
     61  N        -19.3960  -20.8170   43.8330 N.3    46  GLY46      -0.1210
     62  CA       -20.3410  -21.1550   44.8840 C.3    46  GLY46       0.1956
     63  C        -20.3270  -20.1190   45.9880 C.2    46  GLY46       0.2611
     64  O        -21.3450  -19.8620   46.6350 O.2    46  GLY46      -0.2717
     65  N        -19.1640  -19.5130   46.2060 N.am   47  GLN47      -0.1979
     66  CA       -19.0470  -18.5150   47.2510 C.3    47  GLN47       0.1601
     67  C        -19.3800  -17.1260   46.7310 C.2    47  GLN47       0.2287
     68  O        -19.7790  -16.2520   47.5080 O.2    47  GLN47      -0.2864
     69  CB       -17.6440  -18.5500   47.8930 C.3    47  GLN47       0.0394
     70  CG       -16.4750  -18.0430   47.0670 C.3    47  GLN47       0.0908
     71  CD       -16.2050  -18.8820   45.8280 C.2    47  GLN47       0.2608
     72  OE1      -16.6050  -20.0380   45.7520 O.2    47  GLN47      -0.2717
     73  NE2      -15.5000  -18.3010   44.8560 N.am   47  GLN47      -0.0878
     74  N        -13.2060  -14.0530   38.3440 N.3    62  ILE62      -0.1231
     75  CA       -12.1480  -14.3630   37.3930 C.3    62  ILE62       0.1692
     76  C        -11.5330  -15.7080   37.7380 C.2    62  ILE62       0.2592
     77  O        -11.1840  -15.9600   38.8950 O.2    62  ILE62      -0.2718
     78  CB       -11.0260  -13.3040   37.4150 C.3    62  ILE62       0.0266
     79  CG1      -11.6080  -11.9150   37.1300 C.3    62  ILE62       0.0019
     80  CG2       -9.9550  -13.6630   36.3750 C.3    62  ILE62       0.0020
     81  CD1      -10.5680  -10.7970   37.1500 C.3    62  ILE62       0.0001
     82  N        -11.4110  -16.5750   36.7380 N.am   63  ASP63      -0.1960
     83  CA       -10.8230  -17.8870   36.9470 C.3    63  ASP63       0.1840
     84  C        -10.1060  -18.3050   35.6770 C.2    63  ASP63       0.2622
     85  O        -10.4640  -17.8720   34.5860 O.2    63  ASP63      -0.2715
     86  CB       -11.8920  -18.9230   37.2950 C.3    63  ASP63       0.1450
     87  CG       -11.3220  -20.1070   38.0740 C.2    63  ASP63       0.3671
     88  OD1      -11.3970  -20.1120   39.3200 O.co2  63  ASP63      -0.2456
     89  OD2      -10.7840  -21.0320   37.4390 O.co2  63  ASP63      -0.2456
     90  N         -9.0920  -19.1480   35.8330 N.am   64  PHE64      -0.1960
     91  CA        -8.2930  -19.6310   34.7180 C.3    64  PHE64       0.1771
     92  C         -9.0130  -20.6200   33.7870 C.2    64  PHE64       0.2619
     93  O         -8.8960  -20.5130   32.5660 O.2    64  PHE64      -0.2715
     94  CB        -7.0180  -20.2760   35.2630 C.3    64  PHE64       0.0574
     95  CG        -5.8810  -20.2820   34.2840 C.ar   64  PHE64      -0.0200
     96  CD1       -5.4580  -19.0910   33.6880 C.ar   64  PHE64      -0.0042
     97  CD2       -5.2510  -21.4740   33.9350 C.ar   64  PHE64      -0.0042
     98  CE1       -4.4210  -19.0820   32.7470 C.ar   64  PHE64      -0.0003
     99  CE2       -4.2090  -21.4850   32.9920 C.ar   64  PHE64      -0.0003
    100  CZ        -3.7960  -20.2870   32.3960 C.ar   64  PHE64      -0.0000
    101  N         -9.7390  -21.5790   34.3680 N.am   65  PHE65      -0.1974
    102  CA       -10.4650  -22.5990   33.6010 C.3    65  PHE65       0.1639
    103  C        -11.7580  -22.0350   33.0400 C.2    65  PHE65       0.2290
    104  O        -12.6190  -21.5700   33.7890 O.2    65  PHE65      -0.2864
    105  CB       -10.8500  -23.8200   34.4710 C.3    65  PHE65       0.0560
    106  CG        -9.6790  -24.6700   34.9500 C.ar   65  PHE65      -0.0200
    107  CD1       -8.3570  -24.3380   34.6540 C.ar   65  PHE65      -0.0042
    108  CD2       -9.9180  -25.8070   35.7380 C.ar   65  PHE65      -0.0042
    109  CE1       -7.2940  -25.1260   35.1400 C.ar   65  PHE65      -0.0003
    110  CE2       -8.8700  -26.6040   36.2270 C.ar   65  PHE65      -0.0003
    111  CZ        -7.5580  -26.2620   35.9280 C.ar   65  PHE65      -0.0000
    112  N        -15.0720  -23.4740   34.2910 N.3    68  PHE68      -0.1241
    113  CA       -15.5360  -22.9660   35.5730 C.3    68  PHE68       0.1605
    114  C        -16.3490  -21.6890   35.3700 C.2    68  PHE68       0.2264
    115  O        -17.3970  -21.5090   35.9880 O.2    68  PHE68      -0.2867
    116  CB       -14.3540  -22.6780   36.5060 C.3    68  PHE68       0.0534
    117  CG       -13.8140  -23.8940   37.1990 C.ar   68  PHE68      -0.0203
    118  CD1      -14.5240  -25.0890   37.1940 C.ar   68  PHE68      -0.0042
    119  CD2      -12.5970  -23.8380   37.8690 C.ar   68  PHE68      -0.0042
    120  CE1      -14.0310  -26.2120   37.8450 C.ar   68  PHE68      -0.0003
    121  CE2      -12.0910  -24.9510   38.5250 C.ar   68  PHE68      -0.0003
    122  CZ       -12.8060  -26.1460   38.5170 C.ar   68  PHE68      -0.0000
    123  N         -9.5370  -15.3090   33.1430 N.3    90  GLY90      -0.1210
    124  CA        -8.3370  -14.4960   33.2470 C.3    90  GLY90       0.1956
    125  C         -7.3740  -15.0650   34.2720 C.2    90  GLY90       0.2613
    126  O         -7.5820  -16.1780   34.7590 O.2    90  GLY90      -0.2717
    127  N         -6.3290  -14.3130   34.6080 N.am   91  SER91      -0.1938
    128  CA        -5.3500  -14.7900   35.5750 C.3    91  SER91       0.2055
    129  C         -5.1300  -13.7800   36.6870 C.2    91  SER91       0.2643
    130  O         -5.1470  -12.5740   36.4400 O.2    91  SER91      -0.2714
    131  CB        -4.0230  -15.0950   34.8700 C.3    91  SER91       0.2130
    132  OG        -3.1640  -15.8700   35.6940 O.3    91  SER91      -0.2179
    133  N         -4.9320  -14.2860   37.9080 N.am   92  MET92      -0.1962
    134  CA        -4.7040  -13.4450   39.0920 C.3    92  MET92       0.1736
    135  C         -3.4700  -12.5860   38.9380 C.2    92  MET92       0.2616
    136  O         -3.3890  -11.4990   39.5230 O.2    92  MET92      -0.2715
    137  CB        -4.4530  -14.2760   40.3470 C.3    92  MET92       0.0427
    138  CG        -5.5060  -15.2400   40.7630 C.3    92  MET92       0.0599
    139  SD        -4.7640  -16.2560   42.0590 S.3    92  MET92      -0.1393
    140  CE        -3.1390  -16.6340   41.3260 C.3    92  MET92       0.0692
    141  N         -2.4940  -13.1140   38.1970 N.am   93  ASP93      -0.1971
    142  CA        -1.2260  -12.4260   37.9910 C.3    93  ASP93       0.1709
    143  C         -1.2480  -11.4630   36.8360 C.2    93  ASP93       0.2293
    144  O         -0.2880  -10.7230   36.6290 O.2    93  ASP93      -0.2864
    145  CB        -0.0760  -13.4260   37.7930 C.3    93  ASP93       0.1436
    146  CG        -0.3360  -14.4330   36.6720 C.2    93  ASP93       0.3671
    147  OD1       -0.8400  -14.0450   35.5910 O.co2  93  ASP93      -0.2456
    148  OD2       -0.0090  -15.6210   36.8800 O.co2  93  ASP93      -0.2456
    149  N        -11.0930  -17.1780   47.7600 N.3   108  GLU108     -0.1231
    150  CA       -11.1590  -18.3090   48.6620 C.3   108  GLU108      0.1699
    151  C        -10.3760  -19.4780   48.0970 C.2   108  GLU108      0.2593
    152  O        -10.6280  -19.9300   46.9720 O.2   108  GLU108     -0.2718
    153  CB       -12.6130  -18.7010   48.9140 C.3   108  GLU108      0.0402
    154  CG       -13.4170  -17.5880   49.5650 C.3   108  GLU108      0.1161
    155  CD       -14.4860  -18.1080   50.4980 C.2   108  GLU108      0.3649
    156  OE1      -14.1810  -19.0560   51.2460 O.co2 108  GLU108     -0.2457
    157  OE2      -15.6190  -17.5690   50.5050 O.co2 108  GLU108     -0.2457
    158  N         -9.4040  -19.9340   48.8880 N.am  109  GLY109     -0.1942
    159  CA        -8.5540  -21.0450   48.5070 C.3   109  GLY109      0.2014
    160  C         -7.9570  -20.9200   47.1160 C.2   109  GLY109      0.2638
    161  O         -7.9340  -21.8950   46.3670 O.2   109  GLY109     -0.2714
    162  N         -7.4540  -19.7410   46.7690 N.am  110  ALA110     -0.1977
    163  CA        -6.8880  -19.5600   45.4450 C.3   110  ALA110      0.1597
    164  C         -5.7170  -18.5770   45.3550 C.2   110  ALA110      0.2287
    165  O         -5.1480  -18.4000   44.2780 O.2   110  ALA110     -0.2864
    166  CB        -8.0040  -19.1570   44.4580 C.3   110  ALA110      0.0319
    167  N         -2.9110  -19.0520   46.6820 N.3   112  TYR112     -0.1227
    168  CA        -1.6980  -19.8540   46.6420 C.3   112  TYR112      0.1736
    169  C         -1.1290  -19.9220   45.2350 C.2   112  TYR112      0.2595
    170  O          0.0880  -20.0020   45.0630 O.2   112  TYR112     -0.2718
    171  CB        -1.9270  -21.2800   47.1830 C.3   112  TYR112      0.0548
    172  CG        -2.8410  -22.1560   46.3460 C.ar  112  TYR112     -0.0200
    173  CD1       -4.2340  -22.0810   46.4800 C.ar  112  TYR112     -0.0009
    174  CD2       -2.3160  -23.0540   45.4100 C.ar  112  TYR112     -0.0009
    175  CE1       -5.0900  -22.8810   45.7010 C.ar  112  TYR112      0.0417
    176  CE2       -3.1590  -23.8610   44.6190 C.ar  112  TYR112      0.0417
    177  CZ        -4.5490  -23.7720   44.7720 C.ar  112  TYR112      0.1957
    178  OH        -5.3930  -24.5790   44.0220 O.3   112  TYR112     -0.2866
    179  N         -2.0000  -19.8750   44.2280 N.am  113  ASN113     -0.1974
    180  CA        -1.5480  -19.9360   42.8380 C.3   113  ASN113      0.1688
    181  C         -0.5520  -18.8390   42.5000 C.2   113  ASN113      0.2292
    182  O          0.3310  -19.0430   41.6680 O.2   113  ASN113     -0.2864
    183  CB        -2.7370  -19.8640   41.8740 C.3   113  ASN113      0.1181
    184  CG        -3.5490  -21.1460   41.8560 C.2   113  ASN113      0.2629
    185  OD1       -3.0990  -22.1770   41.3500 O.2   113  ASN113     -0.2716
    186  ND2       -4.7500  -21.0900   42.4200 N.am  113  ASN113     -0.0877
@<TRIPOS>BOND
     1   100    98   ar
     2   100    99   ar
     3    93    92    2
     4    98    96   ar
     5    99    97   ar
     6   103   102    1
     7   103   104    2
     8   123   124    1
     9   124   125    1
    10   102   101    1
    11   102   105    1
    12    96    95   ar
    13    92   101   am
    14    92    91    1
    15    97    95   ar
    16   125   127   am
    17   125   126    2
    18    95    94    1
    19   112   113    1
    20   105   106    1
    21    85    84    2
    22   127   128    1
    23   107   106   ar
    24   107   109   ar
    25    91    94    1
    26    91    90    1
    27   131   128    1
    28   131   132    1
    29   106   108   ar
    30   109   111   ar
    31   114   113    1
    32   114   115    2
    33   113   116    1
    34   128   129    1
    35   147   146   ar
    36    84    90   am
    37    84    83    1
    38   108   110   ar
    39   111   110   ar
    40    80    78    1
    41   130   129    2
    42   116   117    1
    43   144   143    2
    44   146   148   ar
    45   146   145    1
    46   129   133   am
    47    82    83    1
    48    82    76   am
    49   143   142    1
    50    83    86    1
    51    79    81    1
    52    79    78    1
    53   118   117   ar
    54   118   120   ar
    55   117   119   ar
    56    86    87    1
    57    75    78    1
    58    75    76    1
    59    75    74    1
    60    89    87   ar
    61    76    77    2
    62   145   142    1
    63   120   122   ar
    64   119   121   ar
    65   133   134    1
    66   142   141    1
    67    87    88   ar
    68   141   135   am
    69   122   121   ar
    70   135   134    1
    71   135   136    2
    72    60    58    1
    73   134   137    1
    74    53    52    2
    75    49    48    1
    76    55    58    1
    77    55    54    1
    78    55    56    1
    79    58    59    1
    80    52    54   am
    81    52    51    1
    82    57    56    2
    83   137   138    1
    84    51    50    1
    85   138   139    1
    86    39    37    1
    87    20    18   am
    88    50    46   am
    89    48    45    1
    90   140   139    1
    91   185   184    2
    92    40    41    1
    93    40    34   am
    94    41    42    1
    95    44    45    1
    96    44    42   am
    97    46    45    1
    98    46    47    2
    99   182   181    2
   100    19    18    2
   101    18    17    1
   102   184   183    1
   103   184   186   am
   104   183   180    1
   105    42    43    2
   106    33    34    1
   107    33    36    1
   108    33    32    1
   109    37    36    1
   110    37    38    1
   111    34    35    2
   112   181   180    1
   113   180   179    1
   114    17    16    1
   115    16    13    1
   116    61    62    1
   117   178   177    1
   118   179   169   am
   119   165   164    2
   120   166   163    1
   121    13    12    1
   122    13    14    1
   123   176   177   ar
   124   176   174   ar
   125    12     3   am
   126   177   175   ar
   127    73    71   am
   128    62    63    1
   129   170   169    2
   130     3     4    2
   131     3     2    1
   132   169   168    1
   133     1     2    1
   134   164   163    1
   135   174   172   ar
   136   163   162    1
   137     2     5    1
   138    15    14    2
   139    14    21   am
   140   175   173   ar
   141    72    71    2
   142    71    70    1
   143    63    65   am
   144    63    64    2
   145    65    66    1
   146   172   173   ar
   147   172   171    1
   148   161   160    2
   149   168   167    1
   150   168   171    1
   151    67    66    1
   152    67    68    2
   153   162   160   am
   154    21    22    1
   155     5     6    1
   156   152   151    2
   157    70    69    1
   158   160   159    1
   159     6     7    1
   160    66    69    1
   161   149   150    1
   162    22    23    1
   163   151   150    1
   164   151   158   am
   165     8     7    1
   166     8     9    2
   167   159   158    1
   168   150   153    1
   169   153   154    1
   170    10     9    1
   171    24    23    2
   172     9    11    1
   173    23    25   am
   174   154   155    1
   175    25    31    1
   176    25    26    1
   177   155   157   ar
   178   155   156   ar
   179    31    30    1
   180    28    27    2
   181    26    27    1
   182    26    29    1
   183    30    29    1
