@<TRIPOS>MOLECULE
tmp/3t7vA01.pdb
 111 100 0 0 0
SMALL
GASTEIGER

@<TRIPOS>ATOM
      1  N         55.5320   45.2090   -2.0880 N.3    53  PHE53      -0.1241
      2  CA        55.0750   43.8340   -2.2770 C.3    53  PHE53       0.1605
      3  C         55.3900   43.3930   -3.6900 C.2    53  PHE53       0.2264
      4  O         54.8890   43.9810   -4.6790 O.2    53  PHE53      -0.2867
      5  CB        53.5430   43.8560   -2.0790 C.3    53  PHE53       0.0534
      6  CG        52.9290   42.4760   -2.2210 C.ar   53  PHE53      -0.0203
      7  CD1       53.3250   41.4720   -1.3350 C.ar   53  PHE53      -0.0042
      8  CD2       52.0020   42.1740   -3.2110 C.ar   53  PHE53      -0.0042
      9  CE1       52.8160   40.1730   -1.4230 C.ar   53  PHE53      -0.0003
     10  CE2       51.4760   40.8610   -3.3090 C.ar   53  PHE53      -0.0003
     11  CZ        51.8960   39.8900   -2.4260 C.ar   53  PHE53      -0.0000
     12  N         58.7960   42.7250    0.2810 N.3   101  ASP101     -0.1239
     13  CA        58.1950   41.3650    0.5140 C.3   101  ASP101      0.1674
     14  C         58.1310   40.5280   -0.7320 C.2   101  ASP101      0.2266
     15  O         57.3970   40.9400   -1.6680 O.2   101  ASP101     -0.2867
     16  CB        56.8260   41.5550    1.1820 C.3   101  ASP101      0.1410
     17  CG        56.0710   40.3000    1.4350 C.2   101  ASP101      0.3668
     18  OD1       56.5620   39.1560    1.2100 O.co2 101  ASP101     -0.2456
     19  OD2       54.8890   40.4130    1.9220 O.co2 101  ASP101     -0.2456
     20  N         56.9520   37.4720   -2.4660 N.3   103  THR103     -0.1218
     21  CA        55.8770   36.5350   -2.2030 C.3   103  THR103      0.1862
     22  C         55.6190   35.6590   -3.4090 C.2   103  THR103      0.2287
     23  O         55.6810   36.1030   -4.5750 O.2   103  THR103     -0.2866
     24  CB        54.5920   37.3400   -1.8740 C.3   103  THR103      0.1770
     25  OG1       54.7760   37.9830   -0.6070 O.3   103  THR103     -0.2211
     26  CG2       53.3300   36.4090   -1.7090 C.3   103  THR103      0.0375
     27  N         57.7300   35.4450    1.6490 N.3   135  SER135     -0.1217
     28  CA        56.4650   34.7580    1.9040 C.3   135  SER135      0.1889
     29  C         56.4050   33.6180    0.8780 C.2   135  SER135      0.2288
     30  O         55.7520   33.7620   -0.1570 O.2   135  SER135     -0.2866
     31  CB        55.2830   35.7370    1.6930 C.3   135  SER135      0.2089
     32  OG        55.4390   36.9060    2.4540 O.3   135  SER135     -0.2183
     33  N         57.1910   35.7180    6.4690 N.3   156  ALA156     -0.1245
     34  CA        55.7410   35.9370    6.7050 C.3   156  ALA156      0.1562
     35  C         55.0270   34.6400    6.3690 C.2   156  ALA156      0.2260
     36  O         55.0600   34.1870    5.2220 O.2   156  ALA156     -0.2867
     37  CB        55.2560   37.0960    5.8000 C.3   156  ALA156      0.0290
     38  N         51.4300   33.1410    7.5720 N.3   158  TYR158     -0.1241
     39  CA        50.3140   33.4180    8.4830 C.3   158  TYR158      0.1605
     40  C         49.5300   32.1680    8.7880 C.2   158  TYR158      0.2264
     41  O         49.3270   31.3140    7.9540 O.2   158  TYR158     -0.2867
     42  CB        49.3220   34.4570    7.8260 C.3   158  TYR158      0.0534
     43  CG        50.0310   35.7010    7.2720 C.ar  158  TYR158     -0.0201
     44  CD1       51.2020   36.1790    7.8700 C.ar  158  TYR158     -0.0009
     45  CD2       49.5450   36.3430    6.1770 C.ar  158  TYR158     -0.0009
     46  CE1       51.8840   37.2850    7.3210 C.ar  158  TYR158      0.0417
     47  CE2       50.1880   37.4160    5.6170 C.ar  158  TYR158      0.0417
     48  CZ        51.3700   37.8660    6.1750 C.ar  158  TYR158      0.1957
     49  OH        52.0260   38.9510    5.5990 O.3   158  TYR158     -0.2866
     50  N         56.4240   37.1630   10.8630 N.3   194  GLU194     -0.1245
     51  CA        55.0830   37.7970   10.8570 C.3   194  GLU194      0.1567
     52  C         54.0610   36.6700   10.8560 C.2   194  GLU194      0.2260
     53  O         54.1280   35.7370   10.0080 O.2   194  GLU194     -0.2867
     54  CB        54.9040   38.6300    9.5610 C.3   194  GLU194      0.0388
     55  CG        53.5470   39.3990    9.5750 C.3   194  GLU194      0.1160
     56  CD        53.1970   40.2020    8.3050 C.2   194  GLU194      0.3649
     57  OE1       53.7530   39.9830    7.2020 O.co2 194  GLU194     -0.2457
     58  OE2       52.2140   41.0400    8.4130 O.co2 194  GLU194     -0.2457
     59  N         49.3600   40.6290   12.0130 N.3   224  ARG224     -0.1245
     60  CA        48.3710   41.2530   11.1300 C.3   224  ARG224      0.1563
     61  C         47.0070   40.6340   11.1950 C.2   224  ARG224      0.2260
     62  O         46.8270   39.4610   11.6010 O.2   224  ARG224     -0.2867
     63  CB        48.8750   41.3280    9.7070 C.3   224  ARG224      0.0307
     64  CG        48.7330   40.1180    8.9580 C.3   224  ARG224      0.0489
     65  CD        48.7010   40.3420    7.4020 C.3   224  ARG224      0.2205
     66  NE        49.9420   41.0050    6.9440 N.pl3 224  ARG224     -0.0865
     67  CZ        50.0400   41.6710    5.7970 C.cat 224  ARG224      0.5346
     68  NH1       48.9610   41.8000    4.9940 N.pl3 224  ARG224      0.1354
     69  NH2       51.1870   42.2490    5.4860 N.pl3 224  ARG224      0.1354
     70  N         43.7400   40.5080    8.2710 N.3   226  MET226     -0.1245
     71  CA        43.1570   40.9000    6.9870 C.3   226  MET226      0.1570
     72  C         41.6940   40.5870    6.9140 C.2   226  MET226      0.2261
     73  O         41.2850   39.4850    7.3680 O.2   226  MET226     -0.2867
     74  CB        43.8950   40.1680    5.8720 C.3   226  MET226      0.0387
     75  CG        45.3860   40.4710    5.9450 C.3   226  MET226      0.0595
     76  SD        46.2290   39.7950    4.5510 S.3   226  MET226     -0.1393
     77  CE        45.6130   40.5260    2.9730 C.3   226  MET226      0.0692
     78  N         47.3980   47.2490    5.2340 N.3   266  SER266     -0.1217
     79  CA        47.5060   46.7260    3.8630 C.3   266  SER266      0.1889
     80  C         46.6610   47.4900    2.8570 C.2   266  SER266      0.2288
     81  O         45.4640   47.6980    3.0800 O.2   266  SER266     -0.2866
     82  CB        47.0680   45.2420    3.8250 C.3   266  SER266      0.2089
     83  OG        47.0750   44.7730    2.4620 O.3   266  SER266     -0.2183
     84  N         45.9040   46.2010    0.1030 N.3   268  ASP268     -0.1239
     85  CA        45.2550   45.1770   -0.7190 C.3   268  ASP268      0.1674
     86  C         43.7350   45.0330   -0.4380 C.2   268  ASP268      0.2266
     87  O         42.9980   44.4750   -1.2660 O.2   268  ASP268     -0.2867
     88  CB        45.9410   43.8210   -0.3960 C.3   268  ASP268      0.1410
     89  CG        45.9130   42.8180   -1.5270 C.2   268  ASP268      0.3668
     90  OD1       45.7320   43.1490   -2.7190 O.co2 268  ASP268     -0.2456
     91  OD2       46.2130   41.6320   -1.1740 O.co2 268  ASP268     -0.2456
     92  N         51.6530   48.1560    3.8310 N.3   287  THR287     -0.1203
     93  CA        52.0800   47.0360    3.0100 C.3   287  THR287      0.1994
     94  C         51.1920   46.9440    1.7740 C.2   287  THR287      0.2618
     95  O         50.1950   47.6540    1.6310 O.2   287  THR287     -0.2717
     96  CB        51.9970   45.7050    3.7960 C.3   287  THR287      0.1784
     97  OG1       50.6150   45.3370    4.0100 O.3   287  THR287     -0.2211
     98  CG2       52.7640   45.7790    5.1490 C.3   287  THR287      0.0376
     99  N         51.6320   46.0750    0.8700 N.am  288  SER288     -0.1951
    100  CA        50.9190   45.8780   -0.4070 C.3   288  SER288      0.1924
    101  C         51.0610   47.1150   -1.3030 C.2   288  SER288      0.2314
    102  O         50.2160   47.4160   -2.1550 O.2   288  SER288     -0.2863
    103  CB        49.4520   45.4630   -0.2760 C.3   288  SER288      0.2116
    104  OG        49.1510   44.4780   -1.3450 O.3   288  SER288     -0.2180
    105  N         47.1820   40.1010   -3.4890 N.3   299  VAL299     -0.1245
    106  CA        46.6080   38.7430   -3.1920 C.3   299  VAL299      0.1561
    107  C         45.0900   38.8050   -3.1050 C.2   299  VAL299      0.2260
    108  O         44.4060   37.9750   -3.7720 O.2   299  VAL299     -0.2867
    109  CB        47.1860   38.1390   -1.8650 C.3   299  VAL299      0.0252
    110  CG1       46.5750   36.7420   -1.6500 C.3   299  VAL299      0.0019
    111  CG2       48.7210   38.0690   -2.0170 C.3   299  VAL299      0.0019
@<TRIPOS>BOND
     1     4     3    2
     2    23    22    2
     3   108   107    2
     4     3     2    1
     5   105   106    1
     6    22    21    1
     7    10     8   ar
     8    10    11   ar
     9     8     6   ar
    10   106   107    1
    11   106   109    1
    12    90    89   ar
    13    20    21    1
    14    11     9   ar
    15     2     1    1
    16     2     5    1
    17     6     5    1
    18     6     7   ar
    19    21    24    1
    20   102   101    2
    21   111   109    1
    22    24    26    1
    23    24    25    1
    24   109   110    1
    25    15    14    2
    26    89    91   ar
    27    89    88    1
    28     9     7   ar
    29   104   103    1
    30   101   100    1
    31    87    86    2
    32    14    13    1
    33    85    86    1
    34    85    88    1
    35    85    84    1
    36   100   103    1
    37   100    99    1
    38    30    29    2
    39    12    13    1
    40    13    16    1
    41    99    94   am
    42    29    28    1
    43    16    17    1
    44    18    17   ar
    45    17    19   ar
    46    95    94    2
    47    27    28    1
    48    31    28    1
    49    31    32    1
    50    94    93    1
    51    83    82    1
    52    80    81    2
    53    80    79    1
    54    77    76    1
    55    93    96    1
    56    93    92    1
    57    96    97    1
    58    96    98    1
    59    82    79    1
    60    79    78    1
    61    76    75    1
    62    68    67    1
    63    36    35    2
    64    69    67    1
    65    49    48    1
    66    47    48   ar
    67    47    45   ar
    68    67    66    2
    69    37    34    1
    70    74    75    1
    71    74    71    1
    72    48    46   ar
    73    45    43   ar
    74    35    34    1
    75    33    34    1
    76    72    71    1
    77    72    73    2
    78    66    65    1
    79    71    70    1
    80    57    56   ar
    81    43    42    1
    82    43    44   ar
    83    46    44   ar
    84    65    64    1
    85    38    39    1
    86    42    39    1
    87    41    40    2
    88    56    58   ar
    89    56    55    1
    90    39    40    1
    91    64    63    1
    92    54    55    1
    93    54    51    1
    94    63    60    1
    95    53    52    2
    96    52    51    1
    97    51    50    1
    98    60    61    1
    99    60    59    1
   100    61    62    2
