@<TRIPOS>MOLECULE
tmp/3t7vA00.pdb
 155 149 0 0 0
SMALL
GASTEIGER

@<TRIPOS>ATOM
      1  N         39.9010   29.9440    0.4570 N.3    66  PHE66      -0.1227
      2  CA        39.6690   31.4000    0.4570 C.3    66  PHE66       0.1736
      3  C         40.4460   32.1300   -0.6740 C.2    66  PHE66       0.2596
      4  O         40.1840   33.3240   -0.9230 O.2    66  PHE66      -0.2718
      5  CB        40.0910   32.0310    1.8300 C.3    66  PHE66       0.0547
      6  CG        41.4710   31.6870    2.2550 C.ar   66  PHE66      -0.0202
      7  CD1       42.5730   32.4780    1.8500 C.ar   66  PHE66      -0.0042
      8  CD2       41.7010   30.5540    3.0440 C.ar   66  PHE66      -0.0042
      9  CE1       43.8570   32.0960    2.2320 C.ar   66  PHE66      -0.0003
     10  CE2       42.9670   30.2400    3.5220 C.ar   66  PHE66      -0.0003
     11  CZ        44.0730   30.9960    3.0590 C.ar   66  PHE66      -0.0000
     12  N         41.4750   31.4520   -1.2620 N.am   67  CYS67      -0.1956
     13  CA        42.4320   32.1990   -2.0350 C.3    67  CYS67       0.1843
     14  C         42.2010   32.0650   -3.5300 C.2    67  CYS67       0.2625
     15  O         42.0170   30.9630   -4.0450 O.2    67  CYS67      -0.2714
     16  CB        43.8200   31.6060   -1.7220 C.3    67  CYS67       0.0997
     17  SG        45.1380   32.5120   -2.5790 S.3    67  CYS67      -0.0797
     18  N         42.2110   33.1990   -4.2190 N.am   68  TYR68      -0.1974
     19  CA        42.0010   33.1800   -5.6910 C.3    68  TYR68       0.1639
     20  C         43.0440   32.2910   -6.3850 C.2    68  TYR68       0.2290
     21  O         42.7580   31.7660   -7.4810 O.2    68  TYR68      -0.2864
     22  CB        42.1890   34.6090   -6.1780 C.3    68  TYR68       0.0560
     23  CG        41.8850   34.8250   -7.6550 C.ar   68  TYR68      -0.0198
     24  CD1       40.5400   34.7190   -8.1290 C.ar   68  TYR68      -0.0009
     25  CD2       42.9050   35.0570   -8.5290 C.ar   68  TYR68      -0.0009
     26  CE1       40.2770   34.9320   -9.4950 C.ar   68  TYR68       0.0417
     27  CE2       42.6330   35.3120   -9.8720 C.ar   68  TYR68       0.0417
     28  CZ        41.3250   35.2400  -10.3180 C.ar   68  TYR68       0.1957
     29  OH        41.0830   35.4660  -11.6630 O.3    68  TYR68      -0.2866
     30  N         51.4300   33.1410    7.5720 N.3   158  TYR158     -0.1241
     31  CA        50.3140   33.4180    8.4830 C.3   158  TYR158      0.1605
     32  C         49.5300   32.1680    8.7880 C.2   158  TYR158      0.2264
     33  O         49.3270   31.3140    7.9540 O.2   158  TYR158     -0.2867
     34  CB        49.3220   34.4570    7.8260 C.3   158  TYR158      0.0534
     35  CG        50.0310   35.7010    7.2720 C.ar  158  TYR158     -0.0201
     36  CD1       51.2020   36.1790    7.8700 C.ar  158  TYR158     -0.0009
     37  CD2       49.5450   36.3430    6.1770 C.ar  158  TYR158     -0.0009
     38  CE1       51.8840   37.2850    7.3210 C.ar  158  TYR158      0.0417
     39  CE2       50.1880   37.4160    5.6170 C.ar  158  TYR158      0.0417
     40  CZ        51.3700   37.8660    6.1750 C.ar  158  TYR158      0.1957
     41  OH        52.0260   38.9510    5.5990 O.3   158  TYR158     -0.2866
     42  N         46.3510   32.2010    9.7510 N.3   160  GLU160     -0.1245
     43  CA        44.9130   32.4650    9.3430 C.3   160  GLU160      0.1567
     44  C         43.9510   32.3710   10.5300 C.2   160  GLU160      0.2260
     45  O         43.1410   33.2700   10.7820 O.2   160  GLU160     -0.2867
     46  CB        44.3380   31.5910    8.2320 C.3   160  GLU160      0.0388
     47  CG        45.2180   31.3110    7.0530 C.3   160  GLU160      0.1160
     48  CD        45.8100   32.5370    6.4660 C.2   160  GLU160      0.3649
     49  OE1       45.3700   33.7280    6.6510 O.co2 160  GLU160     -0.2457
     50  OE2       46.8190   32.3560    5.7790 O.co2 160  GLU160     -0.2457
     51  N         42.8840   26.3590    5.2160 N.3   171  ARG171     -0.1245
     52  CA        44.1690   25.8580    4.6600 C.3   171  ARG171      0.1563
     53  C         44.0510   24.3640    4.4510 C.2   171  ARG171      0.2260
     54  O         44.6890   23.5470    5.1570 O.2   171  ARG171     -0.2867
     55  CB        45.3680   26.2490    5.5380 C.3   171  ARG171      0.0307
     56  CG        45.6920   27.7470    5.2570 C.3   171  ARG171      0.0489
     57  CD        47.0680   28.1260    5.8300 C.3   171  ARG171      0.2205
     58  NE        47.4640   29.4610    5.3530 N.pl3 171  ARG171     -0.0865
     59  CZ        47.9570   29.6800    4.1290 C.cat 171  ARG171      0.5346
     60  NH1       48.3890   28.6900    3.3680 N.pl3 171  ARG171      0.1354
     61  NH2       48.1970   30.9080    3.7230 N.pl3 171  ARG171      0.1354
     62  N         53.1150   24.9710   10.1040 N.3   179  ARG179     -0.1245
     63  CA        53.3880   26.4150    9.9400 C.3   179  ARG179      0.1563
     64  C         53.9630   26.9680   11.2340 C.2   179  ARG179      0.2260
     65  O         54.8450   27.8410   11.1950 O.2   179  ARG179     -0.2867
     66  CB        52.1570   27.2650    9.4990 C.3   179  ARG179      0.0307
     67  CG        51.6680   26.8560    8.1150 C.3   179  ARG179      0.0489
     68  CD        50.3980   27.5170    7.6660 C.3   179  ARG179      0.2205
     69  NE        50.5950   28.8810    7.1720 N.pl3 179  ARG179     -0.0865
     70  CZ        50.9610   29.1900    5.9150 C.cat 179  ARG179      0.5346
     71  NH1       51.3560   28.2150    5.0310 N.pl3 179  ARG179      0.1354
     72  NH2       50.9570   30.4790    5.4870 N.pl3 179  ARG179      0.1354
     73  N         49.6270   36.1020   11.1190 N.3   196  GLY196     -0.1210
     74  CA        48.4500   36.8370   10.6800 C.3   196  GLY196      0.1956
     75  C         47.2140   35.9940   10.8120 C.2   196  GLY196      0.2612
     76  O         47.2610   34.7760   10.6780 O.2   196  GLY196     -0.2717
     77  N         46.1190   36.6940   11.0140 N.am  197  ILE197     -0.1965
     78  CA        44.7790   36.0700   11.0090 C.3   197  ILE197      0.1727
     79  C         43.8380   36.6860   10.0210 C.2   197  ILE197      0.2616
     80  O         44.0500   37.8300    9.5500 O.2   197  ILE197     -0.2715
     81  CB        44.2790   36.0220   12.4310 C.3   197  ILE197      0.0290
     82  CG1       44.0340   37.4260   12.8860 C.3   197  ILE197      0.0022
     83  CG2       45.2060   35.0680   13.2630 C.3   197  ILE197      0.0023
     84  CD1       43.5040   37.4990   14.3800 C.3   197  ILE197      0.0001
     85  N         42.8680   35.9010    9.5620 N.am  198  LEU198     -0.1977
     86  CA        41.8360   36.3690    8.6910 C.3   198  LEU198      0.1596
     87  C         40.5960   36.6340    9.4830 C.2   198  LEU198      0.2287
     88  O         40.2540   35.8680   10.3900 O.2   198  LEU198     -0.2864
     89  CB        41.5500   35.2990    7.6890 C.3   198  LEU198      0.0297
     90  CG        42.2660   35.1840    6.4590 C.3   198  LEU198      0.0022
     91  CD1       41.6100   34.0700    5.5800 C.3   198  LEU198      0.0001
     92  CD2       42.1330   36.4510    5.6300 C.3   198  LEU198      0.0001
     93  N         43.7400   40.5080    8.2710 N.3   226  MET226     -0.1230
     94  CA        43.1570   40.9000    6.9870 C.3   226  MET226      0.1702
     95  C         41.6940   40.5870    6.9140 C.2   226  MET226      0.2593
     96  O         41.2850   39.4850    7.3680 O.2   226  MET226     -0.2718
     97  CB        43.8950   40.1680    5.8720 C.3   226  MET226      0.0401
     98  CG        45.3860   40.4710    5.9450 C.3   226  MET226      0.0596
     99  SD        46.2290   39.7950    4.5510 S.3   226  MET226     -0.1393
    100  CE        45.6130   40.5260    2.9730 C.3   226  MET226      0.0692
    101  N         40.9240   41.5200    6.3620 N.am  227  THR227     -0.1939
    102  CA        39.5290   41.1750    6.0280 C.3   227  THR227      0.2028
    103  C         39.4710   40.1850    4.8720 C.2   227  THR227      0.2642
    104  O         40.1140   40.4520    3.8110 O.2   227  THR227     -0.2714
    105  CB        38.8010   42.4620    5.5120 C.3   227  THR227      0.1808
    106  OG1       38.9390   43.4660    6.5580 O.3   227  THR227     -0.2208
    107  CG2       37.3290   42.1830    5.1970 C.3   227  THR227      0.0379
    108  N         38.7200   39.0920    5.0150 N.am  228  PHE228     -0.1959
    109  CA        38.5190   38.1670    3.8900 C.3   228  PHE228      0.1771
    110  C         37.6860   38.8400    2.8160 C.2   228  PHE228      0.2619
    111  O         36.5610   39.2900    3.0450 O.2   228  PHE228     -0.2715
    112  CB        37.8190   36.9240    4.4470 C.3   228  PHE228      0.0574
    113  CG        37.3920   35.9580    3.3960 C.ar  228  PHE228     -0.0200
    114  CD1       38.2490   35.5920    2.3410 C.ar  228  PHE228     -0.0042
    115  CD2       36.0990   35.5140    3.3970 C.ar  228  PHE228     -0.0042
    116  CE1       37.7950   34.7190    1.3560 C.ar  228  PHE228     -0.0003
    117  CE2       35.6650   34.6560    2.3860 C.ar  228  PHE228     -0.0003
    118  CZ        36.5420   34.2510    1.3940 C.ar  228  PHE228     -0.0000
    119  N         38.2600   38.8460    1.6120 N.am  229  LEU229     -0.1977
    120  CA        37.4580   39.3290    0.4240 C.3   229  LEU229      0.1596
    121  C         37.1690   38.0720   -0.3710 C.2   229  LEU229      0.2287
    122  O         38.1060   37.4680   -0.9510 O.2   229  LEU229     -0.2864
    123  CB        38.3860   40.2290   -0.4000 C.3   229  LEU229      0.0297
    124  CG        38.7860   41.5780    0.2490 C.3   229  LEU229      0.0022
    125  CD1       39.3990   42.5850   -0.7780 C.3   229  LEU229      0.0001
    126  CD2       37.6620   42.2620    1.0520 C.3   229  LEU229      0.0001
    127  N         36.5710   35.5000   -3.2820 N.3   231  GLN231     -0.1245
    128  CA        37.2040   35.5890   -4.6160 C.3   231  GLN231      0.1566
    129  C         36.4200   34.6940   -5.5950 C.2   231  GLN231      0.2260
    130  O         36.0220   33.5720   -5.2920 O.2   231  GLN231     -0.2867
    131  CB        38.6530   35.0090   -4.5220 C.3   231  GLN231      0.0367
    132  CG        39.5310   35.8410   -3.5620 C.3   231  GLN231      0.0905
    133  CD        39.8350   37.2490   -4.1110 C.2   231  GLN231      0.2608
    134  OE1       40.1030   37.4400   -5.3170 O.2   231  GLN231     -0.2717
    135  NE2       39.9310   38.2470   -3.2170 N.am  231  GLN231     -0.0878
    136  N         43.3010   45.5600    0.7020 N.3   269  LEU269     -0.1245
    137  CA        41.9170   45.3360    1.1280 C.3   269  LEU269      0.1561
    138  C         40.9510   46.4910    0.7700 C.2   269  LEU269      0.2260
    139  O         39.7930   46.2460    0.4020 O.2   269  LEU269     -0.2867
    140  CB        41.8950   45.1940    2.6500 C.3   269  LEU269      0.0270
    141  CG        42.9090   44.0460    2.9610 C.3   269  LEU269      0.0019
    142  CD1       43.5460   44.1690    4.3000 C.3   269  LEU269      0.0001
    143  CD2       42.3210   42.6920    2.5300 C.3   269  LEU269      0.0001
    144  N         47.1820   40.1010   -3.4890 N.3   299  VAL299     -0.1231
    145  CA        46.6080   38.7430   -3.1920 C.3   299  VAL299      0.1692
    146  C         45.0900   38.8050   -3.1050 C.2   299  VAL299      0.2591
    147  O         44.4060   37.9750   -3.7720 O.2   299  VAL299     -0.2718
    148  CB        47.1860   38.1390   -1.8650 C.3   299  VAL299      0.0266
    149  CG1       46.5750   36.7420   -1.6500 C.3   299  VAL299      0.0020
    150  CG2       48.7210   38.0690   -2.0170 C.3   299  VAL299      0.0020
    151  N         44.5660   39.7490   -2.3490 N.am  300  ALA300     -0.1980
    152  CA        43.1050   39.9280   -2.2530 C.3   300  ALA300      0.1597
    153  C         42.5970   40.7870   -3.4070 C.2   300  ALA300      0.2287
    154  O         41.4430   40.6140   -3.8640 O.2   300  ALA300     -0.2864
    155  CB        42.7460   40.4940   -0.8960 C.3   300  ALA300      0.0319
@<TRIPOS>BOND
     1    29    28    1
     2    28    27   ar
     3    28    26   ar
     4    27    25   ar
     5    26    24   ar
     6    25    23   ar
     7    24    23   ar
     8    23    22    1
     9    21    20    2
    10    20    19    1
    11    22    19    1
    12    19    18    1
    13   129   130    2
    14   129   128    1
    15   134   133    2
    16   128   131    1
    17   128   127    1
    18   131   132    1
    19    18    14   am
    20   133   132    1
    21   133   135   am
    22    15    14    2
    23   154   153    2
    24   147   146    2
    25    14    13    1
    26   144   145    1
    27   153   152    1
    28   145   146    1
    29   145   148    1
    30   146   151   am
    31    17    16    1
    32   151   152    1
    33   152   155    1
    34    13    16    1
    35    13    12    1
    36   150   148    1
    37   148   149    1
    38    12     3   am
    39   122   121    2
    40     4     3    2
    41   125   124    1
    42     3     2    1
    43   123   124    1
    44   123   120    1
    45   121   120    1
    46   124   126    1
    47   139   138    2
    48   120   119    1
    49     1     2    1
    50     2     5    1
    51   136   137    1
    52   138   137    1
    53   137   140    1
    54   116   118   ar
    55   116   114   ar
    56   118   117   ar
    57   119   110   am
    58     5     6    1
    59     7     9   ar
    60     7     6   ar
    61     9    11   ar
    62     6     8   ar
    63   114   113   ar
    64   117   115   ar
    65   143   141    1
    66   140   141    1
    67   110   111    2
    68   110   109    1
    69   141   142    1
    70   100    99    1
    71     8    10   ar
    72    11    10   ar
    73    60    59    1
    74   113   115   ar
    75   113   112    1
    76    61    59    1
    77   104   103    2
    78   109   112    1
    79   109   108    1
    80    59    58    2
    81    53    52    1
    82    53    54    2
    83    99    98    1
    84    52    51    1
    85    52    55    1
    86   103   108   am
    87   103   102    1
    88    71    70    1
    89   107   105    1
    90    56    55    1
    91    56    57    1
    92    58    57    1
    93    72    70    1
    94   105   102    1
    95   105   106    1
    96    91    90    1
    97    41    40    1
    98    39    40   ar
    99    39    37   ar
   100    92    90    1
   101    50    48   ar
   102    97    98    1
   103    97    94    1
   104    70    69    2
   105   102   101    1
   106    40    38   ar
   107    37    35   ar
   108   101    95   am
   109    90    89    1
   110    48    49   ar
   111    48    47    1
   112    95    94    1
   113    95    96    2
   114    94    93    1
   115    47    46    1
   116    69    68    1
   117    35    34    1
   118    35    36   ar
   119    38    36   ar
   120    30    31    1
   121    68    67    1
   122    89    86    1
   123    34    31    1
   124    33    32    2
   125    67    66    1
   126    46    43    1
   127    31    32    1
   128    86    87    1
   129    86    85    1
   130    43    42    1
   131    43    44    1
   132    87    88    2
   133    66    63    1
   134    80    79    2
   135    85    79   am
   136    63    62    1
   137    63    64    1
   138    79    78    1
   139    44    45    2
   140    76    75    2
   141    74    75    1
   142    74    73    1
   143    75    77   am
   144    78    77    1
   145    78    81    1
   146    65    64    2
   147    81    82    1
   148    81    83    1
   149    82    84    1
