@<TRIPOS>MOLECULE
tmp/3t7xA00.pdb
 153 142 0 0 0
SMALL
GASTEIGER

@<TRIPOS>ATOM
      1  N         -5.1160   -4.3240    1.1310 N.3    15  ASP15      -0.1239
      2  CA        -5.3400   -3.2150    2.0580 C.3    15  ASP15       0.1674
      3  C         -4.2290   -3.0910    3.1010 C.2    15  ASP15       0.2266
      4  O         -3.9500   -2.0040    3.6150 O.2    15  ASP15      -0.2867
      5  CB        -6.7060   -3.3330    2.7350 C.3    15  ASP15       0.1410
      6  CG        -7.8370   -2.8700    1.8410 C.2    15  ASP15       0.3668
      7  OD1       -7.6620   -1.8520    1.1380 O.co2  15  ASP15      -0.2456
      8  OD2       -8.8980   -3.5260    1.8340 O.co2  15  ASP15      -0.2456
      9  N          1.3800   -6.4020   11.3030 N.3    33  ASP33      -0.1239
     10  CA         1.5080   -5.4600   10.2060 C.3    33  ASP33       0.1674
     11  C          2.8300   -4.7230   10.3860 C.2    33  ASP33       0.2266
     12  O          2.9730   -3.8890   11.2890 O.2    33  ASP33      -0.2867
     13  CB         0.3190   -4.5020   10.2950 C.3    33  ASP33       0.1410
     14  CG         0.2220   -3.5400    9.1440 C.2    33  ASP33       0.3668
     15  OD1        1.1710   -3.3940    8.3520 O.co2  33  ASP33      -0.2456
     16  OD2       -0.8500   -2.8960    9.0620 O.co2  33  ASP33      -0.2456
     17  N          5.3440   -2.0010    9.8650 N.3    35  ASP35      -0.1239
     18  CA         5.0200   -0.6070    9.6020 C.3    35  ASP35       0.1674
     19  C          6.2500    0.2870    9.6780 C.2    35  ASP35       0.2266
     20  O          6.6910    0.6590   10.7640 O.2    35  ASP35      -0.2867
     21  CB         3.9770   -0.1250   10.6120 C.3    35  ASP35       0.1410
     22  CG         3.5620    1.3160   10.3770 C.2    35  ASP35       0.3668
     23  OD1        3.8670    1.8590    9.2970 O.co2  35  ASP35      -0.2456
     24  OD2        2.9170    1.8950   11.2780 O.co2  35  ASP35      -0.2456
     25  N          6.3850    3.2590    9.1130 N.3    37  GLY37      -0.1225
     26  CA         5.9750    4.5760    9.5570 C.3    37  GLY37       0.1811
     27  C          5.7050    4.7320   11.0430 C.2    37  GLY37       0.2280
     28  O          5.2450    5.7960   11.4770 O.2    37  GLY37      -0.2866
     29  N         -2.4510    6.7900   15.3140 N.3    79  TYR79      -0.1227
     30  CA        -1.9540    6.7410   13.9460 C.3    79  TYR79       0.1736
     31  C         -2.5950    7.8150   13.0660 C.2    79  TYR79       0.2596
     32  O         -3.6450    8.3700   13.4050 O.2    79  TYR79      -0.2718
     33  CB        -2.1750    5.3440   13.3590 C.3    79  TYR79       0.0548
     34  CG        -1.4070    4.2650   14.0930 C.ar   79  TYR79      -0.0200
     35  CD1       -2.0380    3.4320   15.0090 C.ar   79  TYR79      -0.0009
     36  CD2       -0.0440    4.0950   13.8800 C.ar   79  TYR79      -0.0009
     37  CE1       -1.3310    2.4480   15.6820 C.ar   79  TYR79       0.0417
     38  CE2        0.6710    3.1150   14.5470 C.ar   79  TYR79       0.0417
     39  CZ         0.0220    2.3010   15.4500 C.ar   79  TYR79       0.1957
     40  OH         0.7080    1.3140   16.1250 O.3    79  TYR79      -0.2866
     41  N         -1.9580    8.0960   11.9320 N.am   80  GLY80      -0.1942
     42  CA        -2.4090    9.1410   11.0260 C.3    80  GLY80       0.2014
     43  C         -3.8090    8.9490   10.4750 C.2    80  GLY80       0.2638
     44  O         -4.4320    9.9050   10.0050 O.2    80  GLY80      -0.2714
     45  N         -4.3070    7.7170   10.5230 N.am   81  ASP81      -0.1971
     46  CA        -5.6390    7.4100   10.0160 C.3    81  ASP81       0.1709
     47  C         -6.7170    7.4900   11.0980 C.2    81  ASP81       0.2293
     48  O         -7.8750    7.1390   10.8610 O.2    81  ASP81      -0.2864
     49  CB        -5.6610    6.0370    9.3390 C.3    81  ASP81       0.1436
     50  CG        -5.4450    4.8930   10.3160 C.2    81  ASP81       0.3671
     51  OD1       -5.2000    5.1520   11.5140 O.co2  81  ASP81      -0.2456
     52  OD2       -5.5040    3.7250    9.8760 O.co2  81  ASP81      -0.2456
     53  N         -6.7970    5.8470   14.0100 N.3    83  SER83      -0.1217
     54  CA        -6.8520    4.6760   14.8850 C.3    83  SER83       0.1889
     55  C         -5.8730    4.8280   16.0550 C.2    83  SER83       0.2288
     56  O         -5.0010    5.6910   16.0320 O.2    83  SER83      -0.2866
     57  CB        -6.5670    3.3910   14.1000 C.3    83  SER83       0.2089
     58  OG        -5.2380    3.3760   13.6010 O.3    83  SER83      -0.2183
     59  N        -11.2810    0.3470   14.5340 N.3   115  SER115     -0.1202
     60  CA       -10.7570   -0.1740   13.2770 C.3   115  SER115      0.2020
     61  C         -9.8780   -1.4030   13.4970 C.2   115  SER115      0.2618
     62  O         -9.8420   -2.2960   12.6500 O.2   115  SER115     -0.2717
     63  CB       -10.0010    0.8950   12.4970 C.3   115  SER115      0.2103
     64  OG        -8.8550    1.3150   13.2020 O.3   115  SER115     -0.2182
     65  N         -9.1700   -1.4580   14.6240 N.am  116  PHE116     -0.1975
     66  CA        -8.3750   -2.6430   14.9390 C.3   116  PHE116      0.1639
     67  C         -9.2760   -3.8200   15.2860 C.2   116  PHE116      0.2290
     68  O         -9.0910   -4.9200   14.7810 O.2   116  PHE116     -0.2864
     69  CB        -7.3640   -2.3590   16.0580 C.3   116  PHE116      0.0560
     70  CG        -6.2460   -1.4600   15.6330 C.ar  116  PHE116     -0.0200
     71  CD1       -5.3390   -1.8880   14.6770 C.ar  116  PHE116     -0.0042
     72  CD2       -6.1090   -0.1830   16.1540 C.ar  116  PHE116     -0.0042
     73  CE1       -4.3050   -1.0730   14.2570 C.ar  116  PHE116     -0.0003
     74  CE2       -5.0710    0.6460   15.7400 C.ar  116  PHE116     -0.0003
     75  CZ        -4.1700    0.2010   14.7850 C.ar  116  PHE116     -0.0000
     76  N         -5.3490   -8.7340   11.5330 N.3   122  ILE122     -0.1245
     77  CA        -4.1520   -8.0590   12.0270 C.3   122  ILE122      0.1561
     78  C         -4.0810   -8.1870   13.5500 C.2   122  ILE122      0.2260
     79  O         -4.9580   -7.6720   14.2680 O.2   122  ILE122     -0.2867
     80  CB        -4.1060   -6.5850   11.5560 C.3   122  ILE122      0.0252
     81  CG1       -3.8470   -6.5340   10.0450 C.3   122  ILE122      0.0019
     82  CG2       -3.0200   -5.8130   12.2940 C.3   122  ILE122      0.0019
     83  CD1       -3.8730   -5.1360    9.4440 C.3   122  ILE122      0.0001
     84  N          1.0100   -4.5850   15.4070 N.3   125  LEU125     -0.1245
     85  CA         1.9520   -3.9190   14.5100 C.3   125  LEU125      0.1561
     86  C          3.3800   -4.1730   14.9470 C.2   125  LEU125      0.2260
     87  O          3.6610   -4.3380   16.1440 O.2   125  LEU125     -0.2867
     88  CB         1.7060   -2.4040   14.4750 C.3   125  LEU125      0.0270
     89  CG         0.7700   -1.8950   13.3760 C.3   125  LEU125      0.0019
     90  CD1       -0.6540   -2.4160   13.5900 C.3   125  LEU125      0.0001
     91  CD2        0.7910   -0.3670   13.2860 C.3   125  LEU125      0.0001
     92  N          6.4580    4.2980    3.7460 N.3   219  ASP219     -0.1239
     93  CA         5.6130    3.8280    4.8410 C.3   219  ASP219      0.1674
     94  C          4.8240    2.5620    4.4880 C.2   219  ASP219      0.2266
     95  O          3.7520    2.6240    3.8630 O.2   219  ASP219     -0.2867
     96  CB         4.6540    4.9390    5.2740 C.3   219  ASP219      0.1410
     97  CG         3.8530    4.5640    6.4810 C.2   219  ASP219      0.3668
     98  OD1        3.0340    5.3950    6.9180 O.co2 219  ASP219     -0.2456
     99  OD2        4.0350    3.4450    6.9990 O.co2 219  ASP219     -0.2456
    100  N          3.1060    0.7310    6.3260 N.3   221  GLY221     -0.1210
    101  CA         1.8550    0.6440    7.0630 C.3   221  GLY221      0.1956
    102  C          0.7230    1.5140    6.5450 C.2   221  GLY221      0.2613
    103  O         -0.3620    1.5230    7.1310 O.2   221  GLY221     -0.2717
    104  N          0.9710    2.2570    5.4690 N.am  222  THR222     -0.1938
    105  CA        -0.0720    3.0440    4.8170 C.3   222  THR222      0.2028
    106  C         -0.3930    2.3770    3.4880 C.2   222  THR222      0.2643
    107  O          0.5150    2.0260    2.7330 O.2   222  THR222     -0.2714
    108  CB         0.3980    4.4960    4.5890 C.3   222  THR222      0.1808
    109  OG1        0.5300    5.1540    5.8550 O.3   222  THR222     -0.2208
    110  CG2       -0.5910    5.2900    3.7280 C.3   222  THR222      0.0379
    111  N         -1.6760    2.2000    3.1920 N.am  223  THR223     -0.1936
    112  CA        -2.0740    1.4650    1.9960 C.3   223  THR223      0.2028
    113  C         -1.7920    2.2200    0.7020 C.2   223  THR223      0.2642
    114  O         -1.2750    1.6460   -0.2630 O.2   223  THR223     -0.2714
    115  CB        -3.5790    1.1420    2.0250 C.3   223  THR223      0.1808
    116  OG1       -3.9360    0.6220    3.3100 O.3   223  THR223     -0.2208
    117  CG2       -3.9590    0.1380    0.9380 C.3   223  THR223      0.0379
    118  N         -2.1630    3.4990    0.6740 N.am  224  LEU224     -0.1977
    119  CA        -2.1920    4.2660   -0.5600 C.3   224  LEU224      0.1596
    120  C         -0.9870    5.1930   -0.7340 C.2   224  LEU224      0.2287
    121  O         -0.1180    5.3250    0.1470 O.2   224  LEU224     -0.2864
    122  CB        -3.5140    5.0410   -0.6610 C.3   224  LEU224      0.0297
    123  CG        -4.7780    4.1950   -0.4770 C.3   224  LEU224      0.0022
    124  CD1       -6.0290    5.0330   -0.7140 C.3   224  LEU224      0.0001
    125  CD2       -4.7700    3.0100   -1.4170 C.3   224  LEU224      0.0001
    126  N         -0.0010    8.9790   -1.1700 N.3   226  TYR226     -0.1241
    127  CA        -0.5100   10.3210   -0.8790 C.3   226  TYR226      0.1605
    128  C          0.5020   11.3530   -1.3450 C.2   226  TYR226      0.2264
    129  O          1.6320   11.3980   -0.8410 O.2   226  TYR226     -0.2867
    130  CB        -0.8040   10.4940    0.6160 C.3   226  TYR226      0.0534
    131  CG        -1.9270    9.6120    1.0990 C.ar  226  TYR226     -0.0201
    132  CD1       -3.2410   10.0580    1.0850 C.ar  226  TYR226     -0.0009
    133  CD2       -1.6770    8.3160    1.5350 C.ar  226  TYR226     -0.0009
    134  CE1       -4.2840    9.2460    1.5040 C.ar  226  TYR226      0.0417
    135  CE2       -2.7090    7.4910    1.9500 C.ar  226  TYR226      0.0417
    136  CZ        -4.0080    7.9640    1.9420 C.ar  226  TYR226      0.1957
    137  OH        -5.0210    7.1280    2.3500 O.3   226  TYR226     -0.2866
    138  N         -2.8780   16.1890    5.3030 N.3   300  ILE300     -0.1245
    139  CA        -2.0710   15.2380    6.0710 C.3   300  ILE300      0.1561
    140  C         -0.8380   15.9110    6.6480 C.2   300  ILE300      0.2260
    141  O         -0.4160   15.5940    7.7610 O.2   300  ILE300     -0.2867
    142  CB        -1.5980   14.0380    5.2200 C.3   300  ILE300      0.0252
    143  CG1       -2.7810   13.1840    4.7770 C.3   300  ILE300      0.0019
    144  CG2       -0.6050   13.1840    6.0060 C.3   300  ILE300      0.0019
    145  CD1       -2.3820   12.0280    3.8830 C.3   300  ILE300      0.0001
    146  N          3.1430   10.6030    1.4880 N.3   304  ILE304     -0.1245
    147  CA         3.3570    9.2400    1.9530 C.3   304  ILE304      0.1561
    148  C          3.4500    8.2720    0.7880 C.2   304  ILE304      0.2260
    149  O          2.4770    8.0660    0.0520 O.2   304  ILE304     -0.2867
    150  CB         2.2440    8.7740    2.9030 C.3   304  ILE304      0.0252
    151  CG1        2.0500    9.7610    4.0590 C.3   304  ILE304      0.0019
    152  CG2        2.5570    7.3680    3.4330 C.3   304  ILE304      0.0019
    153  CD1        0.8610    9.4060    4.9640 C.3   304  ILE304      0.0001
@<TRIPOS>BOND
     1   125   123    1
     2   128   127    1
     3   128   129    2
     4   126   127    1
     5   127   130    1
     6   120   119    1
     7   120   121    2
     8   124   123    1
     9   122   119    1
    10   122   123    1
    11   119   118    1
    12   114   113    2
    13   149   148    2
    14   130   131    1
    15   118   113   am
    16   113   112    1
    17   148   147    1
    18   117   115    1
    19   132   131   ar
    20   132   134   ar
    21   131   133   ar
    22     1     2    1
    23     7     6   ar
    24   146   147    1
    25   134   136   ar
    26   133   135   ar
    27     8     6   ar
    28     6     5    1
    29   136   135   ar
    30   136   137    1
    31   147   150    1
    32   112   115    1
    33   112   111    1
    34   115   116    1
    35     2     5    1
    36     2     3    1
    37   107   106    2
    38   150   152    1
    39   150   151    1
    40     3     4    2
    41   111   106   am
    42   106   105    1
    43   110   108    1
    44    92    93    1
    45    95    94    2
    46   145   143    1
    47   151   153    1
    48    94    93    1
    49   108   105    1
    50   108   109    1
    51   143   142    1
    52   105   104    1
    53    93    96    1
    54   142   144    1
    55   142   139    1
    56    96    97    1
    57   138   139    1
    58   104   102   am
    59   139   140    1
    60   100   101    1
    61    97    98   ar
    62    97    99   ar
    63   102   101    1
    64   102   103    2
    65   140   141    2
    66    15    14   ar
    67    16    14   ar
    68    25    26    1
    69    14    13    1
    70    23    22   ar
    71    49    46    1
    72    49    50    1
    73    83    81    1
    74    26    27    1
    75    18    19    1
    76    18    17    1
    77    18    21    1
    78    19    20    2
    79    52    50   ar
    80    44    43    2
    81    46    45    1
    82    46    47    1
    83    81    80    1
    84    10    13    1
    85    10    11    1
    86    10     9    1
    87    50    51   ar
    88    22    21    1
    89    22    24   ar
    90    11    12    2
    91    43    45   am
    92    43    42    1
    93    48    47    2
    94    42    41    1
    95    27    28    2
    96    76    77    1
    97    80    77    1
    98    80    82    1
    99    41    31   am
   100    77    78    1
   101    63    64    1
   102    63    60    1
   103    62    61    2
   104    31    32    2
   105    31    30    1
   106    60    61    1
   107    60    59    1
   108    91    89    1
   109    33    30    1
   110    33    34    1
   111    89    90    1
   112    89    88    1
   113    61    65   am
   114    78    79    2
   115    58    57    1
   116    36    34   ar
   117    36    38   ar
   118    30    29    1
   119    53    54    1
   120    34    35   ar
   121    57    54    1
   122    73    71   ar
   123    73    75   ar
   124    88    85    1
   125    85    86    1
   126    85    84    1
   127    38    39   ar
   128    65    66    1
   129    71    70   ar
   130    68    67    2
   131    75    74   ar
   132    54    55    1
   133    66    67    1
   134    66    69    1
   135    86    87    2
   136    35    37   ar
   137    39    37   ar
   138    39    40    1
   139    70    69    1
   140    70    72   ar
   141    74    72   ar
   142    56    55    2
