@<TRIPOS>MOLECULE
tmp/3t80C01.pdb
 78 76 0 0 0
SMALL
GASTEIGER

@<TRIPOS>ATOM
      1  N        -14.8130   22.8210   -2.8470 N.3    95  ALA95      -0.1231
      2  CA       -13.8950   22.4510   -3.9490 C.3    95  ALA95       0.1694
      3  C        -13.3420   21.0390   -3.8120 C.2    95  ALA95       0.2592
      4  O        -12.8070   20.6690   -2.7870 O.2    95  ALA95      -0.2718
      5  CB       -12.7280   23.4530   -4.0250 C.3    95  ALA95       0.0304
      6  N        -13.4560   20.2760   -4.8810 N.am   96  GLN96      -0.1966
      7  CA       -12.7990   18.9250   -4.9550 C.3    96  GLN96       0.1733
      8  C        -11.2980   19.1080   -4.9380 C.2    96  GLN96       0.2616
      9  O        -10.5360   18.2760   -4.5030 O.2    96  GLN96      -0.2715
     10  CB       -13.1650   18.1520   -6.2340 C.3    96  GLN96       0.0408
     11  CG       -13.0350   16.6360   -6.0960 C.3    96  GLN96       0.0908
     12  CD       -13.8840   16.0690   -4.9690 C.2    96  GLN96       0.2608
     13  OE1      -15.0240   16.4500   -4.7980 O.2    96  GLN96      -0.2717
     14  NE2      -13.3240   15.1550   -4.1960 N.am   96  GLN96      -0.0878
     15  N        -10.9100   20.2610   -5.4340 N.am   97  ALA97      -0.1964
     16  CA        -9.4990   20.5970   -5.6740 C.3    97  ALA97       0.1713
     17  C         -9.3470   21.9600   -6.3550 C.2    97  ALA97       0.2458
     18  O        -10.2630   22.4230   -7.0290 O.2    97  ALA97      -0.2730
     19  CB        -8.8490   19.5130   -6.5200 C.3    97  ALA97       0.0333
     20  N         -8.1890   22.6000   -6.1960 N.am   98  PRO98      -0.2716
     21  CA        -7.0540   22.1400   -5.4490 C.3    98  PRO98       0.1536
     22  C         -7.1990   22.2550   -3.9500 C.2    98  PRO98       0.2598
     23  O         -8.1600   22.8230   -3.4140 O.2    98  PRO98      -0.2715
     24  CB        -5.9530   23.1130   -5.8830 C.3    98  PRO98       0.0310
     25  CG        -6.6670   24.3840   -6.1290 C.3    98  PRO98       0.0237
     26  CD        -7.9380   23.9250   -6.7870 C.3    98  PRO98       0.0939
     27  N         -6.1770   21.7310   -3.3120 N.am   99  LYS99      -0.1964
     28  CA        -6.0850   21.6990   -1.8500 C.3    99  LYS99       0.1728
     29  C         -5.9630   23.1110   -1.3150 C.2    99  LYS99       0.2616
     30  O         -5.0650   23.8460   -1.6720 O.2    99  LYS99      -0.2715
     31  CB        -4.9240   20.8420   -1.3690 C.3    99  LYS99       0.0311
     32  CG        -5.0110   20.5240    0.1120 C.3    99  LYS99       0.0038
     33  CD        -4.3440   19.2010    0.4440 C.3    99  LYS99       0.0206
     34  CE        -4.6880   18.1430   -0.6030 C.3    99  LYS99       0.1093
     35  NZ        -4.3740   16.7340   -0.2120 N.3    99  LYS99      -0.1314
     36  N         -6.8920   23.4710   -0.4540 N.am  100  MET100     -0.1963
     37  CA        -7.0020   24.8650    0.0560 C.3   100  MET100      0.1736
     38  C         -6.2530   25.0670    1.3530 C.2   100  MET100      0.2616
     39  O         -5.7500   26.1340    1.6700 O.2   100  MET100     -0.2715
     40  CB        -8.4470   25.2560    0.2950 C.3   100  MET100      0.0427
     41  CG        -9.2890   25.2410   -0.9740 C.3   100  MET100      0.0599
     42  SD        -8.7300   26.4330   -2.1990 S.3   100  MET100     -0.1393
     43  CE        -9.6000   25.9090   -3.6810 C.3   100  MET100      0.0692
     44  N         -6.1820   23.9810    2.0850 N.am  101  LEU101     -0.1977
     45  CA        -5.7410   24.0010    3.4920 C.3   101  LEU101      0.1596
     46  C         -4.4190   24.7580    3.7940 C.2   101  LEU101      0.2287
     47  O         -4.3110   25.4670    4.8010 O.2   101  LEU101     -0.2864
     48  CB        -5.6690   22.5720    4.0390 C.3   101  LEU101      0.0297
     49  CG        -5.0050   22.4400    5.4130 C.3   101  LEU101      0.0022
     50  CD1       -6.0000   22.7910    6.5160 C.3   101  LEU101      0.0001
     51  CD2       -4.4540   21.0290    5.5640 C.3   101  LEU101      0.0001
     52  N         -4.6460   28.6220    3.7070 N.3   104  ILE104     -0.1245
     53  CA        -5.7020   29.2410    4.5420 C.3   104  ILE104      0.1561
     54  C         -5.1400   30.3700    5.4080 C.2   104  ILE104      0.2260
     55  O         -5.6910   31.4540    5.4090 O.2   104  ILE104     -0.2867
     56  CB        -6.6030   28.2520    5.2920 C.3   104  ILE104      0.0252
     57  CG1       -7.7380   27.8170    4.3070 C.3   104  ILE104      0.0019
     58  CG2       -7.2800   28.9200    6.4750 C.3   104  ILE104      0.0019
     59  CD1       -8.4660   26.5230    4.6270 C.3   104  ILE104      0.0001
     60  N        -12.5090   24.7660    4.3630 N.3   126  ALA126     -0.1231
     61  CA       -12.6370   24.0750    3.0680 C.3   126  ALA126      0.1694
     62  C        -13.2750   22.6860    3.1800 C.2   126  ALA126      0.2593
     63  O        -13.0330   21.9220    4.0890 O.2   126  ALA126     -0.2718
     64  CB       -11.2940   23.9990    2.3490 C.3   126  ALA126      0.0304
     65  N        -14.1260   22.3900    2.2290 N.am  127  THR127     -0.1939
     66  CA       -14.7310   21.0600    2.1650 C.3   127  THR127      0.2028
     67  C        -14.9350   20.5830    0.7390 C.2   127  THR127      0.2642
     68  O        -15.0440   21.3500   -0.1990 O.2   127  THR127     -0.2714
     69  CB       -16.0580   20.9440    2.9560 C.3   127  THR127      0.1808
     70  OG1      -16.3270   19.5590    3.2320 O.3   127  THR127     -0.2208
     71  CG2      -17.2480   21.5790    2.1820 C.3   127  THR127      0.0379
     72  N        -14.9600   19.2770    0.6300 N.am  128  THR128     -0.1950
     73  CA       -15.2320   18.5750   -0.6370 C.3   128  THR128      0.1897
     74  C        -16.7160   18.2640   -0.6880 C.2   128  THR128      0.2313
     75  O        -17.3970   18.3330    0.3250 O.2   128  THR128     -0.2863
     76  CB       -14.4940   17.2110   -0.7320 C.3   128  THR128      0.1794
     77  OG1      -14.6850   16.6270   -2.0300 O.3   128  THR128     -0.2208
     78  CG2      -15.0380   16.2190    0.2890 C.3   128  THR128      0.0378
@<TRIPOS>BOND
     1    18    17    2
     2    26    20    1
     3    26    25    1
     4    19    16    1
     5    17    20   am
     6    17    16    1
     7    10    11    1
     8    10     7    1
     9    20    21    1
    10    25    24    1
    11    11    12    1
    12    24    21    1
    13    16    15    1
    14    21    22    1
    15    15     8   am
    16    12    13    2
    17    12    14   am
    18     7     8    1
    19     7     6    1
    20     8     9    2
    21     6     3   am
    22     5     2    1
    23    22    23    2
    24    22    27   am
    25     2     3    1
    26     2     1    1
    27     3     4    2
    28    43    42    1
    29    27    28    1
    30    42    41    1
    31    77    76    1
    32    28    31    1
    33    28    29    1
    34    30    29    2
    35    31    32    1
    36    29    36   am
    37    41    40    1
    38    76    73    1
    39    76    78    1
    40    74    73    1
    41    74    75    2
    42    73    72    1
    43    34    35    1
    44    34    33    1
    45    36    37    1
    46    68    67    2
    47    37    40    1
    48    37    38    1
    49    32    33    1
    50    72    67   am
    51    67    66    1
    52    38    39    2
    53    38    44   am
    54    44    45    1
    55    66    65    1
    56    66    69    1
    57    71    69    1
    58    65    62   am
    59    64    61    1
    60    69    70    1
    61    61    62    1
    62    61    60    1
    63    62    63    2
    64    45    46    1
    65    45    48    1
    66    52    53    1
    67    46    47    2
    68    48    49    1
    69    57    59    1
    70    57    56    1
    71    53    56    1
    72    53    54    1
    73    56    58    1
    74    54    55    2
    75    49    51    1
    76    49    50    1
