@<TRIPOS>MOLECULE
tmp/3t83A00.pdb
 206 203 0 0 0
SMALL
GASTEIGER

@<TRIPOS>ATOM
      1  N         29.6400   -0.2490   10.3290 N.3     2  TRP2       -0.1241
      2  CA        29.0290   -1.2280   11.2250 C.3     2  TRP2        0.1605
      3  C         28.0140   -2.1040   10.5080 C.2     2  TRP2        0.2264
      4  O         27.4540   -1.7250    9.4760 O.2     2  TRP2       -0.2867
      5  CB        28.3850   -0.5400   12.4370 C.3     2  TRP2        0.0550
      6  CG        27.1600    0.2450   12.1050 C.ar    2  TRP2        0.0003
      7  CD1       27.0910    1.5680   11.7500 C.ar    2  TRP2        0.0946
      8  CD2       25.8170   -0.2380   12.1080 C.ar    2  TRP2        0.0152
      9  NE1       25.7810    1.9310   11.5250 N.ar    2  TRP2       -0.2442
     10  CE2       24.9800    0.8410   11.7460 C.ar    2  TRP2        0.0810
     11  CE3       25.2380   -1.4780   12.3890 C.ar    2  TRP2        0.0012
     12  CZ2       23.6000    0.7090   11.6430 C.ar    2  TRP2        0.0191
     13  CZ3       23.8650   -1.6040   12.2820 C.ar    2  TRP2        0.0001
     14  CH2       23.0640   -0.5170   11.9140 C.ar    2  TRP2        0.0015
     15  N         26.1610   -6.4670   10.8650 N.3     4  TYR4       -0.1241
     16  CA        25.7490   -7.6170   11.6720 C.3     4  TYR4        0.1605
     17  C         26.6140   -8.8700   11.4460 C.2     4  TYR4        0.2264
     18  O         26.3580   -9.9280   12.0330 O.2     4  TYR4       -0.2867
     19  CB        24.2790   -7.9280   11.4130 C.3     4  TYR4        0.0534
     20  CG        23.3560   -6.8390   11.9160 C.ar    4  TYR4       -0.0201
     21  CD1       22.9650   -6.8010   13.2520 C.ar    4  TYR4       -0.0009
     22  CD2       22.8980   -5.8450   11.0630 C.ar    4  TYR4       -0.0009
     23  CE1       22.1200   -5.8000   13.7240 C.ar    4  TYR4        0.0417
     24  CE2       22.0510   -4.8450   11.5160 C.ar    4  TYR4        0.0417
     25  CZ        21.6750   -4.8200   12.8530 C.ar    4  TYR4        0.1957
     26  OH        20.8260   -3.8220   13.3040 O.3     4  TYR4       -0.2866
     27  N         12.1940    2.0840    2.0770 N.3    57  LEU57      -0.1245
     28  CA        13.6160    2.2350    1.7530 C.3    57  LEU57       0.1561
     29  C         14.4270    1.0970    2.3390 C.2    57  LEU57       0.2260
     30  O         14.2440    0.7520    3.5010 O.2    57  LEU57      -0.2867
     31  CB        14.1590    3.5520    2.3430 C.3    57  LEU57       0.0270
     32  CG        15.6820    3.7400    2.3980 C.3    57  LEU57       0.0019
     33  CD1       16.2710    3.8710    1.0010 C.3    57  LEU57       0.0001
     34  CD2       16.0930    4.9390    3.2790 C.3    57  LEU57       0.0001
     35  N         18.0900    0.4930    3.4720 N.3    59  ASN59      -0.1240
     36  CA        19.2870    1.2910    3.7570 C.3    59  ASN59       0.1653
     37  C         20.5280    0.4360    4.0040 C.2    59  ASN59       0.2266
     38  O         21.5590    0.9330    4.4660 O.2    59  ASN59      -0.2867
     39  CB        19.0570    2.2420    4.9430 C.3    59  ASN59       0.1155
     40  CG        19.1710    1.5350    6.2860 C.2    59  ASN59       0.2627
     41  OD1       19.0560    0.3060    6.3690 O.2    59  ASN59      -0.2716
     42  ND2       19.4170    2.3060    7.3410 N.am   59  ASN59      -0.0877
     43  N         20.7930   -1.9720    6.1660 N.3    61  HIS61      -0.1226
     44  CA        20.7270   -2.5650    7.5070 C.3    61  HIS61       0.1752
     45  C         19.3560   -3.1730    7.7840 C.2    61  HIS61       0.2596
     46  O         19.2330   -4.1340    8.5540 O.2    61  HIS61      -0.2718
     47  CB        21.0390   -1.5250    8.5890 C.3    61  HIS61       0.0759
     48  CG        22.4180   -0.9460    8.4920 C.ar   61  HIS61       0.0818
     49  ND1       22.6490    0.3880    8.2380 N.ar   61  HIS61      -0.2268
     50  CD2       23.6360   -1.5270    8.5970 C.ar   61  HIS61       0.1154
     51  CE1       23.9530    0.6080    8.2030 C.ar   61  HIS61       0.1986
     52  NE2       24.5730   -0.5380    8.4190 N.ar   61  HIS61      -0.2212
     53  N         18.3340   -2.5840    7.1710 N.am   62  ALA62      -0.1966
     54  CA        16.9540   -3.0420    7.3040 C.3    62  ALA62       0.1728
     55  C         16.1510   -2.2790    6.2520 C.2    62  ALA62       0.2616
     56  O         16.7400   -1.6190    5.4000 O.2    62  ALA62      -0.2715
     57  CB        16.4290   -2.7620    8.6970 C.3    62  ALA62       0.0334
     58  N         14.8240   -2.3790    6.2800 N.am   63  PHE63      -0.1960
     59  CA        14.0000   -1.5110    5.4250 C.3    63  PHE63       0.1771
     60  C         13.0190   -0.7470    6.2990 C.2    63  PHE63       0.2619
     61  O         12.5830   -1.2590    7.3260 O.2    63  PHE63      -0.2715
     62  CB        13.2660   -2.3030    4.3210 C.3    63  PHE63       0.0574
     63  CG        12.1480   -3.1790    4.8260 C.ar   63  PHE63      -0.0200
     64  CD1       12.3740   -4.5160    5.1230 C.ar   63  PHE63      -0.0042
     65  CD2       10.8690   -2.6660    5.0010 C.ar   63  PHE63      -0.0042
     66  CE1       11.3480   -5.3240    5.5940 C.ar   63  PHE63      -0.0003
     67  CE2        9.8430   -3.4710    5.4660 C.ar   63  PHE63      -0.0003
     68  CZ        10.0900   -4.8070    5.7630 C.ar   63  PHE63      -0.0000
     69  N         12.7040    0.4960    5.9400 N.am   64  ASN64      -0.1972
     70  CA        11.6870    1.2030    6.6970 C.3    64  ASN64       0.1688
     71  C         10.5870    1.7880    5.8360 C.2    64  ASN64       0.2292
     72  O         10.8220    2.1680    4.6910 O.2    64  ASN64      -0.2864
     73  CB        12.2810    2.2470    7.6640 C.3    64  ASN64       0.1181
     74  CG        12.7030    3.5390    6.9880 C.2    64  ASN64       0.2629
     75  OD1       13.0720    4.4990    7.6710 O.2    64  ASN64      -0.2716
     76  ND2       12.6580    3.5820    5.6610 N.am   64  ASN64      -0.0877
     77  N          8.3470    5.0090    5.7030 N.3    66  GLU66      -0.1245
     78  CA         8.4070    6.3670    6.2320 C.3    66  GLU66       0.1567
     79  C          7.0420    7.0480    6.2510 C.2    66  GLU66       0.2260
     80  O          6.1730    6.7520    5.4260 O.2    66  GLU66      -0.2867
     81  CB         9.3710    7.2050    5.3800 C.3    66  GLU66       0.0388
     82  CG        10.7850    6.6380    5.3350 C.3    66  GLU66       0.1160
     83  CD        11.5790    7.1120    4.1320 C.2    66  GLU66       0.3649
     84  OE1       11.0010    7.8210    3.2650 O.co2  66  GLU66      -0.2457
     85  OE2       12.7810    6.7680    4.0560 O.co2  66  GLU66      -0.2457
     86  N          8.7230    6.4890   11.3310 N.3    89  GLN89      -0.1245
     87  CA         8.8770    5.3230   10.4610 C.3    89  GLN89       0.1566
     88  C          8.6340    4.0440   11.2340 C.2    89  GLN89       0.2260
     89  O          8.6380    4.0540   12.4590 O.2    89  GLN89      -0.2867
     90  CB        10.2720    5.2750    9.8050 C.3    89  GLN89       0.0367
     91  CG        11.4380    5.6180   10.7290 C.3    89  GLN89       0.0905
     92  CD        12.1170    4.4240   11.3710 C.2    89  GLN89       0.2608
     93  OE1       11.7040    3.2650   11.2130 O.2    89  GLN89      -0.2717
     94  NE2       13.1840    4.7050   12.1050 N.am   89  GLN89      -0.0878
     95  N         10.0820   -0.2240   11.0410 N.3    91  HIS91      -0.1241
     96  CA        11.0130   -1.1320   10.3970 C.3    91  HIS91       0.1621
     97  C         10.9840   -2.4530   11.1510 C.2    91  HIS91       0.2264
     98  O         10.2860   -2.5830   12.1600 O.2    91  HIS91      -0.2867
     99  CB        12.4340   -0.5550   10.4130 C.3    91  HIS91       0.0745
    100  CG        12.9610   -0.3070   11.7930 C.ar   91  HIS91       0.0817
    101  ND1       12.7940    0.8950   12.4450 N.ar   91  HIS91      -0.2268
    102  CD2       13.6440   -1.1060   12.6430 C.ar   91  HIS91       0.1154
    103  CE1       13.3460    0.8250   13.6430 C.ar   91  HIS91       0.1986
    104  NE2       13.8640   -0.3790   13.7900 N.ar   91  HIS91      -0.2212
    105  N         13.3710   -6.1750   12.3950 N.3    93  HIS93      -0.1241
    106  CA        14.5680   -6.9830   12.5550 C.3    93  HIS93       0.1621
    107  C         14.1120   -8.4230   12.4540 C.2    93  HIS93       0.2264
    108  O         13.0630   -8.7840   13.0090 O.2    93  HIS93      -0.2867
    109  CB        15.1770   -6.7600   13.9400 C.3    93  HIS93       0.0745
    110  CG        15.4410   -5.3220   14.2420 C.ar   93  HIS93       0.0817
    111  ND1       16.6780   -4.7340   14.0640 N.ar   93  HIS93      -0.2268
    112  CD2       14.6080   -4.3340   14.6510 C.ar   93  HIS93       0.1154
    113  CE1       16.5980   -3.4510   14.3770 C.ar   93  HIS93       0.1986
    114  NE2       15.3530   -3.1870   14.7340 N.ar   93  HIS93      -0.2212
    115  N          9.2880   -2.4320   14.8420 N.3   116  HIS116     -0.1241
    116  CA         9.5110   -1.2480   15.6430 C.3   116  HIS116      0.1621
    117  C          8.8460   -0.0680   14.9850 C.2   116  HIS116      0.2264
    118  O          9.1860    0.2990   13.8550 O.2   116  HIS116     -0.2867
    119  CB        11.0110   -0.9730   15.8040 C.3   116  HIS116      0.0745
    120  CG        11.7060   -1.9660   16.6800 C.ar  116  HIS116      0.0817
    121  ND1       13.0540   -2.2320   16.5860 N.ar  116  HIS116     -0.2268
    122  CD2       11.2310   -2.7710   17.6560 C.ar  116  HIS116      0.1154
    123  CE1       13.3860   -3.1460   17.4800 C.ar  116  HIS116      0.1986
    124  NE2       12.2980   -3.4850   18.1500 N.ar  116  HIS116     -0.2212
    125  N          8.6360    3.7470   15.3250 N.3   118  VAL118     -0.1245
    126  CA         9.4600    4.7580   15.9770 C.3   118  VAL118      0.1561
    127  C          8.7380    6.1060   15.9720 C.2   118  VAL118      0.2260
    128  O          8.2560    6.5420   14.9260 O.2   118  VAL118     -0.2867
    129  CB        10.8160    4.9050   15.2500 C.3   118  VAL118      0.0252
    130  CG1       11.7180    5.9110   15.9740 C.3   118  VAL118      0.0019
    131  CG2       11.5130    3.5460   15.1170 C.3   118  VAL118      0.0019
    132  N         13.2800   15.1890   14.8940 N.3   127  PHE127     -0.1241
    133  CA        13.8460   13.8990   15.2860 C.3   127  PHE127      0.1605
    134  C         15.3010   14.0150   15.7360 C.2   127  PHE127      0.2264
    135  O         15.7110   13.3700   16.7010 O.2   127  PHE127     -0.2867
    136  CB        13.7440   12.9320   14.1050 C.3   127  PHE127      0.0534
    137  CG        14.2670   11.5520   14.3910 C.ar  127  PHE127     -0.0203
    138  CD1       13.4700   10.6130   15.0180 C.ar  127  PHE127     -0.0042
    139  CD2       15.5500   11.1920   14.0140 C.ar  127  PHE127     -0.0042
    140  CE1       13.9440    9.3370   15.2730 C.ar  127  PHE127     -0.0003
    141  CE2       16.0340    9.9150   14.2670 C.ar  127  PHE127     -0.0003
    142  CZ        15.2290    8.9870   14.8940 C.ar  127  PHE127     -0.0000
    143  N         16.6810   12.7880   19.5710 N.3   131  VAL131     -0.1245
    144  CA        17.5700   11.6780   19.9230 C.3   131  VAL131      0.1561
    145  C         18.6550   12.0950   20.9230 C.2   131  VAL131      0.2260
    146  O         19.3550   11.2490   21.4840 O.2   131  VAL131     -0.2867
    147  CB        18.1740   10.9580   18.6790 C.3   131  VAL131      0.0252
    148  CG1       17.0630   10.4420   17.7890 C.3   131  VAL131      0.0019
    149  CG2       19.1120   11.8780   17.9030 C.3   131  VAL131      0.0019
    150  N          9.5500    3.9670   21.1500 N.3   139  VAL139     -0.1245
    151  CA         9.4610    2.9290   20.1390 C.3   139  VAL139      0.1561
    152  C          8.5230    1.8400   20.6180 C.2   139  VAL139      0.2260
    153  O          8.6920    1.3040   21.7150 O.2   139  VAL139     -0.2867
    154  CB        10.8440    2.3400   19.7730 C.3   139  VAL139      0.0252
    155  CG1       10.6930    1.3490   18.6390 C.3   139  VAL139      0.0019
    156  CG2       11.7900    3.4630   19.3560 C.3   139  VAL139      0.0019
    157  N         18.5600    3.3310   21.3060 N.3   194  LEU194     -0.1231
    158  CA        18.4800    2.8080   19.9470 C.3   194  LEU194      0.1693
    159  C         19.2650    1.5050   19.9430 C.2   194  LEU194      0.2593
    160  O         20.2480    1.3900   20.6720 O.2   194  LEU194     -0.2718
    161  CB        19.1250    3.7960   18.9760 C.3   194  LEU194      0.0284
    162  CG        18.4400    5.1560   18.8310 C.3   194  LEU194      0.0019
    163  CD1       19.3280    6.0960   18.0280 C.3   194  LEU194      0.0001
    164  CD2       17.1120    4.9690   18.1360 C.3   194  LEU194      0.0001
    165  N         18.8510    0.5290   19.1320 N.am  195  THR195     -0.1939
    166  CA        19.5180   -0.7820   19.1130 C.3   195  THR195      0.2028
    167  C         20.5660   -0.9090   17.9940 C.2   195  THR195      0.2643
    168  O         21.1230   -1.9940   17.7710 O.2   195  THR195     -0.2714
    169  CB        18.5150   -1.9410   18.9630 C.3   195  THR195      0.1808
    170  OG1       17.8520   -1.8240   17.6950 O.3   195  THR195     -0.2208
    171  CG2       17.4740   -1.9440   20.1110 C.3   195  THR195      0.0379
    172  N         20.7920    0.1820   17.2650 N.am  196  THR196     -0.1937
    173  CA        21.8950    0.2740   16.3100 C.3   196  THR196      0.2013
    174  C         22.7140    1.5110   16.6300 C.2   196  THR196      0.2484
    175  O         22.2210    2.4310   17.2840 O.2   196  THR196     -0.2729
    176  CB        21.4120    0.4440   14.8480 C.3   196  THR196      0.1807
    177  OG1       20.7360    1.7060   14.6980 O.3   196  THR196     -0.2208
    178  CG2       20.5050   -0.7100   14.4250 C.3   196  THR196      0.0379
    179  N         23.9760    1.5430   16.1760 N.am  197  PRO197     -0.2715
    180  CA        24.6880    2.8240   16.1940 C.3   197  PRO197      0.1521
    181  C         23.7460    3.9150   15.6760 C.2   197  PRO197      0.2440
    182  O         22.9670    3.6590   14.7420 O.2   197  PRO197     -0.2731
    183  CB        25.8480    2.5780   15.2210 C.3   197  PRO197      0.0310
    184  CG        26.1340    1.1140   15.3760 C.3   197  PRO197      0.0237
    185  CD        24.7850    0.4600   15.5910 C.3   197  PRO197      0.0939
    186  N         23.7970    5.1190   16.2640 N.am  198  PRO198     -0.2727
    187  CA        24.6960    5.5910   17.3280 C.3   198  PRO198      0.1402
    188  C         24.3440    5.1340   18.7510 C.2   198  PRO198      0.2269
    189  O         24.9830    5.6020   19.6990 O.2   198  PRO198     -0.2865
    190  CB        24.5690    7.1120   17.2340 C.3   198  PRO198      0.0296
    191  CG        23.1910    7.3350   16.6790 C.3   198  PRO198      0.0237
    192  CD        22.9630    6.2080   15.7200 C.3   198  PRO198      0.0939
    193  N         11.0610    2.4130   25.7290 N.3   205  TRP205     -0.1241
    194  CA        10.5810    1.2150   25.0490 C.3   205  TRP205      0.1605
    195  C          9.1940    0.7960   25.5340 C.2   205  TRP205      0.2264
    196  O          8.9320    0.7560   26.7280 O.2   205  TRP205     -0.2867
    197  CB        11.5920    0.0610   25.1830 C.3   205  TRP205      0.0550
    198  CG        12.6970    0.2030   24.1910 C.ar  205  TRP205      0.0003
    199  CD1       13.9270    0.7650   24.3990 C.ar  205  TRP205      0.0946
    200  CD2       12.6450   -0.1610   22.8080 C.ar  205  TRP205      0.0152
    201  NE1       14.6530    0.7490   23.2300 N.ar  205  TRP205     -0.2442
    202  CE2       13.8890    0.1810   22.2420 C.ar  205  TRP205      0.0810
    203  CE3       11.6690   -0.7670   22.0020 C.ar  205  TRP205      0.0012
    204  CZ2       14.1830   -0.0520   20.8980 C.ar  205  TRP205      0.0191
    205  CZ3       11.9590   -1.0070   20.6760 C.ar  205  TRP205      0.0001
    206  CH2       13.2070   -0.6500   20.1320 C.ar  205  TRP205      0.0015
@<TRIPOS>BOND
     1    33    32    1
     2    28    27    1
     3    28    29    1
     4    28    31    1
     5    29    30    2
     6    31    32    1
     7    32    34    1
     8    84    83   ar
     9    35    36    1
    10    36    37    1
    11    36    39    1
    12    37    38    2
    13    85    83   ar
    14    83    82    1
    15    62    63    1
    16    62    59    1
    17    72    71    2
    18    63    65   ar
    19    63    64   ar
    20    39    40    1
    21    65    67   ar
    22    64    66   ar
    23    82    81    1
    24    81    78    1
    25    56    55    2
    26    59    58    1
    27    59    60    1
    28    80    79    2
    29    67    68   ar
    30    66    68   ar
    31    76    74   am
    32    77    78    1
    33    71    70    1
    34    69    60   am
    35    69    70    1
    36    43    44    1
    37    78    79    1
    38    55    58   am
    39    55    54    1
    40    40    41    2
    41    40    42   am
    42    60    61    2
    43    70    73    1
    44    74    73    1
    45    74    75    2
    46    53    54    1
    47    53    45   am
    48    54    57    1
    49    44    45    1
    50    44    47    1
    51    45    46    2
    52    51    49   ar
    53    51    52   ar
    54    49    48   ar
    55    52    50   ar
    56    48    47    1
    57    48    50   ar
    58     4     3    2
    59    90    87    1
    60    90    91    1
    61     1     2    1
    62    96    99    1
    63    96    95    1
    64    96    97    1
    65    99   100    1
    66    87    88    1
    67    87    86    1
    68     3     2    1
    69    91    92    1
    70    15    16    1
    71    22    24   ar
    72    22    20   ar
    73    97    98    2
    74    93    92    2
    75     2     5    1
    76    88    89    2
    77    92    94   am
    78    19    16    1
    79    19    20    1
    80    17    16    1
    81    17    18    2
    82    24    25   ar
    83     9    10   ar
    84     9     7   ar
    85    12    10   ar
    86    12    14   ar
    87    10     8   ar
    88     7     6   ar
    89   100   101   ar
    90   100   102   ar
    91    14    13   ar
    92    20    21   ar
    93     6     8   ar
    94     6     5    1
    95     8    11   ar
    96    13    11   ar
    97   105   106    1
    98   101   103   ar
    99   107   106    1
   100   107   108    2
   101   106   109    1
   102   102   104   ar
   103    25    26    1
   104    25    23   ar
   105    21    23   ar
   106   103   104   ar
   107   118   117    2
   108   109   110    1
   109   139   141   ar
   110   139   137   ar
   111   111   110   ar
   112   111   113   ar
   113   136   137    1
   114   136   133    1
   115   110   112   ar
   116   141   142   ar
   117   113   114   ar
   118   137   138   ar
   119   178   176    1
   120   112   114   ar
   121   177   176    1
   122   182   181    2
   123   115   116    1
   124   176   173    1
   125   132   133    1
   126   142   140   ar
   127   128   127    2
   128   117   116    1
   129   138   140   ar
   130   131   129    1
   131   183   184    1
   132   183   180    1
   133   129   130    1
   134   129   126    1
   135   133   134    1
   136   125   126    1
   137   184   185    1
   138   185   179    1
   139   116   119    1
   140   181   180    1
   141   181   186   am
   142   192   186    1
   143   192   191    1
   144   134   135    2
   145   119   120    1
   146   127   126    1
   147   179   180    1
   148   179   174   am
   149   186   187    1
   150   173   174    1
   151   173   172    1
   152   121   120   ar
   153   121   123   ar
   154   174   175    2
   155   191   190    1
   156   120   122   ar
   157   190   187    1
   158   172   167   am
   159   187   188    1
   160   123   124   ar
   161   122   124   ar
   162   170   169    1
   163   168   167    2
   164   148   147    1
   165   149   147    1
   166   167   166    1
   167   163   162    1
   168   164   162    1
   169   155   154    1
   170   147   144    1
   171   188   189    2
   172   162   161    1
   173   169   166    1
   174   169   171    1
   175   161   158    1
   176   166   165    1
   177   165   159   am
   178   156   154    1
   179   143   144    1
   180   154   151    1
   181   144   145    1
   182   159   158    1
   183   159   160    2
   184   158   157    1
   185   206   205   ar
   186   206   204   ar
   187   151   152    1
   188   151   150    1
   189   152   153    2
   190   205   203   ar
   191   204   202   ar
   192   145   146    2
   193   203   200   ar
   194   202   200   ar
   195   202   201   ar
   196   200   198   ar
   197   201   199   ar
   198   198   199   ar
   199   198   197    1
   200   194   197    1
   201   194   195    1
   202   194   193    1
   203   195   196    2
