@<TRIPOS>MOLECULE
tmp/3t84A00.pdb
 173 168 0 0 0
SMALL
GASTEIGER

@<TRIPOS>ATOM
      1  N         29.4610   -1.1850   10.3950 N.3     2  TRP2       -0.1241
      2  CA        28.7950   -2.1730   11.2480 C.3     2  TRP2        0.1605
      3  C         27.8060   -3.0430   10.4740 C.2     2  TRP2        0.2264
      4  O         27.2420   -2.6200    9.4620 O.2     2  TRP2       -0.2867
      5  CB        28.0960   -1.4960   12.4340 C.3     2  TRP2        0.0550
      6  CG        26.8560   -0.7380   12.0530 C.ar    2  TRP2        0.0003
      7  CD1       26.7780    0.5770   11.6640 C.ar    2  TRP2        0.0946
      8  CD2       25.5160   -1.2430   12.0320 C.ar    2  TRP2        0.0152
      9  NE1       25.4710    0.9120   11.3950 N.ar    2  TRP2       -0.2442
     10  CE2       24.6760   -0.1850   11.6100 C.ar    2  TRP2        0.0810
     11  CE3       24.9430   -2.4910   12.3130 C.ar    2  TRP2        0.0012
     12  CZ2       23.2950   -0.3340   11.4720 C.ar    2  TRP2        0.0191
     13  CZ3       23.5660   -2.6400   12.1680 C.ar    2  TRP2        0.0001
     14  CH2       22.7580   -1.5650   11.7580 C.ar    2  TRP2        0.0015
     15  N         25.9470   -7.4360   10.7520 N.3     4  TYR4       -0.1241
     16  CA        25.5680   -8.5970   11.5520 C.3     4  TYR4        0.1605
     17  C         26.3970   -9.8510   11.2410 C.2     4  TYR4        0.2264
     18  O         26.1220  -10.9320   11.7700 O.2     4  TYR4       -0.2867
     19  CB        24.0810   -8.8900   11.3850 C.3     4  TYR4        0.0534
     20  CG        23.1730   -7.7840   11.8860 C.ar    4  TYR4       -0.0201
     21  CD1       22.7980   -7.7150   13.2230 C.ar    4  TYR4       -0.0009
     22  CD2       22.6750   -6.8250   11.0150 C.ar    4  TYR4       -0.0009
     23  CE1       21.9520   -6.7050   13.6780 C.ar    4  TYR4        0.0417
     24  CE2       21.8300   -5.8200   11.4540 C.ar    4  TYR4        0.0417
     25  CZ        21.4720   -5.7620   12.7880 C.ar    4  TYR4        0.1957
     26  OH        20.6260   -4.7550   13.2200 O.3     4  TYR4       -0.2866
     27  N         17.8480   -0.4370    3.5730 N.3    59  ASN59      -0.1240
     28  CA        18.9920    0.3820    4.0030 C.3    59  ASN59       0.1653
     29  C         20.2580   -0.4300    4.2820 C.2    59  ASN59       0.2266
     30  O         21.2280    0.0900    4.8390 O.2    59  ASN59      -0.2867
     31  CB        18.6360    1.2710    5.2160 C.3    59  ASN59       0.1155
     32  CG        18.3460    0.4610    6.4840 C.2    59  ASN59       0.2627
     33  OD1       18.6240   -0.7420    6.5560 O.2    59  ASN59      -0.2716
     34  ND2       17.7740    1.1260    7.4930 N.am   59  ASN59      -0.0877
     35  N         20.5150   -2.8930    6.3210 N.3    61  HIS61      -0.1226
     36  CA        20.4450   -3.4600    7.6740 C.3    61  HIS61       0.1752
     37  C         19.0840   -4.0970    7.9460 C.2    61  HIS61       0.2595
     38  O         18.9660   -5.0340    8.7400 O.2    61  HIS61      -0.2718
     39  CB        20.6840   -2.3670    8.7190 C.3    61  HIS61       0.0759
     40  CG        21.9830   -1.6460    8.5410 C.ar   61  HIS61       0.0818
     41  ND1       22.0540   -0.3270    8.1480 N.ar   61  HIS61      -0.2268
     42  CD2       23.2640   -2.0690    8.6790 C.ar   61  HIS61       0.1154
     43  CE1       23.3220    0.0380    8.0700 C.ar   61  HIS61       0.1986
     44  NE2       24.0770   -1.0000    8.3870 N.ar   61  HIS61      -0.2212
     45  N         18.0690   -3.5580    7.2810 N.am   62  ALA62      -0.1980
     46  CA        16.6900   -4.0070    7.3870 C.3    62  ALA62       0.1597
     47  C         15.9410   -3.2700    6.2860 C.2    62  ALA62       0.2287
     48  O         16.5790   -2.6500    5.4240 O.2    62  ALA62      -0.2864
     49  CB        16.1240   -3.6600    8.7580 C.3    62  ALA62       0.0319
     50  N         12.8190   -0.3080    5.8800 N.3    64  ASN64      -0.1240
     51  CA        11.9650    0.6390    6.5960 C.3    64  ASN64       0.1653
     52  C         10.7590    1.0390    5.7710 C.2    64  ASN64       0.2266
     53  O         10.8990    1.4980    4.6330 O.2    64  ASN64      -0.2867
     54  CB        12.7280    1.9240    6.9440 C.3    64  ASN64       0.1155
     55  CG        13.8370    1.7030    7.9360 C.2    64  ASN64       0.2627
     56  OD1       14.6230    2.6170    8.2140 O.2    64  ASN64      -0.2716
     57  ND2       13.9220    0.4930    8.4770 N.am   64  ASN64      -0.0877
     58  N          8.5820    5.5110   11.2570 N.3    89  GLN89      -0.1245
     59  CA         8.8120    4.3310   10.4220 C.3    89  GLN89       0.1566
     60  C          8.5650    3.0490   11.1970 C.2    89  GLN89       0.2260
     61  O          8.5050    3.0650   12.4290 O.2    89  GLN89      -0.2867
     62  CB        10.2410    4.3250    9.8410 C.3    89  GLN89       0.0367
     63  CG        11.3760    4.5030   10.8760 C.3    89  GLN89       0.0905
     64  CD        12.1810    3.2280   11.1130 C.2    89  GLN89       0.2608
     65  OE1       11.6270    2.1320   11.1800 O.2    89  GLN89      -0.2717
     66  NE2       13.5020    3.3720   11.2370 N.am   89  GLN89      -0.0878
     67  N         10.0380   -1.2470   10.9620 N.3    91  HIS91      -0.1241
     68  CA        10.9120   -2.2230   10.3240 C.3    91  HIS91       0.1621
     69  C         10.8680   -3.5000   11.1460 C.2    91  HIS91       0.2264
     70  O         10.2350   -3.5470   12.2070 O.2    91  HIS91      -0.2867
     71  CB        12.3410   -1.7110   10.2930 C.3    91  HIS91       0.0745
     72  CG        12.8890   -1.4150   11.6520 C.ar   91  HIS91       0.0817
     73  ND1       12.7150   -0.1980   12.2720 N.ar   91  HIS91      -0.2268
     74  CD2       13.5760   -2.1880   12.5240 C.ar   91  HIS91       0.1154
     75  CE1       13.2940   -0.2240   13.4590 C.ar   91  HIS91       0.1986
     76  NE2       13.8240   -1.4200   13.6340 N.ar   91  HIS91      -0.2212
     77  N         13.2110   -7.2040   12.4540 N.3    93  HIS93      -0.1241
     78  CA        14.4210   -8.0050   12.5940 C.3    93  HIS93       0.1621
     79  C         13.9680   -9.4580   12.5120 C.2    93  HIS93       0.2264
     80  O         12.8950   -9.8040   13.0250 O.2    93  HIS93      -0.2867
     81  CB        15.0910   -7.7520   13.9520 C.3    93  HIS93       0.0745
     82  CG        15.3740   -6.3100   14.2100 C.ar   93  HIS93       0.0817
     83  ND1       16.6020   -5.7340   13.9490 N.ar   93  HIS93      -0.2268
     84  CD2       14.5700   -5.3100   14.6440 C.ar   93  HIS93       0.1154
     85  CE1       16.5500   -4.4470   14.2460 C.ar   93  HIS93       0.1986
     86  NE2       15.3270   -4.1630   14.6620 N.ar   93  HIS93      -0.2212
     87  N         14.7040   -9.6780   18.7530 N.3   103  GLU103     -0.1245
     88  CA        15.7200   -8.9760   19.5180 C.3   103  GLU103      0.1567
     89  C         15.4450   -9.1600   20.9970 C.2   103  GLU103      0.2260
     90  O         16.2770   -9.6960   21.7140 O.2   103  GLU103     -0.2867
     91  CB        15.7330   -7.4980   19.1280 C.3   103  GLU103      0.0388
     92  CG        16.1000   -7.3240   17.6560 C.3   103  GLU103      0.1160
     93  CD        16.8450   -6.0380   17.4100 C.2   103  GLU103      0.3649
     94  OE1       16.2510   -4.9690   17.6400 O.co2 103  GLU103     -0.2457
     95  OE2       18.0190   -6.1080   17.0000 O.co2 103  GLU103     -0.2457
     96  N          9.2280   -3.4540   14.7810 N.3   116  HIS116     -0.1241
     97  CA         9.4360   -2.2500   15.5580 C.3   116  HIS116      0.1621
     98  C          8.7660   -1.0660   14.8780 C.2   116  HIS116      0.2264
     99  O          9.1110   -0.7050   13.7450 O.2   116  HIS116     -0.2867
    100  CB        10.9360   -1.9680   15.7460 C.3   116  HIS116      0.0745
    101  CG        11.6240   -2.9450   16.6500 C.ar  116  HIS116      0.0817
    102  ND1       12.9760   -3.2010   16.5830 N.ar  116  HIS116     -0.2268
    103  CD2       11.1470   -3.7210   17.6500 C.ar  116  HIS116      0.1154
    104  CE1       13.3050   -4.0950   17.4990 C.ar  116  HIS116      0.1986
    105  NE2       12.2110   -4.4260   18.1630 N.ar  116  HIS116     -0.2212
    106  N          8.5260    2.7310   15.1880 N.3   118  VAL118     -0.1245
    107  CA         9.3470    3.7470   15.8300 C.3   118  VAL118      0.1561
    108  C          8.5960    5.0750   15.8690 C.2   118  VAL118      0.2260
    109  O          8.0950    5.5390   14.8390 O.2   118  VAL118     -0.2867
    110  CB        10.6920    3.9280   15.0780 C.3   118  VAL118      0.0252
    111  CG1       11.5880    4.9230   15.8090 C.3   118  VAL118      0.0019
    112  CG2       11.3900    2.5780   14.9020 C.3   118  VAL118      0.0019
    113  N         13.1470   14.2770   14.7540 N.3   127  PHE127     -0.1241
    114  CA        13.6790   12.9720   15.1180 C.3   127  PHE127      0.1605
    115  C         15.1340   13.0680   15.5520 C.2   127  PHE127      0.2264
    116  O         15.5400   12.4540   16.5470 O.2   127  PHE127     -0.2867
    117  CB        13.5580   12.0150   13.9300 C.3   127  PHE127      0.0534
    118  CG        14.1470   10.6640   14.1900 C.ar  127  PHE127     -0.0203
    119  CD1       13.3830    9.6610   14.7660 C.ar  127  PHE127     -0.0042
    120  CD2       15.4700   10.4000   13.8820 C.ar  127  PHE127     -0.0042
    121  CE1       13.9260    8.4080   15.0090 C.ar  127  PHE127     -0.0003
    122  CE2       16.0180    9.1540   14.1300 C.ar  127  PHE127     -0.0003
    123  CZ        15.2430    8.1580   14.6910 C.ar  127  PHE127     -0.0000
    124  N          9.3950    2.9950   21.0040 N.3   139  VAL139     -0.1245
    125  CA         9.3160    1.9500   20.0010 C.3   139  VAL139      0.1561
    126  C          8.3820    0.8580   20.4840 C.2   139  VAL139      0.2260
    127  O          8.5410    0.3250   21.5870 O.2   139  VAL139     -0.2867
    128  CB        10.6890    1.3440   19.6550 C.3   139  VAL139      0.0252
    129  CG1       10.5280    0.3520   18.5190 C.3   139  VAL139      0.0019
    130  CG2       11.6820    2.4480   19.2730 C.3   139  VAL139      0.0019
    131  N         18.3530    2.3800   21.1090 N.3   194  LEU194     -0.1231
    132  CA        18.2550    1.8270   19.7640 C.3   194  LEU194      0.1693
    133  C         19.0510    0.5140   19.7580 C.2   194  LEU194      0.2593
    134  O         20.0540    0.3950   20.4660 O.2   194  LEU194     -0.2718
    135  CB        18.8440    2.8090   18.7440 C.3   194  LEU194      0.0284
    136  CG        18.2720    4.2240   18.6730 C.3   194  LEU194      0.0019
    137  CD1       19.1580    5.1100   17.7880 C.3   194  LEU194      0.0001
    138  CD2       16.8360    4.1980   18.1410 C.3   194  LEU194      0.0001
    139  N         18.6360   -0.4640   18.9520 N.am  195  THR195     -0.1939
    140  CA        19.3280   -1.7560   18.9310 C.3   195  THR195      0.2028
    141  C         20.3790   -1.8750   17.8290 C.2   195  THR195      0.2642
    142  O         21.0010   -2.9320   17.6630 O.2   195  THR195     -0.2714
    143  CB        18.3460   -2.9290   18.8020 C.3   195  THR195      0.1808
    144  OG1       17.6520   -2.8290   17.5520 O.3   195  THR195     -0.2208
    145  CG2       17.3340   -2.9380   19.9780 C.3   195  THR195      0.0379
    146  N         20.5510   -0.8050   17.0580 N.am  196  THR196     -0.1950
    147  CA        21.6410   -0.7180   16.0870 C.3   196  THR196      0.1897
    148  C         22.4580    0.5250   16.4100 C.2   196  THR196      0.2313
    149  O         21.9540    1.4520   17.0530 O.2   196  THR196     -0.2863
    150  CB        21.1130   -0.5840   14.6390 C.3   196  THR196      0.1794
    151  OG1       20.3720    0.6360   14.5160 O.3   196  THR196     -0.2208
    152  CG2       20.2120   -1.7530   14.2740 C.3   196  THR196      0.0378
    153  N         23.5870    4.1310   16.1220 N.3   198  PRO198     -0.2116
    154  CA        24.4840    4.5630   17.2020 C.3   198  PRO198      0.1372
    155  C         24.0920    4.1250   18.6250 C.2   198  PRO198      0.2244
    156  O         24.6930    4.6330   19.5750 O.2   198  PRO198     -0.2868
    157  CB        24.4580    6.0920   17.0820 C.3   198  PRO198      0.0268
    158  CG        23.1140    6.4000   16.5020 C.3   198  PRO198      0.0207
    159  CD        22.7350    5.2320   15.6290 C.3   198  PRO198      0.0892
    160  N         10.8660    1.4930   25.6010 N.3   205  TRP205     -0.1241
    161  CA        10.4200    0.2910   24.9120 C.3   205  TRP205      0.1605
    162  C          9.0560   -0.1540   25.4110 C.2   205  TRP205      0.2264
    163  O          8.8220   -0.2310   26.6180 O.2   205  TRP205     -0.2867
    164  CB        11.4490   -0.8440   25.0570 C.3   205  TRP205      0.0550
    165  CG        12.5510   -0.6970   24.0690 C.ar  205  TRP205      0.0003
    166  CD1       13.7750   -0.1290   24.2760 C.ar  205  TRP205      0.0946
    167  CD2       12.5080   -1.0800   22.6950 C.ar  205  TRP205      0.0152
    168  NE1       14.5030   -0.1410   23.1080 N.ar  205  TRP205     -0.2442
    169  CE2       13.7490   -0.7330   22.1250 C.ar  205  TRP205      0.0810
    170  CE3       11.5350   -1.6880   21.8850 C.ar  205  TRP205      0.0012
    171  CZ2       14.0430   -0.9740   20.7830 C.ar  205  TRP205      0.0191
    172  CZ3       11.8350   -1.9400   20.5600 C.ar  205  TRP205      0.0001
    173  CH2       13.0750   -1.5830   20.0210 C.ar  205  TRP205      0.0015
@<TRIPOS>BOND
     1    27    28    1
     2    28    29    1
     3    28    31    1
     4    29    30    2
     5    53    52    2
     6    31    32    1
     7    48    47    2
     8    52    51    1
     9    50    51    1
    10    47    46    1
    11    35    36    1
    12    32    33    2
    13    32    34   am
    14    51    54    1
    15    54    55    1
    16    45    46    1
    17    45    37   am
    18    46    49    1
    19    36    37    1
    20    36    39    1
    21    55    56    2
    22    55    57   am
    23    37    38    2
    24    43    41   ar
    25    43    44   ar
    26    41    40   ar
    27    44    42   ar
    28    40    42   ar
    29    40    39    1
    30     4     3    2
    31    62    59    1
    32    62    63    1
    33    71    68    1
    34    71    72    1
    35    68    67    1
    36    68    69    1
    37     1     2    1
    38    59    60    1
    39    59    58    1
    40     3     2    1
    41    15    16    1
    42    63    64    1
    43    22    24   ar
    44    22    20   ar
    45    64    65    2
    46    64    66   am
    47    69    70    2
    48    60    61    2
    49    17    16    1
    50    17    18    2
    51     2     5    1
    52    19    16    1
    53    19    20    1
    54     9    10   ar
    55     9     7   ar
    56    24    25   ar
    57    12    10   ar
    58    12    14   ar
    59    10     8   ar
    60    72    73   ar
    61    72    74   ar
    62     7     6   ar
    63    14    13   ar
    64    20    21   ar
    65     8     6   ar
    66     8    11   ar
    67     6     5    1
    68    13    11   ar
    69    73    75   ar
    70    77    78    1
    71    79    78    1
    72    79    80    2
    73    74    76   ar
    74    78    81    1
    75    25    26    1
    76    25    23   ar
    77    21    23   ar
    78    75    76   ar
    79    99    98    2
    80   120   122   ar
    81   120   118   ar
    82   117   118    1
    83   117   114    1
    84    83    82   ar
    85    83    85   ar
    86    81    82    1
    87   122   123   ar
    88   118   119   ar
    89    82    84   ar
    90    85    86   ar
    91   152   150    1
    92   151   150    1
    93   150   147    1
    94    84    86   ar
    95   123   121   ar
    96   113   114    1
    97   119   121   ar
    98    96    97    1
    99   109   108    2
   100    98    97    1
   101   112   110    1
   102   110   111    1
   103   110   107    1
   104   114   115    1
   105   106   107    1
   106   115   116    2
   107    97   100    1
   108   159   153    1
   109   159   158    1
   110   100   101    1
   111   107   108    1
   112   147   148    1
   113   147   146    1
   114   153   154    1
   115   148   149    2
   116   158   157    1
   117   102   101   ar
   118   102   104   ar
   119   101   103   ar
   120    95    93   ar
   121   146   141   am
   122   157   154    1
   123   154   155    1
   124    93    94   ar
   125    93    92    1
   126   104   105   ar
   127   144   143    1
   128   103   105   ar
   129    92    91    1
   130   142   141    2
   131   137   136    1
   132   141   140    1
   133   138   136    1
   134   129   128    1
   135   155   156    2
   136   136   135    1
   137   135   132    1
   138    87    88    1
   139   143   140    1
   140   143   145    1
   141   140   139    1
   142   139   133   am
   143    91    88    1
   144   130   128    1
   145    88    89    1
   146   128   125    1
   147   133   132    1
   148   133   134    2
   149   132   131    1
   150   125   126    1
   151   125   124    1
   152   173   172   ar
   153   173   171   ar
   154   126   127    2
   155   172   170   ar
   156   171   169   ar
   157    89    90    2
   158   170   167   ar
   159   169   167   ar
   160   169   168   ar
   161   167   165   ar
   162   168   166   ar
   163   165   166   ar
   164   165   164    1
   165   161   164    1
   166   161   162    1
   167   161   160    1
   168   162   163    2
