@<TRIPOS>MOLECULE
tmp/3t85A00.pdb
 186 182 0 0 0
SMALL
GASTEIGER

@<TRIPOS>ATOM
      1  N         29.4210    1.5010   10.3550 N.3     2  TRP2       -0.1241
      2  CA        28.7990    0.4650   11.1870 C.3     2  TRP2        0.1605
      3  C         27.8260   -0.4350   10.4360 C.2     2  TRP2        0.2264
      4  O         27.2340   -0.0340    9.4350 O.2     2  TRP2       -0.2867
      5  CB        28.0860    1.0940   12.3900 C.3     2  TRP2        0.0550
      6  CG        26.8080    1.7910   12.0390 C.ar    2  TRP2        0.0003
      7  CD1       26.6550    3.1120   11.6700 C.ar    2  TRP2        0.0946
      8  CD2       25.4960    1.2120   12.0160 C.ar    2  TRP2        0.0152
      9  NE1       25.3240    3.3800   11.4260 N.ar    2  TRP2       -0.2442
     10  CE2       24.5930    2.2350   11.6320 C.ar    2  TRP2        0.0810
     11  CE3       24.9920   -0.0650   12.2910 C.ar    2  TRP2        0.0012
     12  CZ2       23.2150    2.0110   11.5130 C.ar    2  TRP2        0.0191
     13  CZ3       23.6120   -0.2870   12.1710 C.ar    2  TRP2        0.0001
     14  CH2       22.7460    0.7480   11.7830 C.ar    2  TRP2        0.0015
     15  N         25.9790   -4.8490   10.7230 N.3     4  TYR4       -0.1241
     16  CA        25.5950   -6.0290   11.5070 C.3     4  TYR4        0.1605
     17  C         26.4390   -7.2740   11.2000 C.2     4  TYR4        0.2264
     18  O         26.2080   -8.3490   11.7650 O.2     4  TYR4       -0.2867
     19  CB        24.1100   -6.3390   11.3110 C.3     4  TYR4        0.0534
     20  CG        23.1960   -5.2340   11.7860 C.ar    4  TYR4       -0.0201
     21  CD1       22.7880   -5.1730   13.1120 C.ar    4  TYR4       -0.0009
     22  CD2       22.7450   -4.2540   10.9110 C.ar    4  TYR4       -0.0009
     23  CE1       21.9620   -4.1750   13.5580 C.ar    4  TYR4        0.0417
     24  CE2       21.9080   -3.2460   11.3450 C.ar    4  TYR4        0.0417
     25  CZ        21.5160   -3.2150   12.6720 C.ar    4  TYR4        0.1957
     26  OH        20.6910   -2.2210   13.1280 O.3     4  TYR4       -0.2866
     27  N         12.1630    3.5520    1.9210 N.3    57  LEU57      -0.1245
     28  CA        13.5610    3.6450    1.5310 C.3    57  LEU57       0.1561
     29  C         14.3970    2.5100    2.1330 C.2    57  LEU57       0.2260
     30  O         14.2560    2.1900    3.3030 O.2    57  LEU57      -0.2867
     31  CB        14.1310    5.0040    1.9760 C.3    57  LEU57       0.0270
     32  CG        15.6410    5.0500    2.2160 C.3    57  LEU57       0.0019
     33  CD1       16.3520    5.2250    0.8840 C.3    57  LEU57       0.0001
     34  CD2       16.0570    6.1450    3.1990 C.3    57  LEU57       0.0001
     35  N         17.9100    1.9310    3.3540 N.3    59  ASN59      -0.1240
     36  CA        19.0660    2.7500    3.6810 C.3    59  ASN59       0.1653
     37  C         20.2940    1.9120    4.0270 C.2    59  ASN59       0.2266
     38  O         21.2550    2.4240    4.5920 O.2    59  ASN59      -0.2867
     39  CB        18.7380    3.7300    4.8080 C.3    59  ASN59       0.1155
     40  CG        18.7260    3.0660    6.1650 C.2    59  ASN59       0.2627
     41  OD1       18.7460    1.8310    6.2730 O.2    59  ASN59      -0.2716
     42  ND2       18.7050    3.8800    7.2160 N.am   59  ASN59      -0.0877
     43  N         20.5380   -0.4820    6.1640 N.3    61  HIS61      -0.1226
     44  CA        20.4570   -1.0720    7.5030 C.3    61  HIS61       0.1752
     45  C         19.0770   -1.6690    7.7580 C.2    61  HIS61       0.2595
     46  O         18.9290   -2.6560    8.4810 O.2    61  HIS61      -0.2718
     47  CB        20.7540   -0.0250    8.5740 C.3    61  HIS61       0.0759
     48  CG        22.1280    0.5640    8.4780 C.ar   61  HIS61       0.0818
     49  ND1       22.3480    1.9070    8.2570 N.ar   61  HIS61      -0.2268
     50  CD2       23.3520   -0.0100    8.5680 C.ar   61  HIS61       0.1154
     51  CE1       23.6500    2.1350    8.2160 C.ar   61  HIS61       0.1986
     52  NE2       24.2800    0.9900    8.4070 N.ar   61  HIS61      -0.2212
     53  N         18.0710   -1.0410    7.1700 N.am   62  ALA62      -0.1980
     54  CA        16.6950   -1.4570    7.3270 C.3    62  ALA62       0.1597
     55  C         15.9400   -0.8220    6.1680 C.2    62  ALA62       0.2287
     56  O         16.5550   -0.2760    5.2620 O.2    62  ALA62      -0.2864
     57  CB        16.1540   -0.9610    8.6620 C.3    62  ALA62       0.0319
     58  N         12.8240    2.1110    5.6680 N.3    64  ASN64      -0.1240
     59  CA        12.0110    3.0790    6.3840 C.3    64  ASN64       0.1653
     60  C         10.7630    3.5080    5.6100 C.2    64  ASN64       0.2266
     61  O         10.8510    4.0360    4.5020 O.2    64  ASN64      -0.2867
     62  CB        12.8330    4.3290    6.7250 C.3    64  ASN64       0.1155
     63  CG        14.0080    4.0360    7.6340 C.2    64  ASN64       0.2627
     64  OD1       15.0350    4.7120    7.5700 O.2    64  ASN64      -0.2716
     65  ND2       13.8680    3.0240    8.4810 N.am   64  ASN64      -0.0877
     66  N          8.5590    7.8820   11.2130 N.3    89  GLN89      -0.1245
     67  CA         8.8220    6.7070   10.3790 C.3    89  GLN89       0.1566
     68  C          8.6130    5.4310   11.1580 C.2    89  GLN89       0.2260
     69  O          8.6460    5.4510   12.3830 O.2    89  GLN89      -0.2867
     70  CB        10.2590    6.7180    9.8370 C.3    89  GLN89       0.0367
     71  CG        11.3470    6.7560   10.9220 C.3    89  GLN89       0.0905
     72  CD        12.1520    5.4650   11.0260 C.2    89  GLN89       0.2608
     73  OE1       11.6240    4.3560   10.8590 O.2    89  GLN89      -0.2717
     74  NE2       13.4460    5.6060   11.3040 N.am   89  GLN89      -0.0878
     75  N         10.0460    1.1300   10.9570 N.3    91  HIS91      -0.1241
     76  CA        10.9410    0.1780   10.3270 C.3    91  HIS91       0.1621
     77  C         10.9320   -1.1280   11.1040 C.2    91  HIS91       0.2264
     78  O         10.3410   -1.2140   12.1850 O.2    91  HIS91      -0.2867
     79  CB        12.3590    0.7210   10.3460 C.3    91  HIS91       0.0745
     80  CG        12.8560    1.0060   11.7230 C.ar   91  HIS91       0.0817
     81  ND1       12.6630    2.2180   12.3460 N.ar   91  HIS91      -0.2268
     82  CD2       13.5170    0.2310   12.6100 C.ar   91  HIS91       0.1154
     83  CE1       13.1940    2.1840   13.5530 C.ar   91  HIS91       0.1986
     84  NE2       13.7260    0.9910   13.7340 N.ar   91  HIS91      -0.2212
     85  N         13.1960   -4.8510   12.4360 N.3    93  HIS93      -0.1241
     86  CA        14.4000   -5.6360   12.6480 C.3    93  HIS93       0.1621
     87  C         13.9990   -7.1040   12.5780 C.2    93  HIS93       0.2264
     88  O         12.9830   -7.4940   13.1520 O.2    93  HIS93      -0.2867
     89  CB        14.9980   -5.3480   14.0210 C.3    93  HIS93       0.0745
     90  CG        15.3290   -3.9080   14.2440 C.ar   93  HIS93       0.0817
     91  ND1       16.5810   -3.3890   14.0000 N.ar   93  HIS93      -0.2268
     92  CD2       14.5740   -2.8780   14.6900 C.ar   93  HIS93       0.1154
     93  CE1       16.5810   -2.1000   14.2790 C.ar   93  HIS93       0.1986
     94  NE2       15.3780   -1.7660   14.7020 N.ar   93  HIS93      -0.2212
     95  N          9.2180   -1.1020   14.6820 N.3   116  HIS116     -0.1241
     96  CA         9.3970    0.1240   15.4630 C.3   116  HIS116      0.1621
     97  C          8.7320    1.3140   14.7950 C.2   116  HIS116      0.2264
     98  O          9.0650    1.6870   13.6610 O.2   116  HIS116     -0.2867
     99  CB        10.8810    0.4320   15.6850 C.3   116  HIS116      0.0745
    100  CG        11.5680   -0.5110   16.6240 C.ar  116  HIS116      0.0817
    101  ND1       12.9160   -0.7840   16.5450 N.ar  116  HIS116     -0.2268
    102  CD2       11.1040   -1.2270   17.6760 C.ar  116  HIS116      0.1154
    103  CE1       13.2530   -1.6360   17.4970 C.ar  116  HIS116      0.1986
    104  NE2       12.1710   -1.9210   18.1990 N.ar  116  HIS116     -0.2212
    105  N          8.5530    5.1750   15.2020 N.3   118  VAL118     -0.1245
    106  CA         9.3770    6.1970   15.8340 C.3   118  VAL118      0.1561
    107  C          8.6480    7.5380   15.8480 C.2   118  VAL118      0.2260
    108  O          8.1920    8.0050   14.8030 O.2   118  VAL118     -0.2867
    109  CB        10.7360    6.3500   15.0810 C.3   118  VAL118      0.0252
    110  CG1       11.6610    7.3390   15.7950 C.3   118  VAL118      0.0019
    111  CG2       11.4190    4.9980   14.9170 C.3   118  VAL118      0.0019
    112  N         13.3480   16.6200   14.7470 N.3   127  PHE127     -0.1241
    113  CA        13.8900   15.3320   15.1390 C.3   127  PHE127      0.1605
    114  C         15.3060   15.5130   15.6580 C.2   127  PHE127      0.2264
    115  O         15.6610   14.9750   16.7010 O.2   127  PHE127     -0.2867
    116  CB        13.8630   14.3650   13.9490 C.3   127  PHE127      0.0534
    117  CG        14.2340   12.9570   14.3030 C.ar  127  PHE127     -0.0203
    118  CD1       13.2990   12.0990   14.8610 C.ar  127  PHE127     -0.0042
    119  CD2       15.5200   12.4850   14.0760 C.ar  127  PHE127     -0.0042
    120  CE1       13.6430   10.7900   15.1970 C.ar  127  PHE127     -0.0003
    121  CE2       15.8720   11.1800   14.4100 C.ar  127  PHE127     -0.0003
    122  CZ        14.9300   10.3290   14.9710 C.ar  127  PHE127     -0.0000
    123  N         16.5910   14.2290   19.4990 N.3   131  VAL131     -0.1245
    124  CA        17.5030   13.1310   19.8220 C.3   131  VAL131      0.1561
    125  C         18.5490   13.5610   20.8640 C.2   131  VAL131      0.2260
    126  O         19.2500   12.7250   21.4350 O.2   131  VAL131     -0.2867
    127  CB        18.1870   12.5060   18.5610 C.3   131  VAL131      0.0252
    128  CG1       17.1480   11.9280   17.6240 C.3   131  VAL131      0.0019
    129  CG2       19.0450   13.5190   17.8430 C.3   131  VAL131      0.0019
    130  N          9.4680    5.4500   20.9810 N.3   139  VAL139     -0.1245
    131  CA         9.3700    4.3970   19.9730 C.3   139  VAL139      0.1561
    132  C          8.3940    3.3170   20.4300 C.2   139  VAL139      0.2260
    133  O          8.5270    2.7700   21.5280 O.2   139  VAL139     -0.2867
    134  CB        10.7460    3.7970   19.6030 C.3   139  VAL139      0.0252
    135  CG1       10.6110    2.9070   18.3830 C.3   139  VAL139      0.0019
    136  CG2       11.7670    4.9020   19.3300 C.3   139  VAL139      0.0019
    137  N         18.3570    4.8390   21.1330 N.3   194  LEU194     -0.1231
    138  CA        18.3240    4.3110   19.7820 C.3   194  LEU194      0.1693
    139  C         19.1060    2.9970   19.8200 C.2   194  LEU194      0.2593
    140  O         20.0410    2.8530   20.6110 O.2   194  LEU194     -0.2718
    141  CB        18.9910    5.2770   18.8090 C.3   194  LEU194      0.0284
    142  CG        18.4530    6.7090   18.7110 C.3   194  LEU194      0.0019
    143  CD1       19.4450    7.5750   17.9590 C.3   194  LEU194      0.0001
    144  CD2       17.0840    6.7450   18.0430 C.3   194  LEU194      0.0001
    145  N         18.7330    2.0440   18.9760 N.am  195  THR195     -0.1939
    146  CA        19.3940    0.7470   18.9770 C.3   195  THR195      0.2028
    147  C         20.4210    0.6410   17.8500 C.2   195  THR195      0.2643
    148  O         21.0520   -0.3970   17.6700 O.2   195  THR195     -0.2714
    149  CB        18.3830   -0.4080   18.8730 C.3   195  THR195      0.1808
    150  OG1       17.6520   -0.2840   17.6500 O.3   195  THR195     -0.2208
    151  CG2       17.4130   -0.3990   20.0680 C.3   195  THR195      0.0379
    152  N         20.5730    1.7130   17.0830 N.am  196  THR196     -0.1937
    153  CA        21.6880    1.8290   16.1460 C.3   196  THR196      0.2013
    154  C         22.5340    3.0470   16.5120 C.2   196  THR196      0.2484
    155  O         22.0620    3.9550   17.2000 O.2   196  THR196     -0.2729
    156  CB        21.2140    1.9800   14.6860 C.3   196  THR196      0.1807
    157  OG1       20.4920    3.2010   14.5510 O.3   196  THR196     -0.2208
    158  CG2       20.3110    0.8370   14.2830 C.3   196  THR196      0.0379
    159  N         23.7980    3.0650   16.0780 N.am  197  PRO197     -0.2715
    160  CA        24.5040    4.3400   16.2060 C.3   197  PRO197      0.1521
    161  C         23.5990    5.4260   15.6370 C.2   197  PRO197      0.2440
    162  O         22.8580    5.1400   14.7030 O.2   197  PRO197     -0.2731
    163  CB        25.7350    4.1390   15.3160 C.3   197  PRO197      0.0310
    164  CG        25.9870    2.6500   15.3770 C.3   197  PRO197      0.0237
    165  CD        24.6380    2.0050   15.4890 C.3   197  PRO197      0.0939
    166  N         23.6590    6.6560   16.1780 N.am  198  PRO198     -0.2727
    167  CA        24.5940    7.1020   17.2170 C.3   198  PRO198      0.1402
    168  C         24.2330    6.6500   18.6340 C.2   198  PRO198      0.2269
    169  O         24.8210    7.1490   19.5980 O.2   198  PRO198     -0.2865
    170  CB        24.5080    8.6240   17.1160 C.3   198  PRO198      0.0296
    171  CG        23.1270    8.8870   16.6190 C.3   198  PRO198      0.0237
    172  CD        22.8010    7.7570   15.6950 C.3   198  PRO198      0.0939
    173  N         10.9040    3.9820   25.5520 N.3   205  TRP205     -0.1241
    174  CA        10.4360    2.7950   24.8540 C.3   205  TRP205      0.1605
    175  C          9.0650    2.3780   25.3540 C.2   205  TRP205      0.2264
    176  O          8.8010    2.3790   26.5540 O.2   205  TRP205     -0.2867
    177  CB        11.4350    1.6390   24.9730 C.3   205  TRP205      0.0550
    178  CG        12.5500    1.7700   23.9930 C.ar  205  TRP205      0.0003
    179  CD1       13.7570    2.3500   24.2080 C.ar  205  TRP205      0.0946
    180  CD2       12.5390    1.3500   22.6210 C.ar  205  TRP205      0.0152
    181  NE1       14.5090    2.3120   23.0610 N.ar  205  TRP205     -0.2442
    182  CE2       13.7860    1.7030   22.0720 C.ar  205  TRP205      0.0810
    183  CE3       11.5950    0.7050   21.8060 C.ar  205  TRP205      0.0012
    184  CZ2       14.1240    1.4240   20.7510 C.ar  205  TRP205      0.0191
    185  CZ3       11.9300    0.4260   20.4970 C.ar  205  TRP205      0.0001
    186  CH2       13.1850    0.7880   19.9800 C.ar  205  TRP205      0.0015
@<TRIPOS>BOND
     1    33    32    1
     2    28    27    1
     3    28    31    1
     4    28    29    1
     5    31    32    1
     6    29    30    2
     7    32    34    1
     8    35    36    1
     9    36    37    1
    10    36    39    1
    11    37    38    2
    12    61    60    2
    13    39    40    1
    14    56    55    2
    15    60    59    1
    16    58    59    1
    17    43    44    1
    18    40    41    2
    19    40    42   am
    20    55    54    1
    21    59    62    1
    22    62    63    1
    23    53    54    1
    24    53    45   am
    25    54    57    1
    26    44    45    1
    27    44    47    1
    28    64    63    2
    29    63    65   am
    30    45    46    2
    31    51    49   ar
    32    51    52   ar
    33    49    48   ar
    34    52    50   ar
    35    48    50   ar
    36    48    47    1
    37     4     3    2
    38    70    67    1
    39    70    71    1
    40    76    79    1
    41    76    75    1
    42    76    77    1
    43    79    80    1
    44     1     2    1
    45    67    68    1
    46    67    66    1
    47     3     2    1
    48    15    16    1
    49    73    72    2
    50    22    24   ar
    51    22    20   ar
    52    71    72    1
    53    72    74   am
    54    77    78    2
    55    68    69    2
    56     2     5    1
    57    17    16    1
    58    17    18    2
    59    19    16    1
    60    19    20    1
    61    24    25   ar
    62     9    10   ar
    63     9     7   ar
    64    12    10   ar
    65    12    14   ar
    66    10     8   ar
    67     7     6   ar
    68    80    81   ar
    69    80    82   ar
    70    14    13   ar
    71    20    21   ar
    72     8     6   ar
    73     8    11   ar
    74     6     5    1
    75    13    11   ar
    76    81    83   ar
    77    85    86    1
    78    87    86    1
    79    87    88    2
    80    82    84   ar
    81    86    89    1
    82    25    26    1
    83    25    23   ar
    84    21    23   ar
    85    83    84   ar
    86    98    97    2
    87   116   117    1
    88   116   113    1
    89    91    90   ar
    90    91    93   ar
    91    89    90    1
    92   119   117   ar
    93   119   121   ar
    94    90    92   ar
    95    93    94   ar
    96   158   156    1
    97   117   118   ar
    98   121   122   ar
    99   157   156    1
   100    95    96    1
   101   156   153    1
   102    92    94   ar
   103   162   161    2
   104   112   113    1
   105    97    96    1
   106   108   107    2
   107   118   120   ar
   108   111   109    1
   109   122   120   ar
   110   109   110    1
   111   109   106    1
   112   113   114    1
   113   105   106    1
   114   163   164    1
   115   163   160    1
   116   164   165    1
   117    96    99    1
   118   165   159    1
   119   161   166   am
   120   161   160    1
   121   114   115    2
   122    99   100    1
   123   172   166    1
   124   172   171    1
   125   106   107    1
   126   159   160    1
   127   159   154   am
   128   153   154    1
   129   153   152    1
   130   166   167    1
   131   154   155    2
   132   101   100   ar
   133   101   103   ar
   134   171   170    1
   135   100   102   ar
   136   152   147   am
   137   170   167    1
   138   167   168    1
   139   103   104   ar
   140   128   127    1
   141   150   149    1
   142   148   147    2
   143   102   104   ar
   144   129   127    1
   145   147   146    1
   146   143   142    1
   147   144   142    1
   148   135   134    1
   149   127   124    1
   150   168   169    2
   151   142   141    1
   152   141   138    1
   153   149   146    1
   154   149   151    1
   155   145   146    1
   156   145   139   am
   157   136   134    1
   158   123   124    1
   159   134   131    1
   160   138   139    1
   161   138   137    1
   162   139   140    2
   163   124   125    1
   164   131   132    1
   165   131   130    1
   166   186   185   ar
   167   186   184   ar
   168   132   133    2
   169   185   183   ar
   170   184   182   ar
   171   125   126    2
   172   183   180   ar
   173   182   180   ar
   174   182   181   ar
   175   180   178   ar
   176   181   179   ar
   177   178   179   ar
   178   178   177    1
   179   174   177    1
   180   174   175    1
   181   174   173    1
   182   175   176    2
