@<TRIPOS>MOLECULE
tmp/3t88E01.pdb
 215 206 0 0 0
SMALL
GASTEIGER

@<TRIPOS>ATOM
      1  N          8.7320   23.3430   -8.9130 N.3    39  GLN39      -0.1231
      2  CA         9.9920   23.7200   -9.5270 C.3    39  GLN39       0.1698
      3  C          9.7710   24.6060  -10.7500 C.2    39  GLN39       0.2592
      4  O         10.6920   25.2860  -11.2080 O.2    39  GLN39      -0.2718
      5  CB        10.8140   22.4790   -9.8970 C.3    39  GLN39       0.0381
      6  CG        10.2850   21.6970  -11.1020 C.3    39  GLN39       0.0905
      7  CD         9.2020   20.6870  -10.7390 C.2    39  GLN39       0.2608
      8  OE1        8.7170   20.6500   -9.6060 O.2    39  GLN39      -0.2717
      9  NE2        8.8290   19.8500  -11.7050 N.am   39  GLN39      -0.0878
     10  N          8.5510   24.5990  -11.2810 N.am   40  VAL40      -0.1966
     11  CA         8.2040   25.5080  -12.3690 C.3    40  VAL40       0.1727
     12  C          7.0230   26.3840  -11.9690 C.2    40  VAL40       0.2616
     13  O          6.2190   26.7740  -12.8150 O.2    40  VAL40      -0.2715
     14  CB         7.8750   24.7510  -13.6780 C.3    40  VAL40       0.0290
     15  CG1        9.1650   24.3400  -14.3990 C.3    40  VAL40       0.0023
     16  CG2        6.9900   23.5460  -13.3840 C.3    40  VAL40       0.0023
     17  N          6.9270   26.6760  -10.6720 N.am   41  ARG41      -0.1977
     18  CA         5.8440   27.4890  -10.1190 C.3    41  ARG41       0.1597
     19  C          4.4810   26.8850  -10.4310 C.2    41  ARG41       0.2287
     20  O          3.4930   27.6040  -10.5960 O.2    41  ARG41      -0.2864
     21  CB         5.9230   28.9400  -10.6120 C.3    41  ARG41       0.0334
     22  CG         7.1750   29.6880  -10.1490 C.3    41  ARG41       0.0492
     23  CD         7.0240   30.2250   -8.7290 C.3    41  ARG41       0.2205
     24  NE         8.2580   30.8720   -8.2990 N.pl3  41  ARG41      -0.0865
     25  CZ         9.2240   30.2550   -7.6260 C.cat  41  ARG41       0.5346
     26  NH1        9.0780   28.9860   -7.2760 N.pl3  41  ARG41       0.1354
     27  NH2       10.3280   30.9140   -7.2880 N.pl3  41  ARG41       0.1354
     28  N          3.2540   25.3320  -12.9920 N.3    43  ALA43      -0.1231
     29  CA         2.7720   25.3890  -14.3660 C.3    43  ALA43       0.1694
     30  C          2.3000   24.0080  -14.7750 C.2    43  ALA43       0.2592
     31  O          2.8960   23.0000  -14.3690 O.2    43  ALA43      -0.2718
     32  CB         3.8970   25.8440  -15.2950 C.3    43  ALA43       0.0304
     33  N          1.2330   23.9450  -15.5720 N.am   44  PHE44      -0.1976
     34  CA         0.7200   22.6520  -16.0000 C.3    44  PHE44       0.1639
     35  C          1.2500   22.2560  -17.3710 C.2    44  PHE44       0.2290
     36  O          1.3540   23.0820  -18.2730 O.2    44  PHE44      -0.2864
     37  CB        -0.8270   22.5970  -15.9620 C.3    44  PHE44       0.0560
     38  CG        -1.5150   23.7590  -16.6530 C.ar   44  PHE44      -0.0200
     39  CD1       -1.6040   23.8120  -18.0370 C.ar   44  PHE44      -0.0042
     40  CD2       -2.0790   24.7850  -15.9130 C.ar   44  PHE44      -0.0042
     41  CE1       -2.2290   24.8770  -18.6700 C.ar   44  PHE44      -0.0003
     42  CE2       -2.7130   25.8520  -16.5380 C.ar   44  PHE44      -0.0003
     43  CZ        -2.7870   25.8970  -17.9200 C.ar   44  PHE44      -0.0000
     44  N          1.3040   28.7820  -12.3990 N.3    80  SER80      -0.1217
     45  CA         1.8300   29.8230  -13.2710 C.3    80  SER80       0.1889
     46  C          1.3660   29.6640  -14.7220 C.2    80  SER80       0.2288
     47  O          1.9270   30.2820  -15.6260 O.2    80  SER80      -0.2866
     48  CB         3.3520   29.8210  -13.2180 C.3    80  SER80       0.2089
     49  OG         3.8460   28.6060  -13.7480 O.3    80  SER80      -0.2183
     50  N          0.2570   27.6150  -18.3600 N.3    82  GLY82      -0.1210
     51  CA         0.8070   26.5960  -19.2310 C.3    82  GLY82       0.1956
     52  C          2.3240   26.5460  -19.1540 C.2    82  GLY82       0.2612
     53  O          2.9990   27.5790  -19.1390 O.2    82  GLY82      -0.2717
     54  N          2.8570   25.3310  -19.1050 N.am   83  ASP83      -0.1959
     55  CA         4.3020   25.1180  -19.0660 C.3    83  ASP83       0.1840
     56  C          4.9200   25.5210  -20.4060 C.2    83  ASP83       0.2622
     57  O          4.8400   24.7850  -21.3910 O.2    83  ASP83      -0.2715
     58  CB         4.5770   23.6400  -18.7680 C.3    83  ASP83       0.1450
     59  CG         6.0660   23.3310  -18.5720 C.2    83  ASP83       0.3671
     60  OD1        6.3590   22.3580  -17.8440 O.co2  83  ASP83      -0.2456
     61  OD2        6.9230   24.0370  -19.1440 O.co2  83  ASP83      -0.2456
     62  N          5.5380   26.6920  -20.4510 N.am   84  GLN84      -0.1963
     63  CA         6.0900   27.2090  -21.7120 C.3    84  GLN84       0.1733
     64  C          7.2530   26.3830  -22.2790 C.2    84  GLN84       0.2616
     65  O          7.6390   26.5460  -23.4420 O.2    84  GLN84      -0.2715
     66  CB         6.5110   28.6770  -21.5500 C.3    84  GLN84       0.0408
     67  CG         5.3520   29.5960  -21.2320 C.3    84  GLN84       0.0908
     68  CD         4.2960   29.5720  -22.3170 C.2    84  GLN84       0.2608
     69  OE1        4.5290   30.0510  -23.4280 O.2    84  GLN84      -0.2717
     70  NE2        3.1270   29.0090  -22.0050 N.am   84  GLN84      -0.0878
     71  N          7.8050   25.4890  -21.4680 N.am   85  LYS85      -0.1977
     72  CA         8.9310   24.6770  -21.9190 C.3    85  LYS85       0.1596
     73  C          8.4910   23.5730  -22.8830 C.2    85  LYS85       0.2287
     74  O          9.3040   23.0660  -23.6590 O.2    85  LYS85      -0.2864
     75  CB         9.6870   24.0900  -20.7260 C.3    85  LYS85       0.0298
     76  CG        10.2640   25.1550  -19.7810 C.3    85  LYS85       0.0038
     77  CD        10.7830   24.5360  -18.4740 C.3    85  LYS85       0.0206
     78  CE        11.1400   25.5970  -17.4280 C.3    85  LYS85       0.1093
     79  NZ        12.4210   26.2970  -17.7300 N.3    85  LYS85      -0.1314
     80  N          0.5050   22.4260  -26.4490 N.3    93  TYR93      -0.1241
     81  CA         1.6120   21.9340  -25.6290 C.3    93  TYR93       0.1605
     82  C          1.8550   20.4600  -25.9430 C.2    93  TYR93       0.2264
     83  O          0.9220   19.6640  -25.9370 O.2    93  TYR93      -0.2867
     84  CB         1.2760   22.1000  -24.1380 C.3    93  TYR93       0.0534
     85  CG         1.0270   23.5440  -23.7460 C.ar   93  TYR93      -0.0201
     86  CD1       -0.1810   24.1680  -24.0430 C.ar   93  TYR93      -0.0009
     87  CD2        2.0080   24.2870  -23.1050 C.ar   93  TYR93      -0.0009
     88  CE1       -0.4030   25.4870  -23.7040 C.ar   93  TYR93       0.0417
     89  CE2        1.7950   25.6030  -22.7540 C.ar   93  TYR93       0.0417
     90  CZ         0.5930   26.2010  -23.0620 C.ar   93  TYR93       0.1957
     91  OH         0.3870   27.5110  -22.7170 O.3    93  TYR93      -0.2866
     92  N         -4.4060   21.4980  -25.9040 N.3   102  LEU102     -0.1245
     93  CA        -4.8690   22.6550  -25.1530 C.3   102  LEU102      0.1561
     94  C         -5.9100   22.1250  -24.1760 C.2   102  LEU102      0.2260
     95  O         -7.0310   22.6330  -24.0970 O.2   102  LEU102     -0.2867
     96  CB        -5.4870   23.7020  -26.0890 C.3   102  LEU102      0.0270
     97  CG        -4.5230   24.3870  -27.0630 C.3   102  LEU102      0.0019
     98  CD1       -5.2870   25.2250  -28.0970 C.3   102  LEU102      0.0001
     99  CD2       -3.4900   25.2390  -26.3030 C.3   102  LEU102      0.0001
    100  N         -6.3790   22.2410  -21.0460 N.3   104  VAL104     -0.1231
    101  CA        -6.9150   23.0350  -19.9440 C.3   104  VAL104      0.1692
    102  C         -8.3410   23.4950  -20.2860 C.2   104  VAL104      0.2591
    103  O         -9.1620   23.7300  -19.3980 O.2   104  VAL104     -0.2718
    104  CB        -6.0110   24.2260  -19.5850 C.3   104  VAL104      0.0266
    105  CG1       -6.2410   25.3930  -20.5490 C.3   104  VAL104      0.0020
    106  CG2       -6.2560   24.6570  -18.1410 C.3   104  VAL104      0.0020
    107  N         -8.6440   23.6030  -21.5770 N.am  105  LEU105     -0.1980
    108  CA        -9.9990   23.9920  -21.9880 C.3   105  LEU105      0.1596
    109  C        -11.0320   22.9790  -21.4880 C.2   105  LEU105      0.2287
    110  O        -12.1500   23.3480  -21.1090 O.2   105  LEU105     -0.2864
    111  CB       -10.0980   24.1390  -23.5060 C.3   105  LEU105      0.0297
    112  CG        -9.2620   25.2680  -24.1140 C.3   105  LEU105      0.0022
    113  CD1       -9.2770   25.2160  -25.6350 C.3   105  LEU105      0.0001
    114  CD2       -9.7550   26.6110  -23.6100 C.3   105  LEU105      0.0001
    115  N          1.8880   33.0750   -6.4140 N.3   125  TYR125     -0.1241
    116  CA         1.4980   33.4130   -7.7800 C.3   125  TYR125      0.1605
    117  C          0.3240   32.6030   -8.3310 C.2   125  TYR125      0.2264
    118  O          0.3370   31.3690   -8.3140 O.2   125  TYR125     -0.2867
    119  CB         2.6880   33.2660   -8.7330 C.3   125  TYR125      0.0534
    120  CG         3.8140   34.2250   -8.4200 C.ar  125  TYR125     -0.0201
    121  CD1        4.9430   33.8030   -7.7210 C.ar  125  TYR125     -0.0009
    122  CD2        3.7370   35.5590   -8.8020 C.ar  125  TYR125     -0.0009
    123  CE1        5.9730   34.6890   -7.4250 C.ar  125  TYR125      0.0417
    124  CE2        4.7530   36.4470   -8.5110 C.ar  125  TYR125      0.0417
    125  CZ         5.8680   36.0090   -7.8230 C.ar  125  TYR125      0.1957
    126  OH         6.8740   36.9040   -7.5380 O.3   125  TYR125     -0.2866
    127  N         -1.0610   33.0910  -11.9470 N.3   127  ILE127     -0.1231
    128  CA        -0.6350   33.8820  -13.0960 C.3   127  ILE127      0.1692
    129  C         -0.9590   33.1510  -14.3800 C.2   127  ILE127      0.2593
    130  O         -0.8350   31.9300  -14.4450 O.2   127  ILE127     -0.2718
    131  CB         0.9030   34.1460  -13.0510 C.3   127  ILE127      0.0266
    132  CG1        1.2720   35.0340  -11.8610 C.3   127  ILE127      0.0019
    133  CG2        1.4070   34.7810  -14.3610 C.3   127  ILE127      0.0020
    134  CD1        0.6440   36.4310  -11.9100 C.3   127  ILE127      0.0001
    135  N         -1.3850   33.8950  -15.4000 N.am  128  GLY128     -0.1942
    136  CA        -1.6200   33.3160  -16.7160 C.3   128  GLY128      0.2014
    137  C         -2.7860   32.3430  -16.7420 C.2   128  GLY128      0.2639
    138  O         -3.8550   32.6240  -16.1990 O.2   128  GLY128     -0.2714
    139  N         -2.5930   31.2050  -17.3940 N.am  129  GLY129     -0.1954
    140  CA        -3.5960   30.1500  -17.3740 C.3   129  GLY129      0.1869
    141  C         -3.9020   29.7880  -15.9280 C.2   129  GLY129      0.2309
    142  O         -4.9970   29.3460  -15.5960 O.2   129  GLY129     -0.2863
    143  N         -6.5640   32.2020  -14.7320 N.3   132  VAL132     -0.1245
    144  CA        -7.8890   31.8180  -15.2210 C.3   132  VAL132      0.1561
    145  C         -8.4770   30.6750  -14.3770 C.2   132  VAL132      0.2260
    146  O         -9.6680   30.6680  -14.0460 O.2   132  VAL132     -0.2867
    147  CB        -7.8610   31.4410  -16.7170 C.3   132  VAL132      0.0252
    148  CG1       -9.2610   31.0500  -17.2140 C.3   132  VAL132      0.0019
    149  CG2       -7.3070   32.6060  -17.5450 C.3   132  VAL132      0.0019
    150  N         -0.5050   37.2490  -18.3960 N.3   151  THR151     -0.1203
    151  CA         0.7270   37.5770  -19.0920 C.3   151  THR151      0.1994
    152  C          0.6100   37.3690  -20.5910 C.2   151  THR151      0.2618
    153  O          1.5780   37.5660  -21.3210 O.2   151  THR151     -0.2717
    154  CB         1.8690   36.6770  -18.6270 C.3   151  THR151      0.1784
    155  OG1        1.4950   35.3200  -18.8690 O.3   151  THR151     -0.2211
    156  CG2        2.1400   36.8750  -17.1380 C.3   151  THR151      0.0376
    157  N         -0.5620   36.9410  -21.0510 N.am  152  GLY152     -0.1956
    158  CA        -0.7420   36.6140  -22.4550 C.3   152  GLY152      0.1869
    159  C         -0.0380   37.5110  -23.4600 C.2   152  GLY152      0.2309
    160  O          0.8050   37.0490  -24.2280 O.2   152  GLY152     -0.2863
    161  N          3.6790   37.0300  -23.4210 N.3   155  VAL155     -0.1245
    162  CA         4.2930   35.7320  -23.7030 C.3   155  VAL155      0.1561
    163  C          3.6830   35.0520  -24.9270 C.2   155  VAL155      0.2260
    164  O          3.8730   33.8570  -25.1450 O.2   155  VAL155     -0.2867
    165  CB         4.2360   34.7890  -22.4770 C.3   155  VAL155      0.0252
    166  CG1        4.8870   35.4560  -21.2800 C.3   155  VAL155      0.0019
    167  CG2        2.7990   34.4010  -22.1510 C.3   155  VAL155      0.0019
    168  N          0.3360   34.7190  -25.8640 N.3   157  SER157     -0.1202
    169  CA        -0.8940   33.9600  -25.7170 C.3   157  SER157      0.2020
    170  C         -2.0750   34.8600  -25.3270 C.2   157  SER157      0.2619
    171  O         -1.8980   36.0490  -25.0590 O.2   157  SER157     -0.2717
    172  CB        -0.7020   32.8100  -24.7060 C.3   157  SER157      0.2103
    173  OG        -0.5110   33.2870  -23.3820 O.3   157  SER157     -0.2182
    174  N         -3.2760   34.2890  -25.3300 N.am  158  PHE158     -0.1961
    175  CA        -4.4560   34.9300  -24.7500 C.3   158  PHE158      0.1771
    176  C         -5.5110   33.8890  -24.4400 C.2   158  PHE158      0.2619
    177  O         -5.5580   32.8190  -25.0680 O.2   158  PHE158     -0.2715
    178  CB        -5.0470   36.0220  -25.6640 C.3   158  PHE158      0.0574
    179  CG        -5.3900   35.5470  -27.0570 C.ar  158  PHE158     -0.0200
    180  CD1       -4.4730   35.6700  -28.0880 C.ar  158  PHE158     -0.0042
    181  CD2       -6.6370   35.0180  -27.3400 C.ar  158  PHE158     -0.0042
    182  CE1       -4.7890   35.2430  -29.3810 C.ar  158  PHE158     -0.0003
    183  CE2       -6.9650   34.5900  -28.6320 C.ar  158  PHE158     -0.0003
    184  CZ        -6.0300   34.6990  -29.6510 C.ar  158  PHE158     -0.0000
    185  N         -6.3410   34.1940  -23.4460 N.am  159  ASP159     -0.1971
    186  CA        -7.5370   33.3970  -23.1710 C.3   159  ASP159      0.1709
    187  C         -8.7040   34.3370  -23.3440 C.2   159  ASP159      0.2293
    188  O         -9.0470   35.1060  -22.4280 O.2   159  ASP159     -0.2864
    189  CB        -7.5260   32.8290  -21.7510 C.3   159  ASP159      0.1436
    190  CG        -8.7020   31.8860  -21.4830 C.2   159  ASP159      0.3671
    191  OD1       -9.8100   32.1240  -22.0230 O.co2 159  ASP159     -0.2456
    192  OD2       -8.5110   30.9040  -20.7310 O.co2 159  ASP159     -0.2456
    193  N         -5.6850   42.4650  -18.6170 N.3   180  TRP180     -0.1241
    194  CA        -5.2080   41.8380  -19.8430 C.3   180  TRP180      0.1605
    195  C         -4.2210   42.6870  -20.6500 C.2   180  TRP180      0.2264
    196  O         -3.2090   42.1670  -21.1150 O.2   180  TRP180     -0.2867
    197  CB        -6.3850   41.4250  -20.7290 C.3   180  TRP180      0.0550
    198  CG        -6.9430   40.0760  -20.3840 C.ar  180  TRP180      0.0003
    199  CD1       -8.1770   39.7960  -19.8640 C.ar  180  TRP180      0.0946
    200  CD2       -6.2810   38.8140  -20.5580 C.ar  180  TRP180      0.0152
    201  NE1       -8.3230   38.4290  -19.7010 N.ar  180  TRP180     -0.2442
    202  CE2       -7.1740   37.8060  -20.1190 C.ar  180  TRP180      0.0810
    203  CE3       -5.0200   38.4410  -21.0390 C.ar  180  TRP180      0.0012
    204  CZ2       -6.8460   36.4480  -20.1510 C.ar  180  TRP180      0.0191
    205  CZ3       -4.6930   37.0860  -21.0760 C.ar  180  TRP180      0.0001
    206  CH2       -5.6040   36.1060  -20.6260 C.ar  180  TRP180      0.0015
    207  N          1.1070   42.7910  -12.2760 N.3   185  GLN185     -0.1245
    208  CA         0.7830   41.8760  -11.1820 C.3   185  GLN185      0.1566
    209  C          0.0590   42.6590  -10.1050 C.2   185  GLN185      0.2260
    210  O          0.3100   43.8550   -9.9260 O.2   185  GLN185     -0.2867
    211  CB         2.0480   41.2580  -10.5800 C.3   185  GLN185      0.0367
    212  CG         2.8100   40.3200  -11.5190 C.3   185  GLN185      0.0905
    213  CD         4.0960   39.7810  -10.8880 C.2   185  GLN185      0.2608
    214  OE1        4.5400   40.2660   -9.8490 O.2   185  GLN185     -0.2717
    215  NE2        4.6840   38.7710  -11.5110 N.am  185  GLN185     -0.0878
@<TRIPOS>BOND
     1   184   182   ar
     2   184   183   ar
     3   182   180   ar
     4   183   181   ar
     5    98    97    1
     6   180   179   ar
     7   181   179   ar
     8    97    99    1
     9    97    96    1
    10   179   178    1
    11    80    81    1
    12    96    93    1
    13    82    83    2
    14    82    81    1
    15    92    93    1
    16   168   169    1
    17   169   170    1
    18   169   172    1
    19   178   175    1
    20   113   112    1
    21    81    84    1
    22   174   170   am
    23   174   175    1
    24   170   171    2
    25    93    94    1
    26   164   163    2
    27   177   176    2
    28   163   162    1
    29   175   176    1
    30   172   173    1
    31   176   185   am
    32   160   159    2
    33    94    95    2
    34    84    85    1
    35   112   114    1
    36   112   111    1
    37    86    85   ar
    38    86    88   ar
    39    85    87   ar
    40    88    90   ar
    41   162   161    1
    42   162   165    1
    43    74    73    2
    44   111   108    1
    45   159   158    1
    46   185   186    1
    47    65    64    2
    48    69    68    2
    49   187   186    1
    50   187   188    2
    51   186   189    1
    52    87    89   ar
    53    90    89   ar
    54    90    91    1
    55    73    72    1
    56   165   167    1
    57   165   166    1
    58   158   157    1
    59    68    70   am
    60    68    67    1
    61    64    63    1
    62    64    71   am
    63   191   190   ar
    64   108   107    1
    65   108   109    1
    66    72    71    1
    67    72    75    1
    68   189   190    1
    69    63    66    1
    70    63    62    1
    71   107   102   am
    72    66    67    1
    73   109   110    2
    74   190   192   ar
    75    57    56    2
    76   153   152    2
    77   196   195    2
    78   205   203   ar
    79   205   206   ar
    80   157   152   am
    81   100   101    1
    82   203   200   ar
    83   197   198    1
    84   197   194    1
    85    75    76    1
    86   195   194    1
    87   206   204   ar
    88   152   151    1
    89   200   198   ar
    90   200   202   ar
    91   105   104    1
    92    62    56   am
    93    56    55    1
    94   198   199   ar
    95   102   101    1
    96   102   103    2
    97   204   202   ar
    98   202   201   ar
    99   101   104    1
   100   199   201   ar
   101   194   193    1
   102    76    77    1
   103   104   106    1
   104    51    52    1
   105    51    50    1
   106    52    53    2
   107    52    54   am
   108    61    59   ar
   109    54    55    1
   110   151   154    1
   111   151   150    1
   112    55    58    1
   113   155   154    1
   114    58    59    1
   115    41    39   ar
   116    41    43   ar
   117   154   156    1
   118    59    60   ar
   119    77    78    1
   120    36    35    2
   121    39    38   ar
   122    43    42   ar
   123    79    78    1
   124   149   147    1
   125   139   140    1
   126   139   137   am
   127   140   141    1
   128    35    34    1
   129   148   147    1
   130   137   136    1
   131   137   138    2
   132   147   144    1
   133   136   135    1
   134    38    37    1
   135    38    40   ar
   136    42    40   ar
   137    34    37    1
   138    34    33    1
   139   141   142    2
   140    47    46    2
   141    33    30   am
   142   135   129   am
   143    32    29    1
   144   144   143    1
   145   144   145    1
   146    30    31    2
   147    30    29    1
   148    46    45    1
   149   130   129    2
   150    15    14    1
   151   129   128    1
   152   145   146    2
   153    29    28    1
   154   133   131    1
   155    49    48    1
   156    14    16    1
   157    14    11    1
   158    45    48    1
   159    45    44    1
   160   128   131    1
   161   128   127    1
   162   131   132    1
   163    13    12    2
   164    11    12    1
   165    11    10    1
   166   207   208    1
   167    12    17   am
   168   134   132    1
   169     9     7   am
   170   212   213    1
   171   212   211    1
   172   215   213   am
   173    10     3   am
   174     4     3    2
   175   208   211    1
   176   208   209    1
   177     6     7    1
   178     6     5    1
   179   213   214    2
   180     3     2    1
   181     7     8    2
   182    17    18    1
   183    21    22    1
   184    21    18    1
   185    20    19    2
   186    19    18    1
   187    22    23    1
   188   209   210    2
   189     5     2    1
   190     2     1    1
   191   122   124   ar
   192   122   120   ar
   193   119   120    1
   194   119   116    1
   195    23    24    1
   196   124   125   ar
   197   120   121   ar
   198   117   118    2
   199   117   116    1
   200    24    25    2
   201   125   126    1
   202   125   123   ar
   203   116   115    1
   204   121   123   ar
   205    25    27    1
   206    25    26    1
