@<TRIPOS>MOLECULE
tmp/3t89F00.pdb
 81 78 0 0 0
SMALL
GASTEIGER

@<TRIPOS>ATOM
      1  N         22.0400  -12.7040    3.6630 N.3   115  GLY115     -0.1210
      2  CA        20.7010  -12.9620    3.1620 C.3   115  GLY115      0.1956
      3  C         19.8160  -13.5600    4.2350 C.2   115  GLY115      0.2612
      4  O         19.7100  -13.0060    5.3260 O.2   115  GLY115     -0.2717
      5  N         19.1800  -14.6870    3.9320 N.am  116  GLY116     -0.1956
      6  CA        18.3670  -15.3750    4.9220 C.3   116  GLY116      0.1869
      7  C         19.1860  -15.7390    6.1450 C.2   116  GLY116      0.2309
      8  O         18.6750  -15.7690    7.2680 O.2   116  GLY116     -0.2863
      9  N         19.4960  -12.6420    8.5100 N.3   119  VAL119     -0.1245
     10  CA        18.3290  -12.4690    9.3660 C.3   119  VAL119      0.1561
     11  C         18.3810  -13.4650   10.5340 C.2   119  VAL119      0.2260
     12  O         18.0210  -13.1330   11.6660 O.2   119  VAL119     -0.2867
     13  CB        17.0200  -12.5940    8.5620 C.3   119  VAL119      0.0252
     14  CG1       15.8190  -12.3760    9.4690 C.3   119  VAL119      0.0019
     15  CG2       17.0180  -11.5620    7.4220 C.3   119  VAL119      0.0019
     16  N         22.6550   -8.1290    3.5560 N.3   137  GLN137     -0.1231
     17  CA        21.4760   -8.6950    2.9210 C.3   137  GLN137      0.1698
     18  C         21.7320   -8.7820    1.4200 C.2   137  GLN137      0.2593
     19  O         22.7180   -8.2340    0.9200 O.2   137  GLN137     -0.2718
     20  CB        20.2290   -7.8460    3.2070 C.3   137  GLN137      0.0381
     21  CG        19.8970   -7.6770    4.6850 C.3   137  GLN137      0.0905
     22  CD        19.5370   -8.9840    5.3990 C.2   137  GLN137      0.2608
     23  OE1       19.5690   -9.0500    6.6290 O.2   137  GLN137     -0.2717
     24  NE2       19.1830  -10.0180    4.6340 N.am  137  GLN137     -0.0878
     25  N         20.8480   -9.4690    0.7090 N.am  138  THR138     -0.1939
     26  CA        20.9840   -9.6320   -0.7330 C.3   138  THR138      0.2028
     27  C         19.6400   -9.5360   -1.4450 C.2   138  THR138      0.2642
     28  O         19.5850   -9.5670   -2.6720 O.2   138  THR138     -0.2714
     29  CB        21.5990  -10.9940   -1.0770 C.3   138  THR138      0.1808
     30  OG1       20.8180  -12.0310   -0.4710 O.3   138  THR138     -0.2208
     31  CG2       23.0330  -11.0780   -0.5600 C.3   138  THR138      0.0379
     32  N         18.5630   -9.4230   -0.6730 N.am  139  GLY139     -0.1954
     33  CA        17.2110   -9.4310   -1.2140 C.3   139  GLY139      0.1869
     34  C         17.0150   -8.6700   -2.5210 C.2   139  GLY139      0.2309
     35  O         16.7130   -9.2690   -3.5520 O.2   139  GLY139     -0.2863
     36  N         18.7360   -9.9770   -5.6890 N.3   142  VAL142     -0.1245
     37  CA        18.2890  -11.2520   -6.2380 C.3   142  VAL142      0.1561
     38  C         16.7670  -11.3610   -6.2950 C.2   142  VAL142      0.2260
     39  O         16.2250  -12.4530   -6.4430 O.2   142  VAL142     -0.2867
     40  CB        18.8500  -12.4500   -5.4430 C.3   142  VAL142      0.0252
     41  CG1       20.3700  -12.3720   -5.3580 C.3   142  VAL142      0.0019
     42  CG2       18.2310  -12.5110   -4.0470 C.3   142  VAL142      0.0019
     43  N         14.1940  -10.4510   -3.9460 N.3   144  SER144     -0.1202
     44  CA        13.5140  -10.9560   -2.7530 C.3   144  SER144      0.2020
     45  C         13.5990   -9.8990   -1.6640 C.2   144  SER144      0.2619
     46  O         14.2820   -8.8900   -1.8290 O.2   144  SER144     -0.2717
     47  CB        14.1590  -12.2560   -2.2630 C.3   144  SER144      0.2103
     48  OG        13.4770  -12.7880   -1.1370 O.3   144  SER144     -0.2182
     49  N         12.8960  -10.1280   -0.5600 N.am  145  PHE145     -0.1961
     50  CA        13.0420   -9.2910    0.6260 C.3   145  PHE145      0.1771
     51  C         12.5080  -10.0070    1.8620 C.2   145  PHE145      0.2619
     52  O         11.6660  -10.9020    1.7640 O.2   145  PHE145     -0.2715
     53  CB        12.3510   -7.9270    0.4580 C.3   145  PHE145      0.0574
     54  CG        10.8770   -8.0200    0.1570 C.ar  145  PHE145     -0.0200
     55  CD1       10.4240   -8.0210   -1.1520 C.ar  145  PHE145     -0.0042
     56  CD2        9.9500   -8.1090    1.1800 C.ar  145  PHE145     -0.0042
     57  CE1        9.0650   -8.1110   -1.4310 C.ar  145  PHE145     -0.0003
     58  CE2        8.5930   -8.2060    0.9080 C.ar  145  PHE145     -0.0003
     59  CZ         8.1530   -8.2030   -0.3990 C.ar  145  PHE145     -0.0000
     60  N         13.0340   -9.6220    3.0170 N.am  146  ASP146     -0.1971
     61  CA        12.4480   -9.9940    4.2970 C.3   146  ASP146      0.1709
     62  C         11.9600   -8.7050    4.9500 C.2   146  ASP146      0.2293
     63  O         12.7540   -7.9270    5.4850 O.2   146  ASP146     -0.2864
     64  CB        13.4690  -10.7150    5.1810 C.3   146  ASP146      0.1436
     65  CG        12.8550  -11.2510    6.4700 C.2   146  ASP146      0.3671
     66  OD1       11.9370  -10.5970    7.0170 O.co2 146  ASP146     -0.2456
     67  OD2       13.2930  -12.3200    6.9410 O.co2 146  ASP146     -0.2456
     68  N         19.7650   -2.7430    3.5270 N.3   167  TRP167     -0.1241
     69  CA        18.7890   -3.3690    2.6410 C.3   167  TRP167      0.1605
     70  C         18.7990   -2.8310    1.2150 C.2   167  TRP167      0.2264
     71  O         18.6750   -3.6040    0.2640 O.2   167  TRP167     -0.2867
     72  CB        17.3750   -3.2370    3.2090 C.3   167  TRP167      0.0550
     73  CG        16.9900   -4.3620    4.1210 C.ar  167  TRP167      0.0003
     74  CD1       16.7640   -4.2890    5.4680 C.ar  167  TRP167      0.0946
     75  CD2       16.7830   -5.7300    3.7530 C.ar  167  TRP167      0.0152
     76  NE1       16.4310   -5.5300    5.9600 N.ar  167  TRP167     -0.2442
     77  CE2       16.4370   -6.4310    4.9270 C.ar  167  TRP167      0.0810
     78  CE3       16.8620   -6.4320    2.5470 C.ar  167  TRP167      0.0012
     79  CZ2       16.1630   -7.7960    4.9280 C.ar  167  TRP167      0.0191
     80  CZ3       16.5920   -7.7880    2.5490 C.ar  167  TRP167      0.0001
     81  CH2       16.2490   -8.4560    3.7330 C.ar  167  TRP167      0.0015
@<TRIPOS>BOND
     1    39    38    2
     2    38    37    1
     3    37    36    1
     4    37    40    1
     5    40    41    1
     6    40    42    1
     7    43    44    1
     8    35    34    2
     9    44    47    1
    10    44    45    1
    11    28    27    2
    12    34    33    1
    13    47    48    1
    14    46    45    2
    15    45    49   am
    16    27    26    1
    17    27    32   am
    18    57    55   ar
    19    57    59   ar
    20    33    32    1
    21    55    54   ar
    22    29    26    1
    23    29    31    1
    24    29    30    1
    25    26    25    1
    26    49    50    1
    27    59    58   ar
    28    54    53    1
    29    54    56   ar
    30    71    70    2
    31    53    50    1
    32    50    51    1
    33    25    18   am
    34    58    56   ar
    35    19    18    2
    36    70    69    1
    37    18    17    1
    38    52    51    2
    39    51    60   am
    40    78    80   ar
    41    78    75   ar
    42    80    81   ar
    43    69    72    1
    44    69    68    1
    45    17    20    1
    46    17    16    1
    47    60    61    1
    48     2     1    1
    49     2     3    1
    50    20    21    1
    51    72    73    1
    52    81    79   ar
    53    75    73   ar
    54    75    77   ar
    55     5     3   am
    56     5     6    1
    57    73    74   ar
    58     3     4    2
    59    61    62    1
    60    61    64    1
    61    24    22   am
    62    21    22    1
    63     6     7    1
    64    77    79   ar
    65    77    76   ar
    66    62    63    2
    67    64    65    1
    68    22    23    2
    69    74    76   ar
    70     7     8    2
    71    65    67   ar
    72    65    66   ar
    73    15    13    1
    74     9    10    1
    75    13    10    1
    76    13    14    1
    77    10    11    1
    78    11    12    2
