@<TRIPOS>MOLECULE
tmp/3t8dA00.pdb
 174 170 0 0 0
SMALL
GASTEIGER

@<TRIPOS>ATOM
      1  N         14.0030  -46.7840   -1.3120 N.3   111  ASN111     -0.1225
      2  CA        12.8000  -45.9880   -1.5410 C.3   111  ASN111      0.1785
      3  C         12.5320  -44.9990   -0.4110 C.2   111  ASN111      0.2597
      4  O         11.4520  -44.9930    0.1820 O.2   111  ASN111     -0.2718
      5  CB        11.5910  -46.9100   -1.7130 C.3   111  ASN111      0.1169
      6  CG        11.6210  -47.6720   -3.0220 C.2   111  ASN111      0.2627
      7  OD1       11.9750  -47.1190   -4.0660 O.2   111  ASN111     -0.2716
      8  ND2       11.2570  -48.9500   -2.9750 N.am  111  ASN111     -0.0877
      9  N         13.5090  -44.1530   -0.1050 N.am  112  ASN112     -0.1960
     10  CA        13.2940  -43.1460    0.9250 C.3   112  ASN112      0.1819
     11  C         14.4080  -42.1100    0.9050 C.2   112  ASN112      0.2621
     12  O         15.3910  -42.2330    0.1620 O.2   112  ASN112     -0.2715
     13  CB        13.2090  -43.8030    2.3110 C.3   112  ASN112      0.1195
     14  CG        12.1770  -43.1410    3.2180 C.2   112  ASN112      0.2630
     15  OD1       11.7990  -41.9780    3.0200 O.2   112  ASN112     -0.2716
     16  ND2       11.7230  -43.8810    4.2280 N.am  112  ASN112     -0.0877
     17  N         14.2360  -41.0860    1.7300 N.am  113  ALA113     -0.1963
     18  CA        15.2430  -40.0690    1.9640 C.3   113  ALA113      0.1728
     19  C         15.0800  -39.6710    3.4190 C.2   113  ALA113      0.2616
     20  O         13.9970  -39.8550    3.9910 O.2   113  ALA113     -0.2715
     21  CB        15.0230  -38.8690    1.0460 C.3   113  ALA113      0.0334
     22  N         16.1370  -39.1480    4.0350 N.am  114  PHE114     -0.1960
     23  CA        16.0480  -38.7810    5.4470 C.3   114  PHE114      0.1771
     24  C         17.1360  -37.8170    5.8770 C.2   114  PHE114      0.2619
     25  O         18.1310  -37.6210    5.1710 O.2   114  PHE114     -0.2715
     26  CB        16.0210  -40.0280    6.3660 C.3   114  PHE114      0.0574
     27  CG        17.2190  -40.9430    6.2340 C.ar  114  PHE114     -0.0200
     28  CD1       17.2900  -41.8830    5.2130 C.ar  114  PHE114     -0.0042
     29  CD2       18.2580  -40.8980    7.1600 C.ar  114  PHE114     -0.0042
     30  CE1       18.3720  -42.7560    5.1090 C.ar  114  PHE114     -0.0003
     31  CE2       19.3490  -41.7620    7.0540 C.ar  114  PHE114     -0.0003
     32  CZ        19.4050  -42.6940    6.0270 C.ar  114  PHE114     -0.0000
     33  N         16.9200  -37.2020    7.0340 N.am  115  TRP115     -0.1974
     34  CA        17.9460  -36.4400    7.7320 C.3   115  TRP115      0.1640
     35  C         18.4310  -37.3320    8.8650 C.2   115  TRP115      0.2290
     36  O         17.6290  -37.7910    9.6820 O.2   115  TRP115     -0.2864
     37  CB        17.3400  -35.1460    8.2780 C.3   115  TRP115      0.0576
     38  CG        18.2390  -34.3920    9.1910 C.ar  115  TRP115      0.0006
     39  CD1       18.2110  -34.4060   10.5550 C.ar  115  TRP115      0.0946
     40  CD2       19.2950  -33.4950    8.8160 C.ar  115  TRP115      0.0152
     41  NE1       19.1870  -33.5730   11.0560 N.ar  115  TRP115     -0.2442
     42  CE2       19.8720  -33.0090   10.0100 C.ar  115  TRP115      0.0810
     43  CE3       19.8140  -33.0610    7.5890 C.ar  115  TRP115      0.0012
     44  CZ2       20.9420  -32.1030   10.0120 C.ar  115  TRP115      0.0191
     45  CZ3       20.8710  -32.1600    7.5920 C.ar  115  TRP115      0.0001
     46  CH2       21.4230  -31.6910    8.7930 C.ar  115  TRP115      0.0015
     47  N          8.7420  -47.7980   -7.5890 N.3   129  THR129     -0.1203
     48  CA         8.1160  -46.9830   -6.5560 C.3   129  THR129      0.1994
     49  C          8.6400  -45.5470   -6.6130 C.2   129  THR129      0.2617
     50  O          7.8710  -44.5960   -6.4970 O.2   129  THR129     -0.2717
     51  CB         8.3640  -47.5670   -5.1520 C.3   129  THR129      0.1784
     52  OG1        7.8230  -48.8930   -5.0860 O.3   129  THR129     -0.2211
     53  CG2        7.7150  -46.6860   -4.0740 C.3   129  THR129      0.0376
     54  N          9.9550  -45.3990   -6.7800 N.am  130  PHE130     -0.1975
     55  CA        10.6040  -44.0870   -6.8680 C.3   130  PHE130      0.1639
     56  C         11.6960  -44.0950   -7.9210 C.2   130  PHE130      0.2290
     57  O         12.3110  -45.1330   -8.1870 O.2   130  PHE130     -0.2864
     58  CB        11.3210  -43.7270   -5.5610 C.3   130  PHE130      0.0560
     59  CG        10.4260  -43.2530   -4.4510 C.ar  130  PHE130     -0.0200
     60  CD1        9.9280  -41.9600   -4.4480 C.ar  130  PHE130     -0.0042
     61  CD2       10.1410  -44.0780   -3.3740 C.ar  130  PHE130     -0.0042
     62  CE1        9.1270  -41.5050   -3.4090 C.ar  130  PHE130     -0.0003
     63  CE2        9.3390  -43.6310   -2.3290 C.ar  130  PHE130     -0.0003
     64  CZ         8.8330  -42.3420   -2.3470 C.ar  130  PHE130     -0.0000
     65  N         15.4230  -39.7900   -5.3200 N.3   133  LEU133     -0.1245
     66  CA        14.4880  -38.9370   -4.5950 C.3   133  LEU133      0.1561
     67  C         14.8810  -37.4630   -4.5440 C.2   133  LEU133      0.2260
     68  O         14.0220  -36.5980   -4.3450 O.2   133  LEU133     -0.2867
     69  CB        14.1810  -39.4860   -3.1970 C.3   133  LEU133      0.0270
     70  CG        13.2500  -40.7060   -3.1870 C.3   133  LEU133      0.0019
     71  CD1       13.9840  -42.0120   -3.5140 C.3   133  LEU133      0.0001
     72  CD2       12.5510  -40.8060   -1.8470 C.3   133  LEU133      0.0001
     73  N         10.8500  -32.7890   -1.8270 N.3   139  VAL139     -0.1245
     74  CA        11.5560  -33.7900   -1.0380 C.3   139  VAL139      0.1561
     75  C         12.8230  -33.2060   -0.4110 C.2   139  VAL139      0.2260
     76  O         13.0560  -33.3460    0.7990 O.2   139  VAL139     -0.2867
     77  CB        11.9290  -35.0120   -1.8950 C.3   139  VAL139      0.0252
     78  CG1       12.7790  -35.9790   -1.0850 C.3   139  VAL139      0.0019
     79  CG2       10.6550  -35.6860   -2.4090 C.3   139  VAL139      0.0019
     80  N         11.8230  -30.8050    2.2190 N.3   142  HIS142     -0.1226
     81  CA        11.2740  -31.5920    3.3280 C.3   142  HIS142      0.1752
     82  C         12.4190  -32.0740    4.2240 C.2   142  HIS142      0.2595
     83  O         12.3690  -31.9350    5.4540 O.2   142  HIS142     -0.2718
     84  CB        10.4690  -32.7850    2.7740 C.3   142  HIS142      0.0759
     85  CG         9.8980  -33.7000    3.8240 C.ar  142  HIS142      0.0818
     86  ND1        8.5450  -33.7860    4.0820 N.ar  142  HIS142     -0.2268
     87  CD2       10.4940  -34.5890    4.6580 C.ar  142  HIS142      0.1154
     88  CE1        8.3330  -34.6820    5.0310 C.ar  142  HIS142      0.1986
     89  NE2        9.5010  -35.1820    5.4030 N.ar  142  HIS142     -0.2212
     90  N         13.4580  -32.6330    3.6090 N.am  143  GLU143     -0.1979
     91  CA        14.5800  -33.1590    4.3860 C.3   143  GLU143      0.1602
     92  C         15.3500  -32.0530    5.1110 C.2   143  GLU143      0.2287
     93  O         15.6590  -32.1810    6.3020 O.2   143  GLU143     -0.2864
     94  CB        15.5280  -33.9930    3.5110 C.3   143  GLU143      0.0415
     95  CG        14.8580  -35.1400    2.7380 C.3   143  GLU143      0.1163
     96  CD        13.9560  -36.0190    3.5930 C.2   143  GLU143      0.3649
     97  OE1       14.2120  -36.1600    4.8050 O.co2 143  GLU143     -0.2457
     98  OE2       12.9810  -36.5720    3.0410 O.co2 143  GLU143     -0.2457
     99  N         13.6600  -30.8410    8.2080 N.3   146  HIS146     -0.1241
    100  CA        13.8350  -31.6490    9.4130 C.3   146  HIS146      0.1621
    101  C         15.0060  -31.1070   10.2460 C.2   146  HIS146      0.2264
    102  O         14.9410  -31.0670   11.4740 O.2   146  HIS146     -0.2867
    103  CB        14.0630  -33.1260    9.0670 C.3   146  HIS146      0.0745
    104  CG        12.8010  -33.9020    8.8170 C.ar  146  HIS146      0.0817
    105  ND1       11.7440  -33.9180    9.7040 N.ar  146  HIS146     -0.2268
    106  CD2       12.4440  -34.7180    7.7950 C.ar  146  HIS146      0.1154
    107  CE1       10.7870  -34.6990    9.2350 C.ar  146  HIS146      0.1986
    108  NE2       11.1880  -35.2060    8.0820 N.ar  146  HIS146     -0.2212
    109  N         10.0970  -37.1290   17.4520 N.3   157  TYR157     -0.1241
    110  CA         9.6060  -37.8040   16.2450 C.3   157  TYR157      0.1605
    111  C          8.6760  -38.9800   16.5400 C.2   157  TYR157      0.2264
    112  O          8.9110  -40.1080   16.0910 O.2   157  TYR157     -0.2867
    113  CB        10.7790  -38.2510   15.3650 C.3   157  TYR157      0.0534
    114  CG        10.4380  -38.4270   13.9010 C.ar  157  TYR157     -0.0201
    115  CD1        9.9920  -37.3570   13.1370 C.ar  157  TYR157     -0.0009
    116  CD2       10.6040  -39.6600   13.2720 C.ar  157  TYR157     -0.0009
    117  CE1        9.7060  -37.5070   11.7910 C.ar  157  TYR157      0.0417
    118  CE2       10.3110  -39.8250   11.9230 C.ar  157  TYR157      0.0417
    119  CZ         9.8650  -38.7430   11.1910 C.ar  157  TYR157      0.1957
    120  OH         9.5810  -38.9000    9.8490 O.3   157  TYR157     -0.2866
    121  N          6.5400  -33.7670   10.9190 N.3   166  GLU166     -0.1245
    122  CA         6.3020  -34.1450    9.5250 C.3   166  GLU166      0.1567
    123  C          5.5640  -33.0670    8.7350 C.2   166  GLU166      0.2260
    124  O          5.9610  -32.7270    7.6230 O.2   166  GLU166     -0.2867
    125  CB         5.5320  -35.4630    9.4460 C.3   166  GLU166      0.0388
    126  CG         6.4460  -36.6730    9.4210 C.3   166  GLU166      0.1160
    127  CD         7.4150  -36.6110    8.2610 C.2   166  GLU166      0.3649
    128  OE1        6.9510  -36.4350    7.1160 O.co2 166  GLU166     -0.2457
    129  OE2        8.6330  -36.7210    8.4910 O.co2 166  GLU166     -0.2457
    130  N          2.9230  -34.0110   -2.3090 N.3   188  ILE188     -0.1245
    131  CA         4.2870  -34.3080   -1.8680 C.3   188  ILE188      0.1561
    132  C          4.9220  -35.4370   -2.6780 C.2   188  ILE188      0.2260
    133  O          4.3980  -36.5530   -2.7200 O.2   188  ILE188     -0.2867
    134  CB         4.3510  -34.6880   -0.3670 C.3   188  ILE188      0.0252
    135  CG1        3.6970  -33.6090    0.5090 C.3   188  ILE188      0.0019
    136  CG2        5.7980  -34.9510    0.0720 C.3   188  ILE188      0.0019
    137  CD1        4.3850  -32.2520    0.4640 C.3   188  ILE188      0.0001
    138  N          2.8280  -39.0210   -2.9360 N.3   202  LEU202     -0.1231
    139  CA         2.9290  -39.7350   -1.6670 C.3   202  LEU202      0.1693
    140  C          1.8700  -39.2850   -0.6790 C.2   202  LEU202      0.2591
    141  O          1.3330  -40.0950    0.0720 O.2   202  LEU202     -0.2718
    142  CB         4.2980  -39.5000   -1.0450 C.3   202  LEU202      0.0284
    143  CG         5.4840  -40.0420   -1.8250 C.3   202  LEU202      0.0019
    144  CD1        6.7540  -39.5150   -1.1930 C.3   202  LEU202      0.0001
    145  CD2        5.4500  -41.5580   -1.8070 C.3   202  LEU202      0.0001
    146  N          1.6200  -37.9790   -0.6640 N.am  203  ARG203     -0.1980
    147  CA         0.6490  -37.3540    0.2290 C.3   203  ARG203      0.1597
    148  C          0.0570  -36.1460   -0.4800 C.2   203  ARG203      0.2287
    149  O          0.6890  -35.5570   -1.3630 O.2   203  ARG203     -0.2864
    150  CB         1.3140  -36.8570    1.5120 C.3   203  ARG203      0.0334
    151  CG         1.8430  -37.9470    2.4140 C.3   203  ARG203      0.0492
    152  CD         2.4200  -37.3530    3.6870 C.3   203  ARG203      0.2205
    153  NE         3.7100  -36.6770    3.5310 N.pl3 203  ARG203     -0.0865
    154  CZ         4.8840  -37.3020    3.5120 C.cat 203  ARG203      0.5346
    155  NH1        4.9280  -38.6290    3.5630 N.pl3 203  ARG203      0.1354
    156  NH2        6.0130  -36.6050    3.4260 N.pl3 203  ARG203      0.1354
    157  N          4.7190  -46.5720   12.1750 N.3   226  ASP226     -0.1239
    158  CA         5.1690  -45.2760   11.6730 C.3   226  ASP226      0.1674
    159  C          5.3900  -44.2760   12.8160 C.2   226  ASP226      0.2266
    160  O          5.0040  -43.1050   12.7260 O.2   226  ASP226     -0.2867
    161  CB         4.1430  -44.7570   10.6480 C.3   226  ASP226      0.1410
    162  CG         4.5460  -43.4370    9.9970 C.2   226  ASP226      0.3668
    163  OD1        5.7500  -43.1960    9.7640 O.co2 226  ASP226     -0.2456
    164  OD2        3.6340  -42.6390    9.6940 O.co2 226  ASP226     -0.2456
    165  N          3.6790  -39.8530    9.6580 N.3   231  HIS231     -0.1241
    166  CA         3.4380  -39.5340    8.2400 C.3   231  HIS231      0.1621
    167  C          1.9590  -39.6440    7.8700 C.2   231  HIS231      0.2264
    168  O          1.5740  -39.3740    6.7280 O.2   231  HIS231     -0.2867
    169  CB         4.2490  -40.4440    7.2920 C.3   231  HIS231      0.0745
    170  CG         5.7340  -40.2990    7.4190 C.ar  231  HIS231      0.0817
    171  ND1        6.4940  -41.0900    8.2570 N.ar  231  HIS231     -0.2268
    172  CD2        6.6020  -39.4570    6.8080 C.ar  231  HIS231      0.1154
    173  CE1        7.7650  -40.7330    8.1660 C.ar  231  HIS231      0.1986
    174  NE2        7.8580  -39.7450    7.2900 N.ar  231  HIS231     -0.2212
@<TRIPOS>BOND
     1    57    56    2
     2    56    55    1
     3    47    48    1
     4    55    54    1
     5    55    58    1
     6    54    49   am
     7    49    48    1
     8    49    50    2
     9    48    51    1
    10    58    59    1
    11    65    66    1
    12    51    52    1
    13    51    53    1
    14    66    67    1
    15    66    69    1
    16    67    68    2
    17    59    60   ar
    18    59    61   ar
    19    60    62   ar
    20     7     6    2
    21    71    70    1
    22    62    64   ar
    23    61    63   ar
    24    69    70    1
    25    70    72    1
    26     6     8   am
    27     6     5    1
    28   138   139    1
    29   133   132    2
    30   132   131    1
    31    79    77    1
    32    64    63   ar
    33   130   131    1
    34    77    78    1
    35    77    74    1
    36   131   134    1
    37    73    74    1
    38   143   145    1
    39   143   144    1
    40   143   142    1
    41     5     2    1
    42   139   142    1
    43   139   140    1
    44     2     1    1
    45     2     3    1
    46   149   148    2
    47    74    75    1
    48   140   146   am
    49   140   141    2
    50   146   147    1
    51   148   147    1
    52    75    76    2
    53     3     9   am
    54     3     4    2
    55   134   136    1
    56   134   135    1
    57     9    10    1
    58    12    11    2
    59   147   150    1
    60   137   135    1
    61    11    10    1
    62    11    17   am
    63    10    13    1
    64    21    18    1
    65   150   151    1
    66    17    18    1
    67    18    19    1
    68    80    81    1
    69    13    14    1
    70   151   152    1
    71    95    94    1
    72    95    96    1
    73    84    81    1
    74    84    85    1
    75    15    14    2
    76    98    96   ar
    77    14    16   am
    78    81    82    1
    79    19    20    2
    80    19    22   am
    81   156   154    1
    82    94    91    1
    83   154   153    2
    84   154   155    1
    85   153   152    1
    86    96    97   ar
    87    90    82   am
    88    90    91    1
    89    85    86   ar
    90    85    87   ar
    91    22    23    1
    92    86    88   ar
    93    82    83    2
    94    91    92    1
    95    87    89   ar
    96    88    89   ar
    97    30    28   ar
    98    30    32   ar
    99    92    93    2
   100    25    24    2
   101    28    27   ar
   102    23    24    1
   103    23    26    1
   104    24    33   am
   105    32    31   ar
   106    27    26    1
   107    27    29   ar
   108   168   167    2
   109   172   174   ar
   110   172   170   ar
   111    33    34    1
   112    31    29   ar
   113   128   127   ar
   114   174   173   ar
   115   169   170    1
   116   169   166    1
   117   170   171   ar
   118    43    45   ar
   119    43    40   ar
   120    45    46   ar
   121   124   123    2
   122    34    37    1
   123    34    35    1
   124   106   108   ar
   125   106   104   ar
   126   167   166    1
   127   108   107   ar
   128   173   171   ar
   129    99   100    1
   130   166   165    1
   131   127   129   ar
   132   127   126    1
   133    37    38    1
   134   123   122    1
   135    46    44   ar
   136    40    38   ar
   137    40    42   ar
   138   104   103    1
   139   104   105   ar
   140    35    36    2
   141   103   100    1
   142    38    39   ar
   143   107   105   ar
   144   100   101    1
   145   126   125    1
   146   125   122    1
   147   122   121    1
   148   164   162   ar
   149   163   162   ar
   150   120   119    1
   151   162   161    1
   152    42    44   ar
   153    42    41   ar
   154   101   102    2
   155    39    41   ar
   156   161   158    1
   157   119   117   ar
   158   119   118   ar
   159   158   157    1
   160   158   159    1
   161   117   115   ar
   162   118   116   ar
   163   160   159    2
   164   115   114   ar
   165   116   114   ar
   166   114   113    1
   167   113   110    1
   168   112   111    2
   169   110   111    1
   170   110   109    1
