@<TRIPOS>MOLECULE
tmp/3t8gA00.pdb
 163 159 0 0 0
SMALL
GASTEIGER

@<TRIPOS>ATOM
      1  N         13.4440   44.0020    0.0680 N.3   112  ASN112     -0.1225
      2  CA        13.2470   42.9990   -0.9690 C.3   112  ASN112      0.1785
      3  C         14.3920   41.9960   -0.9840 C.2   112  ASN112      0.2597
      4  O         15.3800   42.1370   -0.2460 O.2   112  ASN112     -0.2718
      5  CB        13.1080   43.6850   -2.3440 C.3   112  ASN112      0.1169
      6  CG        12.0700   43.0180   -3.2480 C.2   112  ASN112      0.2627
      7  OD1       11.6910   41.8570   -3.0550 O.2   112  ASN112     -0.2716
      8  ND2       11.5940   43.7720   -4.2410 N.am  112  ASN112     -0.0877
      9  N         14.2270   40.9700   -1.8100 N.am  113  ALA113     -0.1966
     10  CA        15.2580   39.9710   -2.0510 C.3   113  ALA113      0.1728
     11  C         15.0930   39.5700   -3.5060 C.2   113  ALA113      0.2616
     12  O         14.0120   39.7540   -4.0790 O.2   113  ALA113     -0.2715
     13  CB        15.0630   38.7710   -1.1320 C.3   113  ALA113      0.0334
     14  N         16.1430   39.0420   -4.1230 N.am  114  PHE114     -0.1960
     15  CA        16.0610   38.6850   -5.5400 C.3   114  PHE114      0.1771
     16  C         17.1510   37.7170   -5.9620 C.2   114  PHE114      0.2619
     17  O         18.1340   37.5160   -5.2430 O.2   114  PHE114     -0.2715
     18  CB        16.0560   39.9320   -6.4640 C.3   114  PHE114      0.0574
     19  CG        17.2650   40.8410   -6.3260 C.ar  114  PHE114     -0.0200
     20  CD1       17.3200   41.8000   -5.3160 C.ar  114  PHE114     -0.0042
     21  CD2       18.3070   40.7860   -7.2430 C.ar  114  PHE114     -0.0042
     22  CE1       18.4040   42.6700   -5.2030 C.ar  114  PHE114     -0.0003
     23  CE2       19.3970   41.6520   -7.1340 C.ar  114  PHE114     -0.0003
     24  CZ        19.4370   42.5990   -6.1150 C.ar  114  PHE114     -0.0000
     25  N         16.9350   37.0980   -7.1190 N.am  115  TRP115     -0.1974
     26  CA        17.9530   36.3360   -7.8280 C.3   115  TRP115      0.1640
     27  C         18.4420   37.2330   -8.9650 C.2   115  TRP115      0.2290
     28  O         17.6450   37.6950   -9.7750 O.2   115  TRP115     -0.2864
     29  CB        17.3490   35.0360   -8.3590 C.3   115  TRP115      0.0576
     30  CG        18.2570   34.2780   -9.2750 C.ar  115  TRP115      0.0006
     31  CD1       18.2360   34.2910  -10.6410 C.ar  115  TRP115      0.0946
     32  CD2       19.3240   33.3880   -8.8990 C.ar  115  TRP115      0.0152
     33  NE1       19.2270   33.4690  -11.1390 N.ar  115  TRP115     -0.2442
     34  CE2       19.9050   32.9010  -10.0930 C.ar  115  TRP115      0.0810
     35  CE3       19.8380   32.9500   -7.6720 C.ar  115  TRP115      0.0012
     36  CZ2       20.9850   32.0050  -10.0950 C.ar  115  TRP115      0.0191
     37  CZ3       20.9020   32.0500   -7.6780 C.ar  115  TRP115      0.0001
     38  CH2       21.4630   31.5930   -8.8780 C.ar  115  TRP115      0.0015
     39  N          9.8070   45.2550    6.5180 N.3   130  PHE130     -0.1241
     40  CA        10.4840   43.9600    6.6330 C.3   130  PHE130      0.1605
     41  C         11.5930   44.0250    7.6620 C.2   130  PHE130      0.2264
     42  O         12.1940   45.0840    7.8710 O.2   130  PHE130     -0.2867
     43  CB        11.1600   43.5670    5.3120 C.3   130  PHE130      0.0534
     44  CG        10.2310   43.0190    4.2610 C.ar  130  PHE130     -0.0203
     45  CD1        9.8140   41.6890    4.2990 C.ar  130  PHE130     -0.0042
     46  CD2        9.8240   43.8140    3.2000 C.ar  130  PHE130     -0.0042
     47  CE1        8.9820   41.1720    3.3110 C.ar  130  PHE130     -0.0003
     48  CE2        8.9930   43.2980    2.2040 C.ar  130  PHE130     -0.0003
     49  CZ         8.5780   41.9800    2.2650 C.ar  130  PHE130     -0.0000
     50  N         15.3930   39.6860    5.2130 N.3   133  LEU133     -0.1245
     51  CA        14.4400   38.8380    4.5040 C.3   133  LEU133      0.1561
     52  C         14.8300   37.3690    4.4780 C.2   133  LEU133      0.2260
     53  O         13.9710   36.5110    4.2980 O.2   133  LEU133     -0.2867
     54  CB        14.1610   39.3660    3.0920 C.3   133  LEU133      0.0270
     55  CG        13.2090   40.5710    3.0570 C.3   133  LEU133      0.0019
     56  CD1       13.9460   41.8930    3.2870 C.3   133  LEU133      0.0001
     57  CD2       12.4520   40.5940    1.7450 C.3   133  LEU133      0.0001
     58  N         10.8580   32.6730    1.7800 N.3   139  VAL139     -0.1245
     59  CA        11.5530   33.6890    0.9860 C.3   139  VAL139      0.1561
     60  C         12.8250   33.1230    0.3540 C.2   139  VAL139      0.2260
     61  O         13.0560   33.2740   -0.8490 O.2   139  VAL139     -0.2867
     62  CB        11.9020   34.9430    1.8240 C.3   139  VAL139      0.0252
     63  CG1       12.7060   35.9320    0.9830 C.3   139  VAL139      0.0019
     64  CG2       10.6240   35.5830    2.3670 C.3   139  VAL139      0.0019
     65  N         11.8560   30.7340   -2.2610 N.3   142  HIS142     -0.1226
     66  CA        11.2980   31.4960   -3.3800 C.3   142  HIS142      0.1752
     67  C         12.4350   31.9850   -4.2810 C.2   142  HIS142      0.2595
     68  O         12.3890   31.8210   -5.5120 O.2   142  HIS142     -0.2718
     69  CB        10.4710   32.6720   -2.8300 C.3   142  HIS142      0.0759
     70  CG         9.9020   33.5890   -3.8780 C.ar  142  HIS142      0.0818
     71  ND1        8.5510   33.6720   -4.1430 N.ar  142  HIS142     -0.2268
     72  CD2       10.5000   34.5010   -4.6840 C.ar  142  HIS142      0.1154
     73  CE1        8.3430   34.5730   -5.0870 C.ar  142  HIS142      0.1986
     74  NE2        9.5100   35.0960   -5.4310 N.ar  142  HIS142     -0.2212
     75  N         13.4680   32.5680   -3.6760 N.am  143  GLU143     -0.1979
     76  CA        14.5860   33.0870   -4.4670 C.3   143  GLU143      0.1602
     77  C         15.3620   31.9820   -5.1910 C.2   143  GLU143      0.2287
     78  O         15.6730   32.1140   -6.3810 O.2   143  GLU143     -0.2864
     79  CB        15.5450   33.9290   -3.6200 C.3   143  GLU143      0.0415
     80  CG        14.8950   35.0730   -2.8210 C.3   143  GLU143      0.1163
     81  CD        13.9630   35.9440   -3.6380 C.2   143  GLU143      0.3649
     82  OE1       14.1600   36.0770   -4.8610 O.co2 143  GLU143     -0.2457
     83  OE2       13.0240   36.4940   -3.0320 O.co2 143  GLU143     -0.2457
     84  N         13.6470   30.7550   -8.2740 N.3   146  HIS146     -0.1241
     85  CA        13.8370   31.5580   -9.4790 C.3   146  HIS146      0.1621
     86  C         15.0120   31.0130  -10.3010 C.2   146  HIS146      0.2264
     87  O         14.9520   30.9880  -11.5310 O.2   146  HIS146     -0.2867
     88  CB        14.0730   33.0320   -9.1340 C.3   146  HIS146      0.0745
     89  CG        12.8210   33.8120   -8.8770 C.ar  146  HIS146      0.0817
     90  ND1       11.7660   33.8430   -9.7650 N.ar  146  HIS146     -0.2268
     91  CD2       12.4650   34.6060   -7.8410 C.ar  146  HIS146      0.1154
     92  CE1       10.8120   34.6230   -9.2850 C.ar  146  HIS146      0.1986
     93  NE2       11.2140   35.1050   -8.1220 N.ar  146  HIS146     -0.2212
     94  N         10.0950   37.0670  -17.4980 N.3   157  TYR157     -0.1241
     95  CA         9.5890   37.7580  -16.3010 C.3   157  TYR157      0.1605
     96  C          8.6590   38.9400  -16.5930 C.2   157  TYR157      0.2264
     97  O          8.8780   40.0660  -16.1300 O.2   157  TYR157     -0.2867
     98  CB        10.7620   38.1920  -15.4120 C.3   157  TYR157      0.0534
     99  CG        10.4290   38.3660  -13.9440 C.ar  157  TYR157     -0.0201
    100  CD1       10.0090   37.2970  -13.1750 C.ar  157  TYR157     -0.0009
    101  CD2       10.5750   39.6000  -13.3220 C.ar  157  TYR157     -0.0009
    102  CE1        9.7400   37.4490  -11.8260 C.ar  157  TYR157      0.0417
    103  CE2       10.2960   39.7680  -11.9660 C.ar  157  TYR157      0.0417
    104  CZ         9.8810   38.6830  -11.2290 C.ar  157  TYR157      0.1957
    105  OH         9.6090   38.8410   -9.8870 O.3   157  TYR157     -0.2866
    106  N          6.5360   33.7160  -10.9640 N.3   166  GLU166     -0.1245
    107  CA         6.2930   34.0870   -9.5720 C.3   166  GLU166      0.1567
    108  C          5.5420   33.0170   -8.7760 C.2   166  GLU166      0.2260
    109  O          5.9220   32.7030   -7.6460 O.2   166  GLU166     -0.2867
    110  CB         5.5280   35.4110   -9.5000 C.3   166  GLU166      0.0388
    111  CG         6.4580   36.6110   -9.4810 C.3   166  GLU166      0.1160
    112  CD         7.4210   36.5230   -8.3270 C.2   166  GLU166      0.3649
    113  OE1        6.9430   36.3460   -7.1890 O.co2 166  GLU166     -0.2457
    114  OE2        8.6450   36.6070   -8.5530 O.co2 166  GLU166     -0.2457
    115  N          2.9220   33.9140    2.2920 N.3   188  ILE188     -0.1231
    116  CA         4.2770   34.2040    1.8210 C.3   188  ILE188      0.1692
    117  C          4.9160   35.3340    2.6240 C.2   188  ILE188      0.2592
    118  O          4.3920   36.4570    2.6540 O.2   188  ILE188     -0.2718
    119  CB         4.2980   34.6090    0.3310 C.3   188  ILE188      0.0266
    120  CG1        3.6490   33.5290   -0.5450 C.3   188  ILE188      0.0019
    121  CG2        5.7260   34.9110   -0.1220 C.3   188  ILE188      0.0020
    122  CD1        4.3390   32.1760   -0.4920 C.3   188  ILE188      0.0001
    123  N          6.0460   35.0310    3.2670 N.am  189  GLY189     -0.1957
    124  CA         6.8700   36.0420    3.9150 C.3   189  GLY189      0.1869
    125  C          6.4450   36.4660    5.3120 C.2   189  GLY189      0.2309
    126  O          7.0090   37.4220    5.8650 O.2   189  GLY189     -0.2863
    127  N          2.9500   39.0480    3.0450 N.3   202  LEU202     -0.1231
    128  CA         3.0870   39.7870    1.7990 C.3   202  LEU202      0.1693
    129  C          2.0590   39.3330    0.7760 C.2   202  LEU202      0.2591
    130  O          1.4580   40.1590    0.0800 O.2   202  LEU202     -0.2718
    131  CB         4.4990   39.6120    1.2470 C.3   202  LEU202      0.0284
    132  CG         4.8270   40.3850   -0.0250 C.3   202  LEU202      0.0019
    133  CD1        4.7850   41.8910    0.2190 C.3   202  LEU202      0.0001
    134  CD2        6.1920   39.9610   -0.5580 C.3   202  LEU202      0.0001
    135  N          1.8620   38.0180    0.6940 N.am  203  ARG203     -0.1980
    136  CA         0.8420   37.4260   -0.1670 C.3   203  ARG203      0.1597
    137  C          0.2190   36.2440    0.5510 C.2   203  ARG203      0.2287
    138  O          0.8030   35.7020    1.4920 O.2   203  ARG203     -0.2864
    139  CB         1.4430   36.9120   -1.4770 C.3   203  ARG203      0.0334
    140  CG         1.8960   37.9940   -2.4300 C.3   203  ARG203      0.0492
    141  CD         2.4390   37.3860   -3.7170 C.3   203  ARG203      0.2205
    142  NE         3.7250   36.6930   -3.5900 N.pl3 203  ARG203     -0.0865
    143  CZ         4.9110   37.2970   -3.5720 C.cat 203  ARG203      0.5346
    144  NH1        4.9940   38.6210   -3.6160 N.pl3 203  ARG203      0.1354
    145  NH2        6.0240   36.5660   -3.5150 N.pl3 203  ARG203      0.1354
    146  N          4.7460   46.5300  -12.1660 N.3   226  ASP226     -0.1239
    147  CA         5.1890   45.2260  -11.6660 C.3   226  ASP226      0.1674
    148  C          5.3960   44.2320  -12.8130 C.2   226  ASP226      0.2266
    149  O          5.0180   43.0570  -12.7290 O.2   226  ASP226     -0.2867
    150  CB         4.1670   44.7110  -10.6360 C.3   226  ASP226      0.1410
    151  CG         4.5740   43.3920   -9.9910 C.2   226  ASP226      0.3668
    152  OD1        5.7770   43.1810   -9.7320 O.co2 226  ASP226     -0.2456
    153  OD2        3.6730   42.5730   -9.7260 O.co2 226  ASP226     -0.2456
    154  N          3.6860   39.8040   -9.6500 N.3   231  HIS231     -0.1241
    155  CA         3.4400   39.4810   -8.2450 C.3   231  HIS231      0.1621
    156  C          1.9740   39.6180   -7.8740 C.2   231  HIS231      0.2264
    157  O          1.5960   39.3740   -6.7250 O.2   231  HIS231     -0.2867
    158  CB         4.2590   40.3900   -7.3130 C.3   231  HIS231      0.0745
    159  CG         5.7400   40.2240   -7.4470 C.ar  231  HIS231      0.0817
    160  ND1        6.5080   41.0310   -8.2610 N.ar  231  HIS231     -0.2268
    161  CD2        6.5970   39.3490   -6.8660 C.ar  231  HIS231      0.1154
    162  CE1        7.7750   40.6520   -8.1830 C.ar  231  HIS231      0.1986
    163  NE2        7.8550   39.6370   -7.3380 N.ar  231  HIS231     -0.2212
@<TRIPOS>BOND
     1    94    95    1
     2    96    95    1
     3    96    97    2
     4    95    98    1
     5    98    99    1
     6    99   101   ar
     7    99   100   ar
     8   101   103   ar
     9   100   102   ar
    10   148   149    2
    11   148   147    1
    12   146   147    1
    13   103   104   ar
    14   102   104   ar
    15   147   150    1
    16    87    86    2
    17   104   105    1
    18    33    31   ar
    19    33    34   ar
    20   106   107    1
    21    31    30   ar
    22   150   151    1
    23    86    85    1
    24    36    34   ar
    25    36    38   ar
    26    34    32   ar
    27   151   152   ar
    28   151   153   ar
    29    28    27    2
    30    90    92   ar
    31    90    89   ar
    32   154   155    1
    33   107   110    1
    34   107   108    1
    35   110   111    1
    36   111   112    1
    37    85    88    1
    38    85    84    1
    39    92    93   ar
    40    30    32   ar
    41    30    29    1
    42    88    89    1
    43    27    26    1
    44    32    35   ar
    45    38    37   ar
    46    89    91   ar
    47   108   109    2
    48   114   112   ar
    49    29    26    1
    50   112   113   ar
    51   160   162   ar
    52   160   159   ar
    53   155   156    1
    54   155   158    1
    55   162   163   ar
    56    93    91   ar
    57   156   157    2
    58    26    25    1
    59    37    35   ar
    60   159   158    1
    61   159   161   ar
    62   163   161   ar
    63    21    23   ar
    64    21    19   ar
    65    23    24   ar
    66    25    16   am
    67    18    19    1
    68    18    15    1
    69    78    77    2
    70    19    20   ar
    71    24    22   ar
    72    16    15    1
    73    16    17    2
    74    15    14    1
    75    68    67    2
    76    74    73   ar
    77    74    72   ar
    78    20    22   ar
    79    77    76    1
    80    73    71   ar
    81    82    81   ar
    82    72    70   ar
    83    76    75    1
    84    76    79    1
    85    67    75   am
    86    67    66    1
    87     8     6   am
    88    71    70   ar
    89    14    11   am
    90    12    11    2
    91    70    69    1
    92   141   142    1
    93   141   140    1
    94    81    83   ar
    95    81    80    1
    96    79    80    1
    97   144   143    1
    98   142   143    2
    99   143   145    1
   100    11    10    1
   101    66    69    1
   102    66    65    1
   103     6     7    2
   104     6     5    1
   105   140   139    1
   106     5     2    1
   107    10     9    1
   108    10    13    1
   109     9     3   am
   110   139   136    1
   111     3     2    1
   112     3     4    2
   113     2     1    1
   114    61    60    2
   115   134   132    1
   116   120   122    1
   117   120   119    1
   118   136   137    1
   119   136   135    1
   120   121   119    1
   121   132   133    1
   122   132   131    1
   123   130   129    2
   124   119   116    1
   125    60    59    1
   126   137   138    2
   127   135   129   am
   128   129   128    1
   129    63    62    1
   130    59    58    1
   131    59    62    1
   132   131   128    1
   133    57    55    1
   134   128   127    1
   135   116   115    1
   136   116   117    1
   137    62    64    1
   138    48    49   ar
   139    48    46   ar
   140    49    47   ar
   141   117   118    2
   142   117   123   am
   143    55    54    1
   144    55    56    1
   145    54    51    1
   146    46    44   ar
   147   123   124    1
   148    47    45   ar
   149   124   125    1
   150    44    45   ar
   151    44    43    1
   152    53    52    2
   153    52    51    1
   154    51    50    1
   155    43    40    1
   156   125   126    2
   157    39    40    1
   158    40    41    1
   159    41    42    2
