@<TRIPOS>MOLECULE
tmp/3t8mA00.pdb
 213 204 0 0 0
SMALL
GASTEIGER

@<TRIPOS>ATOM
      1  N         18.7750   64.1760   12.0640 N.3   567  MET567     -0.1230
      2  CA        19.0410   65.1100   13.1490 C.3   567  MET567      0.1702
      3  C         19.9160   66.2640   12.6790 C.2   567  MET567      0.2592
      4  O         20.7570   66.0790   11.8090 O.2   567  MET567     -0.2718
      5  CB        19.6680   64.3620   14.3170 C.3   567  MET567      0.0401
      6  CG        18.7400   63.2580   14.8200 C.3   567  MET567      0.0596
      7  SD        19.2300   62.5910   16.3940 S.3   567  MET567     -0.1393
      8  CE        20.2320   61.3090   15.7210 C.3   567  MET567      0.0692
      9  N         19.7620   67.4330   13.2820 N.am  568  ALA568     -0.1966
     10  CA        20.5460   68.5590   12.8120 C.3   568  ALA568      0.1728
     11  C         21.8410   68.7040   13.5850 C.2   568  ALA568      0.2616
     12  O         21.8910   69.3380   14.6290 O.2   568  ALA568     -0.2715
     13  CB        19.7240   69.8070   13.0570 C.3   568  ALA568      0.0334
     14  N         22.8900   68.1010   13.0300 N.am  569  SER569     -0.1950
     15  CA        24.2360   68.1580   13.5980 C.3   569  SER569      0.1924
     16  C         25.2380   68.0400   12.4360 C.2   569  SER569      0.2314
     17  O         24.8260   67.7590   11.3140 O.2   569  SER569     -0.2863
     18  CB        24.4390   67.0650   14.6690 C.3   569  SER569      0.2116
     19  OG        24.0200   65.7710   14.2530 O.3   569  SER569     -0.2180
     20  N         23.0560   61.9580   11.4810 N.3   573  PRO573     -0.2116
     21  CA        22.5270   60.6760   11.9480 C.3   573  PRO573      0.1372
     22  C         21.0160   60.5740   11.8040 C.2   573  PRO573      0.2244
     23  O         20.3030   61.5700   11.9210 O.2   573  PRO573     -0.2868
     24  CB        22.9350   60.6790   13.4260 C.3   573  PRO573      0.0268
     25  CG        22.8760   62.1130   13.8150 C.3   573  PRO573      0.0207
     26  CD        23.4030   62.8500   12.6070 C.3   573  PRO573      0.0892
     27  N         17.2040   59.4210   12.8780 N.3   575  TRP575     -0.1241
     28  CA        16.3660   59.3030   14.0680 C.3   575  TRP575      0.1605
     29  C         15.2740   58.3830   13.6000 C.2   575  TRP575      0.2264
     30  O         14.4210   58.7710   12.8040 O.2   575  TRP575     -0.2867
     31  CB        15.8040   60.6890   14.4490 C.3   575  TRP575      0.0550
     32  CG        14.6680   60.6470   15.4630 C.ar  575  TRP575      0.0003
     33  CD1       13.3880   60.2210   15.2370 C.ar  575  TRP575      0.0946
     34  CD2       14.7050   61.0770   16.8260 C.ar  575  TRP575      0.0152
     35  NE1       12.6370   60.3400   16.3720 N.ar  575  TRP575     -0.2442
     36  CE2       13.4180   60.8670   17.3670 C.ar  575  TRP575      0.0810
     37  CE3       15.6920   61.6280   17.6370 C.ar  575  TRP575      0.0012
     38  CZ2       13.1010   61.1630   18.6980 C.ar  575  TRP575      0.0191
     39  CZ3       15.3850   61.9110   18.9560 C.ar  575  TRP575      0.0001
     40  CH2       14.0960   61.6860   19.4740 C.ar  575  TRP575      0.0015
     41  N         18.8320   55.7580   17.2040 N.3   594  ILE594     -0.1245
     42  CA        19.5720   56.6890   16.3860 C.3   594  ILE594      0.1561
     43  C         20.5940   55.8010   15.6930 C.2   594  ILE594      0.2260
     44  O         21.3130   55.0490   16.3360 O.2   594  ILE594     -0.2867
     45  CB        20.2840   57.7540   17.2560 C.3   594  ILE594      0.0252
     46  CG1       19.2980   58.8430   17.7130 C.3   594  ILE594      0.0019
     47  CG2       21.4700   58.3720   16.5200 C.3   594  ILE594      0.0019
     48  CD1       19.6660   59.5270   18.9910 C.3   594  ILE594      0.0001
     49  N         23.9530   56.0310   13.3640 N.3   596  LYS596     -0.1245
     50  CA        24.9190   57.0480   12.9420 C.3   596  LYS596      0.1561
     51  C         26.1130   56.4820   12.1950 C.2   596  LYS596      0.2260
     52  O         26.6930   55.4950   12.6130 O.2   596  LYS596     -0.2867
     53  CB        25.3850   57.8780   14.1530 C.3   596  LYS596      0.0271
     54  CG        26.4860   58.8880   13.8970 C.3   596  LYS596      0.0035
     55  CD        26.5380   59.9430   14.9970 C.3   596  LYS596      0.0206
     56  CE        27.5070   61.0660   14.6210 C.3   596  LYS596      0.1093
     57  NZ        27.5880   62.2230   15.5810 N.3   596  LYS596     -0.1314
     58  N         31.4190   57.9350   12.7620 N.3   599  ASP599     -0.1239
     59  CA        32.0560   57.9490   14.0610 C.3   599  ASP599      0.1674
     60  C         32.2870   56.5410   14.5580 C.2   599  ASP599      0.2266
     61  O         31.6380   55.5960   14.0850 O.2   599  ASP599     -0.2867
     62  CB        31.2230   58.7480   15.0800 C.3   599  ASP599      0.1410
     63  CG        31.3150   60.2750   14.8620 C.2   599  ASP599      0.3668
     64  OD1       32.1610   60.7410   14.0540 O.co2 599  ASP599     -0.2456
     65  OD2       30.5700   61.0150   15.5460 O.co2 599  ASP599     -0.2456
     66  N         32.5390   55.3650   23.0300 N.3   604  ASP604     -0.1239
     67  CA        31.3250   55.5110   23.8190 C.3   604  ASP604      0.1674
     68  C         30.8920   54.2250   24.4850 C.2   604  ASP604      0.2266
     69  O         30.6570   54.2960   25.7020 O.2   604  ASP604     -0.2867
     70  CB        30.1730   56.0600   22.9850 C.3   604  ASP604      0.1410
     71  CG        30.4610   57.4980   22.4600 C.2   604  ASP604      0.3668
     72  OD1       31.4640   57.6640   21.7280 O.co2 604  ASP604     -0.2456
     73  OD2       29.7280   58.4540   22.8290 O.co2 604  ASP604     -0.2456
     74  N         22.6860   54.9050   28.6930 N.3   630  TYR630     -0.1241
     75  CA        21.7990   54.5520   27.6270 C.3   630  TYR630      0.1605
     76  C         22.4770   53.5080   26.7200 C.2   630  TYR630      0.2264
     77  O         23.7010   53.4330   26.6490 O.2   630  TYR630     -0.2867
     78  CB        21.4010   55.8420   26.8860 C.3   630  TYR630      0.0534
     79  CG        22.5800   56.6510   26.4260 C.ar  630  TYR630     -0.0201
     80  CD1       23.2100   56.3460   25.2330 C.ar  630  TYR630     -0.0009
     81  CD2       23.1450   57.6630   27.2380 C.ar  630  TYR630     -0.0009
     82  CE1       24.3330   57.0560   24.7890 C.ar  630  TYR630      0.0417
     83  CE2       24.3080   58.4060   26.7960 C.ar  630  TYR630      0.0417
     84  CZ        24.8840   58.0830   25.5780 C.ar  630  TYR630      0.1957
     85  OH        26.0080   58.7640   25.0950 O.3   630  TYR630     -0.2866
     86  N         22.3440   53.8620   18.9140 N.3   642  ILE642     -0.1231
     87  CA        22.2750   54.5670   20.1710 C.3   642  ILE642      0.1692
     88  C         20.8010   54.5570   20.5360 C.2   642  ILE642      0.2592
     89  O         19.9190   54.7640   19.6770 O.2   642  ILE642     -0.2718
     90  CB        22.7690   56.0080   20.0650 C.3   642  ILE642      0.0266
     91  CG1       24.2410   56.0330   19.6260 C.3   642  ILE642      0.0019
     92  CG2       22.5590   56.7230   21.3860 C.3   642  ILE642      0.0020
     93  CD1       24.7770   57.4300   19.3560 C.3   642  ILE642      0.0001
     94  N         20.5400   54.3240   21.8100 N.am  643  GLU643     -0.1966
     95  CA        19.1920   54.3000   22.3340 C.3   643  GLU643      0.1733
     96  C         18.6710   55.7250   22.4070 C.2   643  GLU643      0.2616
     97  O         19.4060   56.6280   22.8150 O.2   643  GLU643     -0.2715
     98  CB        19.1730   53.7110   23.7230 C.3   643  GLU643      0.0429
     99  CG        17.8760   53.9010   24.4320 C.3   643  GLU643      0.1163
    100  CD        17.8780   53.2730   25.8010 C.2   643  GLU643      0.3649
    101  OE1       16.8030   53.2730   26.4580 O.co2 643  GLU643     -0.2457
    102  OE2       18.9630   52.8240   26.2610 O.co2 643  GLU643     -0.2457
    103  N         17.4160   55.9430   22.0650 N.am  644  ILE644     -0.1963
    104  CA        16.8640   57.2690   22.2350 C.3   644  ILE644      0.1727
    105  C         16.1460   57.2640   23.5780 C.2   644  ILE644      0.2616
    106  O         15.1370   56.5690   23.7560 O.2   644  ILE644     -0.2715
    107  CB        15.8430   57.6200   21.1830 C.3   644  ILE644      0.0290
    108  CG1       16.5190   57.9360   19.8640 C.3   644  ILE644      0.0022
    109  CG2       14.9900   58.7790   21.6780 C.3   644  ILE644      0.0023
    110  CD1       15.5480   58.2180   18.7600 C.3   644  ILE644      0.0001
    111  N         16.6580   58.0320   24.5280 N.am  645  VAL645     -0.1963
    112  CA        16.0220   58.0900   25.8130 C.3   645  VAL645      0.1727
    113  C         14.7820   58.9480   25.6610 C.2   645  VAL645      0.2616
    114  O         14.8400   60.0860   25.1640 O.2   645  VAL645     -0.2715
    115  CB        16.9360   58.7240   26.8480 C.3   645  VAL645      0.0290
    116  CG1       16.1910   58.9230   28.1660 C.3   645  VAL645      0.0023
    117  CG2       18.1600   57.8530   27.0300 C.3   645  VAL645      0.0023
    118  N         13.6480   58.3560   26.0200 N.am  646  LYS646     -0.1963
    119  CA        12.3550   59.0100   25.9190 C.3   646  LYS646      0.1728
    120  C         12.2170   60.2230   26.8560 C.2   646  LYS646      0.2616
    121  O         12.8100   60.2540   27.9320 O.2   646  LYS646     -0.2715
    122  CB        11.2370   57.9780   26.1660 C.3   646  LYS646      0.0311
    123  CG        10.5380   57.4430   24.8850 C.3   646  LYS646      0.0038
    124  CD        11.5180   57.0870   23.7610 C.3   646  LYS646      0.0206
    125  CE        10.8240   56.6180   22.4800 C.3   646  LYS646      0.1093
    126  NZ        10.2650   57.7690   21.7180 N.3   646  LYS646     -0.1314
    127  N         11.5100   61.2510   26.3930 N.am  647  ASP647     -0.1957
    128  CA        11.2500   62.4580   27.1900 C.3   647  ASP647      0.1840
    129  C         12.4790   63.1370   27.7540 C.2   647  ASP647      0.2622
    130  O         12.4740   63.6120   28.8870 O.2   647  ASP647     -0.2715
    131  CB        10.2890   62.1120   28.3450 C.3   647  ASP647      0.1450
    132  CG         8.8540   61.9410   27.9020 C.2   647  ASP647      0.3671
    133  OD1        8.4180   62.6160   26.9320 O.co2 647  ASP647     -0.2456
    134  OD2        8.1950   61.0510   28.4930 O.co2 647  ASP647     -0.2456
    135  N         13.4460   63.3610   26.8980 N.am  648  ALA648     -0.1963
    136  CA        14.7330   63.8900   27.3220 C.3   648  ALA648      0.1728
    137  C         15.1290   65.0820   26.4620 C.2   648  ALA648      0.2617
    138  O         14.8560   65.0890   25.2570 O.2   648  ALA648     -0.2715
    139  CB        15.7990   62.8080   27.2880 C.3   648  ALA648      0.0334
    140  N         15.8030   66.0710   27.0420 N.am  649  THR649     -0.1937
    141  CA        16.2730   67.1850   26.2240 C.3   649  THR649      0.2028
    142  C         17.6930   67.5600   26.6130 C.2   649  THR649      0.2642
    143  O         18.1880   67.2060   27.6730 O.2   649  THR649     -0.2714
    144  CB        15.3790   68.4880   26.3770 C.3   649  THR649      0.1808
    145  OG1       13.9890   68.1760   26.5270 O.3   649  THR649     -0.2208
    146  CG2       15.5900   69.4520   25.2190 C.3   649  THR649      0.0379
    147  N         18.3250   68.3390   25.7600 N.am  650  THR650     -0.1950
    148  CA        19.6670   68.8050   25.9990 C.3   650  THR650      0.1897
    149  C         19.5960   70.0040   26.8980 C.2   650  THR650      0.2313
    150  O         18.6130   70.7480   26.8710 O.2   650  THR650     -0.2863
    151  CB        20.3370   69.1700   24.6860 C.3   650  THR650      0.1794
    152  OG1       20.4650   67.9820   23.8930 O.3   650  THR650     -0.2208
    153  CG2       21.7190   69.6860   24.9400 C.3   650  THR650      0.0378
    154  N         19.6780   73.0750   24.6310 N.3   653  LYS653     -0.1245
    155  CA        18.4480   73.3890   23.8840 C.3   653  LYS653      0.1561
    156  C         17.4860   74.1490   24.8060 C.2   653  LYS653      0.2260
    157  O         16.7520   75.0420   24.3400 O.2   653  LYS653     -0.2867
    158  CB        17.7810   72.1220   23.3420 C.3   653  LYS653      0.0271
    159  CG        16.5430   72.4280   22.4850 C.3   653  LYS653      0.0035
    160  CD        15.7510   71.1720   22.1350 C.3   653  LYS653      0.0206
    161  CE        14.5670   71.4940   21.2260 C.3   653  LYS653      0.1093
    162  NZ        13.8680   70.2440   20.8130 N.3   653  LYS653     -0.1314
    163  N         25.9750   71.1360   25.3840 N.3   713  ASP713     -0.1225
    164  CA        25.2890   70.4030   24.3150 C.3   713  ASP713      0.1805
    165  C         25.5140   68.8700   24.4160 C.2   713  ASP713      0.2597
    166  O         24.8070   68.0830   23.7860 O.2   713  ASP713     -0.2718
    167  CB        25.7680   70.9530   22.9600 C.3   713  ASP713      0.1424
    168  CG        24.8200   70.6490   21.8220 C.2   713  ASP713      0.3668
    169  OD1       23.6000   70.8930   21.9720 O.co2 713  ASP713     -0.2456
    170  OD2       25.3020   70.1830   20.7660 O.co2 713  ASP713     -0.2456
    171  N         26.4840   68.4840   25.2470 N.am  714  ASN714     -0.1974
    172  CA        26.8680   67.1090   25.5130 C.3   714  ASN714      0.1688
    173  C         26.2430   66.5420   26.8210 C.2   714  ASN714      0.2292
    174  O         26.6070   65.4480   27.2660 O.2   714  ASN714     -0.2864
    175  CB        28.4060   66.9050   25.4220 C.3   714  ASN714      0.1181
    176  CG        29.0010   67.2770   24.0310 C.2   714  ASN714      0.2629
    177  OD1       28.4060   66.9460   22.9890 O.2   714  ASN714     -0.2716
    178  ND2       30.2220   67.8670   24.0190 N.am  714  ASN714     -0.0877
    179  N         22.4420   65.8640   28.9100 N.3   716  MET716     -0.1245
    180  CA        20.9930   65.9110   28.8270 C.3   716  MET716      0.1570
    181  C         20.2740   65.7240   30.1690 C.2   716  MET716      0.2261
    182  O         20.8820   65.4660   31.2230 O.2   716  MET716     -0.2867
    183  CB        20.5140   64.8600   27.8150 C.3   716  MET716      0.0387
    184  CG        21.0330   65.1130   26.4140 C.3   716  MET716      0.0595
    185  SD        20.4540   63.9090   25.2170 S.3   716  MET716     -0.1393
    186  CE        18.7220   64.3800   25.1510 C.3   716  MET716      0.0692
    187  N         22.0590   63.3010   32.7010 N.3   724  PHE724     -0.1241
    188  CA        22.9820   62.3140   32.1280 C.3   724  PHE724      0.1605
    189  C         23.8340   62.8440   30.9880 C.2   724  PHE724      0.2264
    190  O         23.4140   63.7380   30.2810 O.2   724  PHE724     -0.2867
    191  CB        22.2240   61.0410   31.7250 C.3   724  PHE724      0.0534
    192  CG        21.3460   61.1750   30.5020 C.ar  724  PHE724     -0.0203
    193  CD1       21.7680   60.7180   29.2740 C.ar  724  PHE724     -0.0042
    194  CD2       20.0980   61.7560   30.5790 C.ar  724  PHE724     -0.0042
    195  CE1       20.9490   60.8330   28.1440 C.ar  724  PHE724     -0.0003
    196  CE2       19.2770   61.8740   29.4450 C.ar  724  PHE724     -0.0003
    197  CZ        19.7120   61.4130   28.2320 C.ar  724  PHE724     -0.0000
    198  N         26.2670   62.5900   27.4220 N.3   726  ILE726     -0.1231
    199  CA        26.2170   61.8960   26.1410 C.3   726  ILE726      0.1692
    200  C         27.4470   62.1850   25.2780 C.2   726  ILE726      0.2592
    201  O         28.3380   62.8890   25.7040 O.2   726  ILE726     -0.2718
    202  CB        25.0000   62.2940   25.3080 C.3   726  ILE726      0.0266
    203  CG1       25.0910   63.7680   24.9210 C.3   726  ILE726      0.0019
    204  CG2       23.6950   61.8730   25.9900 C.3   726  ILE726      0.0020
    205  CD1       24.2100   64.1140   23.7650 C.3   726  ILE726      0.0001
    206  N         27.4540   61.6790   24.0460 N.am  727  ASP727     -0.1974
    207  CA        28.5470   61.9360   23.0880 C.3   727  ASP727      0.1709
    208  C         29.9620   61.8660   23.6930 C.2   727  ASP727      0.2293
    209  O         30.6990   62.8380   23.6420 O.2   727  ASP727     -0.2864
    210  CB        28.3150   63.3130   22.4290 C.3   727  ASP727      0.1436
    211  CG        29.1550   63.5410   21.1930 C.2   727  ASP727      0.3671
    212  OD1       29.6030   62.5340   20.5950 O.co2 727  ASP727     -0.2456
    213  OD2       29.3460   64.7280   20.8100 O.co2 727  ASP727     -0.2456
@<TRIPOS>BOND
     1    17    16    2
     2    20    21    1
     3    20    26    1
     4    22    23    2
     5    22    21    1
     6     4     3    2
     7    21    24    1
     8     1     2    1
     9    51    52    2
    10    51    50    1
    11    16    15    1
    12    26    25    1
    13     3     2    1
    14     3     9   am
    15    58    59    1
    16    30    29    2
    17    10    13    1
    18    10     9    1
    19    10    11    1
    20    27    28    1
    21    50    49    1
    22    50    53    1
    23    14    11   am
    24    14    15    1
    25     2     5    1
    26    24    25    1
    27    11    12    2
    28    15    18    1
    29    29    28    1
    30    54    53    1
    31    54    55    1
    32    64    63   ar
    33    59    60    1
    34    59    62    1
    35    28    31    1
    36    61    60    2
    37    19    18    1
    38     5     6    1
    39    31    32    1
    40    56    55    1
    41    56    57    1
    42     6     7    1
    43    63    62    1
    44    63    65   ar
    45    33    32   ar
    46    33    35   ar
    47    32    34   ar
    48    43    44    2
    49    43    42    1
    50     8     7    1
    51    35    36   ar
    52    42    41    1
    53    42    45    1
    54    47    45    1
    55    34    36   ar
    56    34    37   ar
    57    45    46    1
    58    36    38   ar
    59    37    39   ar
    60    46    48    1
    61    38    40   ar
    62   110   108    1
    63    86    87    1
    64    39    40   ar
    65    93    91    1
    66    91    90    1
    67    89    88    2
    68   108   107    1
    69    90    87    1
    70    90    92    1
    71    87    88    1
    72    88    94   am
    73   212   211   ar
    74   170   168   ar
    75   213   211   ar
    76   162   161    1
    77   107   109    1
    78   107   104    1
    79   211   210    1
    80   161   160    1
    81   126   125    1
    82    72    71   ar
    83    94    95    1
    84   168   169   ar
    85   168   167    1
    86   103   104    1
    87   103    96   am
    88   160   159    1
    89   104   105    1
    90    95    96    1
    91    95    98    1
    92    96    97    2
    93   210   207    1
    94    71    73   ar
    95    71    70    1
    96   125   124    1
    97   159   158    1
    98   167   164    1
    99    70    67    1
   100   177   176    2
   101    66    67    1
   102   207   208    1
   103   207   206    1
   104   158   155    1
   105   105   106    2
   106   105   111   am
   107   209   208    2
   108    98    99    1
   109   124   123    1
   110   205   203    1
   111   166   165    2
   112    67    68    1
   113   155   154    1
   114   155   156    1
   115   152   151    1
   116   178   176   am
   117   176   175    1
   118   206   200   am
   119   164   165    1
   120   164   163    1
   121   157   156    2
   122   165   171   am
   123    99   100    1
   124    68    69    2
   125   111   112    1
   126   151   153    1
   127   151   148    1
   128    82    80   ar
   129    82    84   ar
   130   123   122    1
   131   203   202    1
   132    85    84    1
   133   186   185    1
   134   114   113    2
   135   185   184    1
   136   146   144    1
   137    80    79   ar
   138   171   172    1
   139   138   137    2
   140   200   201    2
   141   200   199    1
   142   202   204    1
   143   202   199    1
   144   175   172    1
   145   172   173    1
   146    84    83   ar
   147   113   112    1
   148   113   118   am
   149   147   148    1
   150   147   142   am
   151   100   102   ar
   152   100   101   ar
   153   112   115    1
   154   119   118    1
   155   119   122    1
   156   119   120    1
   157   148   149    1
   158   199   198    1
   159   141   144    1
   160   141   142    1
   161   141   140    1
   162   144   145    1
   163   127   120   am
   164   127   128    1
   165   184   183    1
   166    79    78    1
   167    79    81   ar
   168   137   140   am
   169   137   136    1
   170   142   143    2
   171    77    76    2
   172    76    75    1
   173    83    81   ar
   174   173   174    2
   175   115   117    1
   176   115   116    1
   177   120   121    2
   178   150   149    2
   179    78    75    1
   180   135   136    1
   181   135   129   am
   182   133   132   ar
   183   128   129    1
   184   128   131    1
   185   139   136    1
   186    75    74    1
   187   129   130    2
   188   183   180    1
   189   132   131    1
   190   132   134   ar
   191   195   197   ar
   192   195   193   ar
   193   197   196   ar
   194   180   179    1
   195   180   181    1
   196   193   192   ar
   197   196   194   ar
   198   181   182    2
   199   190   189    2
   200   192   194   ar
   201   192   191    1
   202   189   188    1
   203   191   188    1
   204   188   187    1
