@<TRIPOS>MOLECULE
tmp/3t8vA00.pdb
 236 224 0 0 0
SMALL
GASTEIGER

@<TRIPOS>ATOM
      1  N         14.3930   20.7500   19.9230 N.3   122  GLN122     -0.1245
      2  CA        14.0290   19.4490   19.3790 C.3   122  GLN122      0.1566
      3  C         12.6290   19.1690   19.9270 C.2   122  GLN122      0.2260
      4  O         12.4800   18.8810   21.1160 O.2   122  GLN122     -0.2867
      5  CB        15.0470   18.3330   19.6980 C.3   122  GLN122      0.0367
      6  CG        14.5990   16.9330   19.2320 C.3   122  GLN122      0.0905
      7  CD        14.2090   16.8850   17.7710 C.2   122  GLN122      0.2608
      8  OE1       14.9080   17.4190   16.9030 O.2   122  GLN122     -0.2717
      9  NE2       13.1130   16.1950   17.4520 N.am  122  GLN122     -0.0878
     10  N          9.9690   17.1260   18.1060 N.3   124  GLU124     -0.1231
     11  CA         9.3820   15.8130   17.8570 C.3   124  GLU124      0.1699
     12  C          9.9250   14.8300   18.9050 C.2   124  GLU124      0.2592
     13  O         11.1340   14.8390   19.1580 O.2   124  GLU124     -0.2718
     14  CB         9.7230   15.2870   16.4560 C.3   124  GLU124      0.0402
     15  CG         8.8070   14.1310   16.0870 C.3   124  GLU124      0.1161
     16  CD         9.1180   13.4740   14.7580 C.2   124  GLU124      0.3649
     17  OE1       10.1010   13.8800   14.1050 O.co2 124  GLU124     -0.2457
     18  OE2        8.3790   12.5470   14.3710 O.co2 124  GLU124     -0.2457
     19  N          9.0620   14.0070   19.5330 N.am  125  ALA125     -0.1980
     20  CA         7.6010   13.9800   19.3380 C.3   125  ALA125      0.1597
     21  C          6.8780   14.8440   20.3750 C.2   125  ALA125      0.2287
     22  O          5.8930   15.5120   20.0370 O.2   125  ALA125     -0.2864
     23  CB         7.0870   12.5540   19.4050 C.3   125  ALA125      0.0319
     24  N         20.1260   13.5330   19.5200 N.3   263  ASN263     -0.1225
     25  CA        19.7250   12.1460   19.8410 C.3   263  ASN263      0.1785
     26  C         19.6820   11.2510   18.6240 C.2   263  ASN263      0.2597
     27  O         19.9840   10.0630   18.7250 O.2   263  ASN263     -0.2718
     28  CB        18.3660   12.1240   20.5680 C.3   263  ASN263      0.1169
     29  CG        18.4740   12.6960   21.9520 C.2   263  ASN263      0.2627
     30  OD1       19.5650   12.7200   22.5400 O.2   263  ASN263     -0.2716
     31  ND2       17.3680   13.2190   22.4740 N.am  263  ASN263     -0.0877
     32  N         19.2730   11.8070   17.4790 N.am  264  VAL264     -0.1966
     33  CA        19.1580   11.0190   16.2350 C.3   264  VAL264      0.1727
     34  C         20.0380   11.6010   15.0880 C.2   264  VAL264      0.2617
     35  O         21.0460   12.2480   15.3830 O.2   264  VAL264     -0.2715
     36  CB        17.6600   10.7700   15.8650 C.3   264  VAL264      0.0290
     37  CG1       16.9630    9.9340   16.9380 C.3   264  VAL264      0.0023
     38  CG2       16.8980   12.0800   15.6170 C.3   264  VAL264      0.0023
     39  N         19.6810   11.3220   13.8290 N.am  265  GLY265     -0.1940
     40  CA        20.3630   11.8380   12.6410 C.3   265  GLY265      0.2014
     41  C         20.0040   13.2770   12.3080 C.2   265  GLY265      0.2639
     42  O         20.8920   14.0970   12.0920 O.2   265  GLY265     -0.2714
     43  N         18.6990   13.5870   12.1970 N.am  266  ALA266     -0.1963
     44  CA        18.2310   14.9530   11.8630 C.3   266  ALA266      0.1728
     45  C         16.7520   15.1220   12.1640 C.2   266  ALA266      0.2616
     46  O         16.1150   14.1760   12.6180 O.2   266  ALA266     -0.2715
     47  CB        18.5060   15.2820   10.3960 C.3   266  ALA266      0.0334
     48  N         16.1860   16.2990   11.8360 N.am  267  MET267     -0.1963
     49  CA        14.7910   16.6300   12.1420 C.3   267  MET267      0.1736
     50  C         14.2760   17.5900   11.0750 C.2   267  MET267      0.2616
     51  O         14.9330   18.5820   10.8010 O.2   267  MET267     -0.2715
     52  CB        14.7390   17.3250   13.5340 C.3   267  MET267      0.0427
     53  CG        13.3270   17.6980   13.9830 C.3   267  MET267      0.0599
     54  SD        12.2020   16.2580   13.9740 S.3   267  MET267     -0.1393
     55  CE        10.6580   17.0330   13.3420 C.3   267  MET267      0.0692
     56  N         13.0900   17.3060   10.5110 N.am  268  GLU268     -0.1977
     57  CA        12.4850   18.0650    9.4110 C.3   268  GLU268      0.1602
     58  C         11.7230   19.3640    9.7570 C.2   268  GLU268      0.2287
     59  O         10.7950   19.7380    9.0240 O.2   268  GLU268     -0.2864
     60  CB        11.6020   17.1370    8.5780 C.3   268  GLU268      0.0415
     61  CG        10.3010   16.7170    9.2790 C.3   268  GLU268      0.1163
     62  CD        10.3390   15.5060   10.1920 C.2   268  GLU268      0.3649
     63  OE1       11.4300   15.1440   10.6850 O.co2 268  GLU268     -0.2457
     64  OE2        9.2650   14.9010   10.3970 O.co2 268  GLU268     -0.2457
     65  N         25.8110    8.8510    3.9650 N.3   294  ARG294     -0.1245
     66  CA        24.9810    9.2070    5.1220 C.3   294  ARG294      0.1563
     67  C         24.3590   10.6090    4.9800 C.2   294  ARG294      0.2260
     68  O         23.1630   10.7780    5.2390 O.2   294  ARG294     -0.2867
     69  CB        25.8030    9.0760    6.4170 C.3   294  ARG294      0.0307
     70  CG        25.1030    9.5280    7.7060 C.3   294  ARG294      0.0489
     71  CD        24.0170    8.5830    8.1450 C.3   294  ARG294      0.2205
     72  NE        23.3510    9.0750    9.3490 N.pl3 294  ARG294     -0.0865
     73  CZ        22.1840    8.6240    9.7960 C.cat 294  ARG294      0.5346
     74  NH1       21.5320    7.6730    9.1310 N.pl3 294  ARG294      0.1354
     75  NH2       21.6430    9.1420   10.8900 N.pl3 294  ARG294      0.1354
     76  N         20.3750   11.4660    4.6620 N.3   298  VAL298     -0.1245
     77  CA        19.7360   12.2490    5.7390 C.3   298  VAL298      0.1561
     78  C         19.2060   13.5930    5.2320 C.2   298  VAL298      0.2260
     79  O         18.0380   13.9490    5.5170 O.2   298  VAL298     -0.2867
     80  CB        20.6100   12.3600    7.0060 C.3   298  VAL298      0.0252
     81  CG1       19.8830   13.1740    8.0710 C.3   298  VAL298      0.0019
     82  CG2       20.9560   10.9530    7.5510 C.3   298  VAL298      0.0019
     83  N         16.2200   12.5860    3.1430 N.3   301  HIS301     -0.1226
     84  CA        15.1270   12.1800    4.0330 C.3   301  HIS301      0.1752
     85  C         14.3680   13.4000    4.5890 C.2   301  HIS301      0.2595
     86  O         13.1390   13.5010    4.4080 O.2   301  HIS301     -0.2718
     87  CB        15.6770   11.3160    5.1900 C.3   301  HIS301      0.0759
     88  CG        14.6350   10.8020    6.1310 C.ar  301  HIS301      0.0818
     89  ND1       14.2320    9.4880    6.1030 N.ar  301  HIS301     -0.2268
     90  CD2       13.9540   11.4510    7.1110 C.ar  301  HIS301      0.1154
     91  CE1       13.3030    9.3760    7.0450 C.ar  301  HIS301      0.1986
     92  NE2       13.1100   10.5240    7.6830 N.ar  301  HIS301     -0.2212
     93  N         15.0820   14.3180    5.2580 N.am  302  GLU302     -0.1979
     94  CA        14.4280   15.5010    5.8540 C.3   302  GLU302      0.1602
     95  C         13.7900   16.3830    4.7920 C.2   302  GLU302      0.2287
     96  O         12.7000   16.9070    5.0230 O.2   302  GLU302     -0.2864
     97  CB        15.3560   16.3110    6.7770 C.3   302  GLU302      0.0415
     98  CG        16.0880   15.4890    7.8500 C.3   302  GLU302      0.1163
     99  CD        15.3710   14.3810    8.6080 C.2   302  GLU302      0.3649
    100  OE1       14.1270   14.4370    8.7750 O.co2 302  GLU302     -0.2457
    101  OE2       16.0730   13.4280    9.0120 O.co2 302  GLU302     -0.2457
    102  N         10.4070   14.9680    3.6550 N.3   305  HIS305     -0.1241
    103  CA         9.3340   15.1740    4.6370 C.3   305  HIS305      0.1621
    104  C          8.5620   16.4590    4.3750 C.2   305  HIS305      0.2264
    105  O          7.4410   16.5840    4.8640 O.2   305  HIS305     -0.2867
    106  CB         9.9140   15.2600    6.0570 C.3   305  HIS305      0.0745
    107  CG        10.0180   13.9580    6.7890 C.ar  305  HIS305      0.0817
    108  ND1        8.9360   13.0940    6.9020 N.ar  305  HIS305     -0.2268
    109  CD2       11.0420   13.4740    7.5290 C.ar  305  HIS305      0.1154
    110  CE1        9.3590   12.0930    7.6630 C.ar  305  HIS305      0.1986
    111  NE2       10.6270   12.2750    8.0470 N.ar  305  HIS305     -0.2212
    112  N          4.4370    8.8790    7.7670 N.3   323  LYS323     -0.1231
    113  CA         5.4910    9.8330    7.4180 C.3   323  LYS323      0.1693
    114  C          6.8720    9.1850    7.4190 C.2   323  LYS323      0.2591
    115  O          7.6510    9.4690    6.5300 O.2   323  LYS323     -0.2718
    116  CB         5.4540   11.1620    8.2000 C.3   323  LYS323      0.0285
    117  CG         6.1240   11.1750    9.5780 C.3   323  LYS323      0.0035
    118  CD         6.1200   12.5930   10.1750 C.3   323  LYS323      0.0206
    119  CE         6.5940   12.6290   11.6020 C.3   323  LYS323      0.1093
    120  NZ         8.0790   12.6930   11.6790 N.3   323  LYS323     -0.1314
    121  N          7.1760    8.3080    8.3920 N.am  324  GLU324     -0.1979
    122  CA         8.5170    7.7080    8.4390 C.3   324  GLU324      0.1602
    123  C          8.7940    6.6340    7.3960 C.2   324  GLU324      0.2287
    124  O          9.8310    6.6980    6.7280 O.2   324  GLU324     -0.2864
    125  CB         8.9140    7.2890    9.8510 C.3   324  GLU324      0.0415
    126  CG         9.0390    8.4780   10.7920 C.3   324  GLU324      0.1163
    127  CD         9.9630    9.6080   10.3580 C.2   324  GLU324      0.3649
    128  OE1       10.8610    9.3890    9.5120 O.co2 324  GLU324     -0.2457
    129  OE2        9.8290   10.7100   10.9270 O.co2 324  GLU324     -0.2457
    130  N         13.5260    8.4140    0.3250 N.3   331  GLU331     -0.1245
    131  CA        14.9700    8.5190    0.5600 C.3   331  GLU331      0.1567
    132  C         15.7100    7.3840   -0.1790 C.2   331  GLU331      0.2260
    133  O         16.7270    7.6380   -0.8490 O.2   331  GLU331     -0.2867
    134  CB        15.1990    8.4440    2.0840 C.3   331  GLU331      0.0388
    135  CG        16.6240    8.2990    2.5880 C.3   331  GLU331      0.1160
    136  CD        16.7650    7.6070    3.9450 C.2   331  GLU331      0.3649
    137  OE1       15.8420    7.6720    4.7930 O.co2 331  GLU331     -0.2457
    138  OE2       17.8330    6.9970    4.1610 O.co2 331  GLU331     -0.2457
    139  N          8.2790    7.8780   22.1740 N.3   377  ALA377     -0.1231
    140  CA         9.6540    7.7960   21.6870 C.3   377  ALA377      0.1694
    141  C         10.1190    6.3550   21.3710 C.2   377  ALA377      0.2592
    142  O         11.0180    6.1750   20.5450 O.2   377  ALA377     -0.2718
    143  CB        10.5900    8.4410   22.6970 C.3   377  ALA377      0.0304
    144  N          9.5010    5.3380   22.0060 N.am  378  ASN378     -0.1974
    145  CA         9.8550    3.9420   21.7680 C.3   378  ASN378      0.1688
    146  C          9.1760    3.3310   20.4980 C.2   378  ASN378      0.2292
    147  O          9.4090    2.1550   20.2010 O.2   378  ASN378     -0.2864
    148  CB         9.6840    3.0970   23.0580 C.3   378  ASN378      0.1181
    149  CG        10.6370    3.4490   24.2050 C.2   378  ASN378      0.2629
    150  OD1       11.6990    4.0670   24.0350 O.2   378  ASN378     -0.2716
    151  ND2       10.2740    3.0670   25.4190 N.am  378  ASN378     -0.0877
    152  N          9.7000    4.8560   17.4990 N.3   380  TYR380     -0.1227
    153  CA        10.6230    5.2260   16.4220 C.3   380  TYR380      0.1736
    154  C         11.5860    4.0640   16.2470 C.2   380  TYR380      0.2596
    155  O         12.6770    4.0410   16.8200 O.2   380  TYR380     -0.2718
    156  CB        11.3220    6.5560   16.7260 C.3   380  TYR380      0.0548
    157  CG        10.3770    7.7320   16.6330 C.ar  380  TYR380     -0.0200
    158  CD1        9.5020    8.0300   17.6740 C.ar  380  TYR380     -0.0009
    159  CD2       10.3550    8.5460   15.5040 C.ar  380  TYR380     -0.0009
    160  CE1        8.6410    9.1200   17.6050 C.ar  380  TYR380      0.0417
    161  CE2        9.4920    9.6380   15.4190 C.ar  380  TYR380      0.0417
    162  CZ         8.6420    9.9270   16.4800 C.ar  380  TYR380      0.1957
    163  OH         7.7640   10.9780   16.4040 O.3   380  TYR380     -0.2866
    164  N         11.1280    3.0450   15.5000 N.am  381  THR381     -0.1953
    165  CA        11.8530    1.7810   15.4070 C.3   381  THR381      0.1897
    166  C         12.1820    1.3870   13.9880 C.2   381  THR381      0.2313
    167  O         11.5680    1.8880   13.0410 O.2   381  THR381     -0.2863
    168  CB        10.9600    0.6490   15.9960 C.3   381  THR381      0.1794
    169  OG1        9.7530    0.5760   15.2390 O.3   381  THR381     -0.2208
    170  CG2       10.6240    0.8580   17.4940 C.3   381  THR381      0.0378
    171  N         10.1260    2.3230   10.6330 N.3   385  TYR385     -0.1241
    172  CA        10.8960    2.9530    9.5710 C.3   385  TYR385      0.1605
    173  C         11.1570    2.0310    8.3820 C.2   385  TYR385      0.2264
    174  O         10.8120    2.3740    7.2400 O.2   385  TYR385     -0.2867
    175  CB        12.2330    3.4300   10.1230 C.3   385  TYR385      0.0534
    176  CG        12.1930    4.7880   10.7820 C.ar  385  TYR385     -0.0201
    177  CD1       12.8830    5.8700   10.2350 C.ar  385  TYR385     -0.0009
    178  CD2       11.4390    5.0070   11.9350 C.ar  385  TYR385     -0.0009
    179  CE1       12.8650    7.1220   10.8480 C.ar  385  TYR385      0.0417
    180  CE2       11.3870    6.2660   12.5380 C.ar  385  TYR385      0.0417
    181  CZ        12.1020    7.3210   11.9900 C.ar  385  TYR385      0.1957
    182  OH        12.0580    8.5780   12.5620 O.3   385  TYR385     -0.2866
    183  N         16.4690    8.6580   26.1920 N.3   839  MET839     -0.1245
    184  CA        16.3880    8.1850   24.8030 C.3   839  MET839      0.1570
    185  C         17.6970    7.4780   24.3920 C.2   839  MET839      0.2261
    186  O         17.6500    6.3700   23.8360 O.2   839  MET839     -0.2867
    187  CB        16.0490    9.3360   23.8410 C.3   839  MET839      0.0387
    188  CG        14.6520    9.8820   24.0720 C.3   839  MET839      0.0595
    189  SD        14.2510   11.2650   22.9840 S.3   839  MET839     -0.1393
    190  CE        13.3650   12.2760   24.1100 C.3   839  MET839      0.0692
    191  N         18.0730    4.1360   26.1640 N.3   842  THR842     -0.1203
    192  CA        17.2570    3.1140   25.4830 C.3   842  THR842      0.1994
    193  C         17.9490    2.6080   24.1960 C.2   842  THR842      0.2617
    194  O         17.9250    1.4020   23.9060 O.2   842  THR842     -0.2717
    195  CB        15.8080    3.6020   25.3200 C.3   842  THR842      0.1784
    196  OG1       15.3120    3.9850   26.6100 O.3   842  THR842     -0.2211
    197  CG2       14.9080    2.5310   24.8020 C.3   842  THR842      0.0376
    198  N         18.6110    3.5270   23.4450 N.am  843  GLN843     -0.1979
    199  CA        19.3780    3.1290   22.2600 C.3   843  GLN843      0.1601
    200  C         20.5060    2.1730   22.6690 C.2   843  GLN843      0.2287
    201  O         20.8190    1.2380   21.9300 O.2   843  GLN843     -0.2864
    202  CB        20.0020    4.3400   21.5490 C.3   843  GLN843      0.0394
    203  CG        18.9760    5.2820   20.8760 C.3   843  GLN843      0.0908
    204  CD        19.6360    6.5600   20.4040 C.2   843  GLN843      0.2608
    205  OE1       20.7820    6.8560   20.7610 O.2   843  GLN843     -0.2717
    206  NE2       18.9050    7.3870   19.6520 N.am  843  GLN843     -0.0878
    207  N         20.1760   -1.7590   22.7850 N.3   846  GLU846     -0.1245
    208  CA        20.1780   -2.5160   21.5280 C.3   846  GLU846      0.1567
    209  C         20.7890   -3.9450   21.6190 C.2   846  GLU846      0.2260
    210  O         20.1570   -4.8830   21.1080 O.2   846  GLU846     -0.2867
    211  CB        20.8140   -1.6800   20.3980 C.3   846  GLU846      0.0388
    212  CG        21.1480   -2.4890   19.1530 C.3   846  GLU846      0.1160
    213  CD        20.2360   -2.2850   17.9660 C.2   846  GLU846      0.3649
    214  OE1       19.0100   -2.1320   18.1700 O.co2 846  GLU846     -0.2457
    215  OE2       20.7430   -2.3510   16.8220 O.co2 846  GLU846     -0.2457
    216  N         18.4530   -6.8670   22.8170 N.3   849  LYS849     -0.1245
    217  CA        17.2520   -7.2100   22.0460 C.3   849  LYS849      0.1561
    218  C         17.1190   -8.6880   21.7190 C.2   849  LYS849      0.2260
    219  O         16.0030   -9.1990   21.6580 O.2   849  LYS849     -0.2867
    220  CB        17.1400   -6.3510   20.7950 C.3   849  LYS849      0.0271
    221  CG        16.8110   -4.8920   21.1190 C.3   849  LYS849      0.0035
    222  CD        16.8070   -4.0230   19.8620 C.3   849  LYS849      0.0206
    223  CE        15.4550   -3.9710   19.2090 C.3   849  LYS849      0.1093
    224  NZ        15.5420   -3.3210   17.8780 N.3   849  LYS849     -0.1314
    225  N         10.7000    0.1200   28.0960 N.3   882  TYR882     -0.1241
    226  CA        11.4710   -0.6580   27.1400 C.3   882  TYR882      0.1605
    227  C         11.9200   -1.9770   27.7510 C.2   882  TYR882      0.2264
    228  O         11.7300   -3.0160   27.1160 O.2   882  TYR882     -0.2867
    229  CB        12.6780    0.1320   26.6590 C.3   882  TYR882      0.0534
    230  CG        13.2650   -0.4140   25.3840 C.ar  882  TYR882     -0.0201
    231  CD1       12.6640   -0.1600   24.1520 C.ar  882  TYR882     -0.0009
    232  CD2       14.4760   -1.1000   25.3900 C.ar  882  TYR882     -0.0009
    233  CE1       13.2320   -0.6120   22.9650 C.ar  882  TYR882      0.0417
    234  CE2       15.0600   -1.5470   24.2040 C.ar  882  TYR882      0.0417
    235  CZ        14.4420   -1.2870   22.9940 C.ar  882  TYR882      0.1957
    236  OH        14.9910   -1.7510   21.8220 O.3   882  TYR882     -0.2866
@<TRIPOS>BOND
     1   133   132    2
     2   132   131    1
     3   130   131    1
     4   131   134    1
     5   134   135    1
     6   135   136    1
     7    83    84    1
     8   102   103    1
     9   136   138   ar
    10   136   137   ar
    11    65    66    1
    12    84    85    1
    13    84    87    1
    14   104   103    1
    15   104   105    2
    16    86    85    2
    17    85    93   am
    18   103   106    1
    19    76    77    1
    20    95    96    2
    21    95    94    1
    22    67    66    1
    23    67    68    2
    24    66    69    1
    25    87    88    1
    26    78    79    2
    27    78    77    1
    28    93    94    1
    29    77    80    1
    30    94    97    1
    31   106   107    1
    32    89    88   ar
    33    89    91   ar
    34    88    90   ar
    35    69    70    1
    36   115   114    2
    37   124   123    2
    38    97    98    1
    39   107   108   ar
    40   107   109   ar
    41   108   110   ar
    42    80    82    1
    43    80    81    1
    44    91    92   ar
    45    90    92   ar
    46   174   173    2
    47   123   122    1
    48   113   114    1
    49   113   112    1
    50   113   116    1
    51   114   121   am
    52   109   111   ar
    53   110   111   ar
    54    70    71    1
    55    98    99    1
    56    71    72    1
    57   116   117    1
    58   173   172    1
    59   121   122    1
    60   122   125    1
    61    60    61    1
    62    60    57    1
    63    99   100   ar
    64    99   101   ar
    65    59    58    2
    66    74    73    1
    67    61    62    1
    68    72    73    2
    69    57    58    1
    70    57    56    1
    71   128   127   ar
    72   172   175    1
    73   172   171    1
    74   117   118    1
    75    73    75    1
    76   125   126    1
    77   175   176    1
    78   118   119    1
    79    62    64   ar
    80    62    63   ar
    81   177   176   ar
    82   177   179   ar
    83   127   126    1
    84   127   129   ar
    85    47    44    1
    86    56    50   am
    87   176   178   ar
    88    51    50    2
    89   179   181   ar
    90    50    49    1
    91   119   120    1
    92    48    49    1
    93    48    45   am
    94    44    45    1
    95    44    43    1
    96   178   180   ar
    97   181   180   ar
    98   181   182    1
    99    42    41    2
   100    49    52    1
   101    45    46    2
   102    43    41   am
   103    41    40    1
   104    40    39    1
   105   167   166    2
   106    55    54    1
   107    52    53    1
   108    39    34   am
   109    54    53    1
   110   166   165    1
   111    17    16   ar
   112    18    16   ar
   113    16    15    1
   114    34    35    2
   115    34    33    1
   116   169   168    1
   117   165   164    1
   118   165   168    1
   119   161   159   ar
   120   161   162   ar
   121   164   154   am
   122   159   157   ar
   123    38    36    1
   124    36    33    1
   125    36    37    1
   126   168   170    1
   127    15    14    1
   128    33    32    1
   129   154   153    1
   130   154   155    2
   131   163   162    1
   132   153   156    1
   133   153   152    1
   134    14    11    1
   135   162   160   ar
   136   157   156    1
   137   157   158   ar
   138   215   213   ar
   139     8     7    2
   140     9     7   am
   141    32    26   am
   142   160   158   ar
   143     7     6    1
   144    11    10    1
   145    11    12    1
   146   224   223    1
   147   213   214   ar
   148   213   212    1
   149    26    27    2
   150    26    25    1
   151    12    13    2
   152    12    19   am
   153   212   211    1
   154   223   222    1
   155     6     5    1
   156    20    23    1
   157    20    19    1
   158    20    21    1
   159     2     5    1
   160     2     1    1
   161     2     3    1
   162    24    25    1
   163   206   204   am
   164    25    28    1
   165   222   221    1
   166     3     4    2
   167    22    21    2
   168   147   146    2
   169   211   208    1
   170   204   205    2
   171   204   203    1
   172   146   145    1
   173   142   141    2
   174    28    29    1
   175   220   221    1
   176   220   217    1
   177   203   202    1
   178   210   209    2
   179   141   140    1
   180   141   144   am
   181   208   209    1
   182   208   207    1
   183   202   199    1
   184   219   218    2
   185   140   139    1
   186   140   143    1
   187   218   217    1
   188   145   144    1
   189   145   148    1
   190   236   235    1
   191   201   200    2
   192    29    31   am
   193    29    30    2
   194   217   216    1
   195   199   200    1
   196   199   198    1
   197   233   235   ar
   198   233   231   ar
   199   189   188    1
   200   189   190    1
   201   235   234   ar
   202   148   149    1
   203   198   193   am
   204   186   185    2
   205   187   188    1
   206   187   184    1
   207   194   193    2
   208   150   149    2
   209   231   230   ar
   210   193   192    1
   211   234   232   ar
   212   149   151   am
   213   185   184    1
   214   197   195    1
   215   184   183    1
   216   195   192    1
   217   195   196    1
   218   230   232   ar
   219   230   229    1
   220   192   191    1
   221   229   226    1
   222   228   227    2
   223   226   227    1
   224   226   225    1
