@<TRIPOS>MOLECULE
tmp/3t8xA01.pdb
 93 87 0 0 0
SMALL
GASTEIGER

@<TRIPOS>ATOM
      1  N         55.0030  -48.4940   18.5430 N.3    54  ASN54      -0.1225
      2  CA        55.4370  -49.8550   18.2100 C.3    54  ASN54       0.1785
      3  C         54.3550  -50.8890   18.5680 C.2    54  ASN54       0.2597
      4  O         54.6580  -52.0570   18.6300 O.2    54  ASN54      -0.2718
      5  CB        56.7950  -50.2470   18.8670 C.3    54  ASN54       0.1169
      6  CG        56.6950  -50.3950   20.4060 C.2    54  ASN54       0.2627
      7  OD1       55.7310  -49.9480   21.0090 O.2    54  ASN54      -0.2716
      8  ND2       57.7030  -50.9830   21.0230 N.am   54  ASN54      -0.0877
      9  N         53.1000  -50.4750   18.7620 N.am   55  PHE55      -0.1962
     10  CA        52.0410  -51.4040   19.0780 C.3    55  PHE55       0.1771
     11  C         51.4930  -52.1310   17.8520 C.2    55  PHE55       0.2620
     12  O         51.4030  -51.5440   16.7980 O.2    55  PHE55      -0.2715
     13  CB        50.8810  -50.6510   19.7710 C.3    55  PHE55       0.0574
     14  CG        51.1090  -50.3960   21.2350 C.ar   55  PHE55      -0.0200
     15  CD1       50.0290  -50.1030   22.0980 C.ar   55  PHE55      -0.0042
     16  CD2       52.3930  -50.4380   21.7800 C.ar   55  PHE55      -0.0042
     17  CE1       50.2510  -49.9270   23.4730 C.ar   55  PHE55      -0.0003
     18  CE2       52.5810  -50.2640   23.1560 C.ar   55  PHE55      -0.0003
     19  CZ        51.5130  -50.0090   23.9890 C.ar   55  PHE55      -0.0000
     20  N         51.0720  -53.3660   18.0390 N.am   56  SER56      -0.1950
     21  CA        50.4490  -54.1680   16.9300 C.3    56  SER56       0.1924
     22  C         49.0630  -53.5910   16.6220 C.2    56  SER56       0.2314
     23  O         48.4290  -52.9590   17.5270 O.2    56  SER56      -0.2863
     24  CB        50.3080  -55.6370   17.3750 C.3    56  SER56       0.2116
     25  OG        49.3870  -55.7910   18.5140 O.3    56  SER56      -0.2180
     26  N         46.6220  -54.8670   19.3170 N.3    59  GLU59      -0.1245
     27  CA        46.6350  -54.2310   20.6090 C.3    59  GLU59       0.1567
     28  C         45.9550  -52.8490   20.4410 C.2    59  GLU59       0.2260
     29  O         45.2190  -52.4580   21.3300 O.2    59  GLU59      -0.2867
     30  CB        48.0460  -54.0520   21.1580 C.3    59  GLU59       0.0388
     31  CG        48.0150  -53.4840   22.5720 C.3    59  GLU59       0.1160
     32  CD        49.3430  -53.4950   23.3810 C.2    59  GLU59       0.3649
     33  OE1       49.2730  -53.1790   24.6080 O.co2  59  GLU59      -0.2457
     34  OE2       50.4400  -53.7560   22.8420 O.co2  59  GLU59      -0.2457
     35  N         65.3710  -41.3680   33.3860 N.3   105  GLY105     -0.1225
     36  CA        64.7750  -42.6610   32.9360 C.3   105  GLY105      0.1811
     37  C         63.4960  -43.1190   33.6690 C.2   105  GLY105      0.2280
     38  O         62.8860  -44.1300   33.3040 O.2   105  GLY105     -0.2866
     39  N         59.6320  -43.1300   34.5990 N.3   107  ILE107     -0.1245
     40  CA        58.3590  -42.7860   33.9440 C.3   107  ILE107      0.1561
     41  C         57.2900  -42.6520   35.0060 C.2   107  ILE107      0.2260
     42  O         57.0510  -43.5430   35.7680 O.2   107  ILE107     -0.2867
     43  CB        57.9630  -43.7980   32.8420 C.3   107  ILE107      0.0252
     44  CG1       59.0020  -43.7270   31.6980 C.3   107  ILE107      0.0019
     45  CG2       56.5460  -43.5390   32.3270 C.3   107  ILE107      0.0019
     46  CD1       58.9220  -44.8930   30.6670 C.3   107  ILE107      0.0001
     47  N         51.4510  -50.0430   33.0880 N.3   161  GLU161     -0.1245
     48  CA        52.0900  -51.0590   32.2480 C.3   161  GLU161      0.1567
     49  C         51.9800  -50.6720   30.8200 C.2   161  GLU161      0.2260
     50  O         52.9990  -50.6070   30.1540 O.2   161  GLU161     -0.2867
     51  CB        51.5120  -52.4790   32.4800 C.3   161  GLU161      0.0388
     52  CG        51.7740  -52.9530   33.9360 C.3   161  GLU161      0.1160
     53  CD        51.1190  -54.3210   34.3180 C.2   161  GLU161      0.3649
     54  OE1       50.4980  -55.0050   33.4500 O.co2 161  GLU161     -0.2457
     55  OE2       51.2650  -54.7220   35.5040 O.co2 161  GLU161     -0.2457
     56  N         53.6060  -46.7040   29.7940 N.3   164  PRO164     -0.2102
     57  CA        55.0870  -46.5030   29.6630 C.3   164  PRO164      0.1504
     58  C         55.6530  -47.2050   28.4050 C.2   164  PRO164      0.2575
     59  O         56.4760  -46.6210   27.6880 O.2   164  PRO164     -0.2718
     60  CB        55.6190  -47.1600   30.9480 C.3   164  PRO164      0.0282
     61  CG        54.5130  -46.8680   31.9070 C.3   164  PRO164      0.0208
     62  CD        53.2480  -47.1760   31.1390 C.3   164  PRO164      0.0893
     63  N         55.0960  -48.3610   28.0630 N.am  165  ARG165     -0.1980
     64  CA        55.4710  -49.0770   26.7970 C.3   165  ARG165      0.1597
     65  C         55.1610  -48.2910   25.5880 C.2   165  ARG165      0.2287
     66  O         56.0010  -48.0480   24.7470 O.2   165  ARG165     -0.2864
     67  CB        54.7130  -50.3960   26.6650 C.3   165  ARG165      0.0334
     68  CG        55.3730  -51.5500   27.3490 C.3   165  ARG165      0.0492
     69  CD        54.7810  -52.9090   26.9330 C.3   165  ARG165      0.2205
     70  NE        53.3410  -53.0230   27.1560 N.pl3 165  ARG165     -0.0865
     71  CZ        52.3790  -53.0470   26.2270 C.cat 165  ARG165      0.5346
     72  NH1       52.6170  -52.9250   24.9440 N.pl3 165  ARG165      0.1354
     73  NH2       51.1350  -53.2200   26.5930 N.pl3 165  ARG165      0.1354
     74  N         57.4700  -44.9400   25.2680 N.3   168  LEU168     -0.1231
     75  CA        58.8730  -45.1030   24.7200 C.3   168  LEU168      0.1693
     76  C         58.7820  -45.5110   23.2460 C.2   168  LEU168      0.2592
     77  O         59.5290  -44.9910   22.3500 O.2   168  LEU168     -0.2718
     78  CB        59.6750  -46.0900   25.5820 C.3   168  LEU168      0.0284
     79  CG        60.1210  -45.6350   27.0290 C.3   168  LEU168      0.0019
     80  CD1       60.9180  -46.7200   27.8020 C.3   168  LEU168      0.0001
     81  CD2       60.8700  -44.3290   26.8930 C.3   168  LEU168      0.0001
     82  N         57.8190  -46.3850   22.9290 N.am  169  GLY169     -0.1957
     83  CA        57.6800  -46.7780   21.5310 C.3   169  GLY169      0.1869
     84  C         57.3160  -45.6700   20.5590 C.2   169  GLY169      0.2309
     85  O         57.8560  -45.6360   19.4430 O.2   169  GLY169     -0.2863
     86  N         60.1800  -43.0510   20.1190 N.3   172  ASN172     -0.1240
     87  CA        61.1270  -43.6110   19.1070 C.3   172  ASN172      0.1653
     88  C         60.6060  -43.6210   17.6390 C.2   172  ASN172      0.2266
     89  O         61.2620  -43.1200   16.7740 O.2   172  ASN172     -0.2867
     90  CB        61.6380  -44.9800   19.5460 C.3   172  ASN172      0.1155
     91  CG        62.5680  -45.5740   18.5100 C.2   172  ASN172      0.2627
     92  OD1       62.2340  -46.5780   17.8670 O.2   172  ASN172     -0.2716
     93  ND2       63.6310  -44.9040   18.2630 N.am  172  ASN172     -0.0877
@<TRIPOS>BOND
     1    22    21    1
     2    22    23    2
     3    89    88    2
     4    12    11    2
     5    21    24    1
     6    21    20    1
     7    24    25    1
     8    88    87    1
     9    11    20   am
    10    11    10    1
    11    92    91    2
    12     2     1    1
    13     2     3    1
    14     2     5    1
    15    93    91   am
    16    91    90    1
    17     3     4    2
    18     3     9   am
    19     9    10    1
    20     5     6    1
    21    10    13    1
    22    87    90    1
    23    87    86    1
    24    26    27    1
    25    85    84    2
    26    13    14    1
    27     6     7    2
    28     6     8   am
    29    28    27    1
    30    28    29    2
    31    84    83    1
    32    27    30    1
    33    30    31    1
    34    14    16   ar
    35    14    15   ar
    36    83    82    1
    37    16    18   ar
    38    15    17   ar
    39    77    76    2
    40    31    32    1
    41    34    32   ar
    42    82    76   am
    43    18    19   ar
    44    76    75    1
    45    32    33   ar
    46    17    19   ar
    47    75    74    1
    48    75    78    1
    49    66    65    2
    50    72    71    1
    51    78    79    1
    52    65    64    1
    53    71    73    1
    54    71    70    2
    55    67    64    1
    56    67    68    1
    57    64    63    1
    58    81    79    1
    59    69    70    1
    60    69    68    1
    61    79    80    1
    62    59    58    2
    63    63    58   am
    64    58    57    1
    65    57    56    1
    66    57    60    1
    67    56    62    1
    68    50    49    2
    69    46    44    1
    70    49    48    1
    71    60    61    1
    72    62    61    1
    73    44    43    1
    74    48    51    1
    75    48    47    1
    76    45    43    1
    77    51    52    1
    78    43    40    1
    79    36    35    1
    80    36    37    1
    81    38    37    2
    82    54    53   ar
    83    52    53    1
    84    40    39    1
    85    40    41    1
    86    53    55   ar
    87    41    42    2
