@<TRIPOS>MOLECULE
tmp/3t8xC01.pdb
 89 84 0 0 0
SMALL
GASTEIGER

@<TRIPOS>ATOM
      1  N         75.8520    4.3390   61.5540 N.3    52  ASN52      -0.1225
      2  CA        76.3580    5.7210   61.2990 C.3    52  ASN52       0.1785
      3  C         77.8820    5.9040   61.5520 C.2    52  ASN52       0.2597
      4  O         78.3940    7.0140   61.6070 O.2    52  ASN52      -0.2718
      5  CB        75.5220    6.7830   62.0390 C.3    52  ASN52       0.1169
      6  CG        75.7570    6.7830   63.5010 C.2    52  ASN52       0.2627
      7  OD1       76.3810    5.8770   64.0350 O.2    52  ASN52      -0.2716
      8  ND2       75.2520    7.8080   64.1770 N.am   52  ASN52      -0.0877
      9  N         78.6150    4.8080   61.6710 N.am   53  PHE53      -0.1962
     10  CA        80.0600    4.9210   61.9800 C.3    53  PHE53       0.1771
     11  C         80.8430    5.1760   60.6980 C.2    53  PHE53       0.2620
     12  O         80.4640    4.6670   59.6400 O.2    53  PHE53      -0.2715
     13  CB        80.5430    3.6120   62.6130 C.3    53  PHE53       0.0574
     14  CG        80.2360    3.5020   64.0960 C.ar   53  PHE53      -0.0200
     15  CD1       80.9760    2.6680   64.8770 C.ar   53  PHE53      -0.0042
     16  CD2       79.2460    4.2780   64.7000 C.ar   53  PHE53      -0.0042
     17  CE1       80.7060    2.5720   66.2480 C.ar   53  PHE53      -0.0003
     18  CE2       78.9890    4.2140   66.0800 C.ar   53  PHE53      -0.0003
     19  CZ        79.7220    3.3240   66.8350 C.ar   53  PHE53      -0.0000
     20  N         81.9540    5.9050   60.7970 N.am   54  SER54      -0.1950
     21  CA        82.8300    6.1120   59.6270 C.3    54  SER54       0.1924
     22  C         83.6170    4.8720   59.3600 C.2    54  SER54       0.2314
     23  O         83.7810    4.0110   60.2830 O.2    54  SER54      -0.2863
     24  CB        83.8450    7.2040   59.8920 C.3    54  SER54       0.2116
     25  OG        84.7190    6.8540   61.0190 O.3    54  SER54      -0.2180
     26  N         86.4530    4.3740   61.9430 N.3    57  GLU57      -0.1245
     27  CA        86.0810    3.8150   63.2200 C.3    57  GLU57       0.1567
     28  C         85.7980    2.2930   63.0630 C.2    57  GLU57       0.2260
     29  O         86.1580    1.5060   63.9230 O.2    57  GLU57      -0.2867
     30  CB        84.9350    4.6340   63.8790 C.3    57  GLU57       0.0388
     31  CG        84.5190    4.1110   65.2740 C.3    57  GLU57       0.1160
     32  CD        83.6510    5.0490   66.1640 C.2    57  GLU57       0.3649
     33  OE1       83.6930    4.8370   67.4190 O.co2  57  GLU57      -0.2457
     34  OE2       82.9070    5.9440   65.6560 O.co2  57  GLU57      -0.2457
     35  N         69.4450    2.2240   77.7790 N.3   105  ILE105     -0.1245
     36  CA        70.1970    1.2060   77.0520 C.3   105  ILE105      0.1561
     37  C         71.0940    0.4870   78.1010 C.2   105  ILE105      0.2260
     38  O         71.7860    1.1220   78.8620 O.2   105  ILE105     -0.2867
     39  CB        71.0360    1.8090   75.8980 C.3   105  ILE105      0.0252
     40  CG1       70.1610    2.5490   74.8850 C.3   105  ILE105      0.0019
     41  CG2       71.7820    0.7170   75.0970 C.3   105  ILE105      0.0019
     42  CD1       70.9540    3.4160   73.9390 C.3   105  ILE105      0.0001
     43  N         80.1630    2.8990   76.1670 N.3   159  GLU159     -0.1245
     44  CA        80.2100    4.1080   75.3000 C.3   159  GLU159      0.1567
     45  C         79.9920    3.8220   73.8430 C.2   159  GLU159      0.2260
     46  O         79.1340    4.4320   73.2180 O.2   159  GLU159     -0.2867
     47  CB        81.5230    4.8600   75.5340 C.3   159  GLU159      0.0388
     48  CG        81.4110    5.5730   76.8680 C.3   159  GLU159      0.1160
     49  CD        82.7110    6.0770   77.4600 C.2   159  GLU159      0.3649
     50  OE1       83.7280    6.2910   76.7220 O.co2 159  GLU159     -0.2457
     51  OE2       82.6830    6.2780   78.7070 O.co2 159  GLU159     -0.2457
     52  N         76.2270    1.5920   72.7850 N.3   162  PRO162     -0.2102
     53  CA        74.9560    2.3770   72.7060 C.3   162  PRO162      0.1504
     54  C         74.8580    3.3300   71.4590 C.2   162  PRO162      0.2575
     55  O         73.8250    3.3810   70.7990 O.2   162  PRO162     -0.2718
     56  CB        74.9690    3.1720   74.0270 C.3   162  PRO162      0.0282
     57  CG        75.7770    2.3610   74.9410 C.3   162  PRO162      0.0208
     58  CD        76.9120    1.7760   74.0600 C.3   162  PRO162      0.0893
     59  N         75.9380    4.0630   71.1630 N.am  163  ARG163     -0.1977
     60  CA        76.0890    4.8970   69.9370 C.3   163  ARG163      0.1640
     61  C         75.8470    4.0570   68.7000 C.2   163  ARG163      0.2290
     62  O         75.1000    4.4430   67.8300 O.2   163  ARG163     -0.2864
     63  CB        77.5460    5.4630   69.8630 C.3   163  ARG163      0.0589
     64  CG        77.6300    6.8930   70.1790 C.2   163  ARG163      0.0162
     65  CD        79.0040    7.4810   70.5110 C.2   163  ARG163      0.1886
     66  NE        80.2280    6.6670   70.4270 N.pl3 163  ARG163     -0.0578
     67  CZ        80.9510    6.3770   69.3390 C.cat 163  ARG163      0.5393
     68  NH1       80.5810    6.7010   68.0990 N.pl3 163  ARG163      0.1358
     69  NH2       82.0400    5.6770   69.4990 N.pl3 163  ARG163      0.1358
     70  N         72.0170    2.6960   68.3120 N.3   166  LEU166     -0.1231
     71  CA        71.0210    3.6790   67.8800 C.3   166  LEU166      0.1693
     72  C         71.2510    4.0510   66.4470 C.2   166  LEU166      0.2592
     73  O         70.2740    4.2340   65.7030 O.2   166  LEU166     -0.2718
     74  CB        71.0140    4.9230   68.7450 C.3   166  LEU166      0.0284
     75  CG        70.5400    4.7070   70.1590 C.3   166  LEU166      0.0019
     76  CD1       70.5930    6.0000   70.9540 C.3   166  LEU166      0.0001
     77  CD2       69.1190    4.1230   70.2120 C.3   166  LEU166      0.0001
     78  N         72.5140    4.1860   66.0450 N.am  167  GLY167     -0.1957
     79  CA        72.8080    4.5230   64.6440 C.3   167  GLY167      0.1869
     80  C         72.4650    3.4310   63.6340 C.2   167  GLY167      0.2309
     81  O         72.0090    3.7240   62.4810 O.2   167  GLY167     -0.2863
     82  N         68.5430    3.0550   63.1720 N.3   170  ASN170     -0.1240
     83  CA        68.0820    4.1280   62.2770 C.3   170  ASN170      0.1653
     84  C         68.5330    3.8470   60.8220 C.2   170  ASN170      0.2266
     85  O         67.7220    3.8920   59.9310 O.2   170  ASN170     -0.2867
     86  CB        68.6180    5.4560   62.7600 C.3   170  ASN170      0.1155
     87  CG        68.2400    6.6160   61.8190 C.2   170  ASN170      0.2627
     88  OD1       69.1110    7.1830   61.1220 O.2   170  ASN170     -0.2716
     89  ND2       66.9640    6.8590   61.6930 N.am  170  ASN170     -0.0877
@<TRIPOS>BOND
     1    22    21    1
     2    22    23    2
     3    21    24    1
     4    21    20    1
     5    12    11    2
     6    24    25    1
     7    85    84    2
     8    11    20   am
     9    11    10    1
    10    84    83    1
    11    88    87    2
    12     2     3    1
    13     2     1    1
    14     2     5    1
    15     3     4    2
    16     3     9   am
    17     9    10    1
    18    89    87   am
    19    87    86    1
    20    26    27    1
    21    10    13    1
    22     5     6    1
    23    83    86    1
    24    83    82    1
    25    81    80    2
    26    13    14    1
    27    28    27    1
    28    28    29    2
    29    27    30    1
    30     6     7    2
    31     6     8   am
    32    80    79    1
    33    30    31    1
    34    14    16   ar
    35    14    15   ar
    36    79    78    1
    37    16    18   ar
    38    15    17   ar
    39    31    32    1
    40    34    32   ar
    41    73    72    2
    42    78    72   am
    43    18    19   ar
    44    32    33   ar
    45    17    19   ar
    46    72    71    1
    47    62    61    2
    48    71    70    1
    49    71    74    1
    50    68    67    1
    51    61    60    1
    52    74    75    1
    53    67    69    1
    54    67    66    2
    55    63    60    1
    56    63    64    1
    57    60    59    1
    58    75    77    1
    59    75    76    1
    60    64    65    2
    61    66    65    1
    62    55    54    2
    63    59    54   am
    64    54    53    1
    65    53    52    1
    66    53    56    1
    67    52    58    1
    68    46    45    2
    69    45    44    1
    70    42    40    1
    71    56    57    1
    72    58    57    1
    73    40    39    1
    74    41    39    1
    75    44    47    1
    76    44    43    1
    77    47    48    1
    78    39    36    1
    79    50    49   ar
    80    48    49    1
    81    36    35    1
    82    36    37    1
    83    49    51   ar
    84    37    38    2
