@<TRIPOS>MOLECULE
tmp/3t8xC02.pdb
 165 157 0 0 0
SMALL
GASTEIGER

@<TRIPOS>ATOM
      1  N         71.7970   -5.0940   69.8340 N.3     5  PHE5       -0.1241
      2  CA        72.9220   -5.4800   69.0230 C.3     5  PHE5        0.1605
      3  C         73.8400   -6.3550   69.8870 C.2     5  PHE5        0.2264
      4  O         74.1350   -5.9840   71.0180 O.2     5  PHE5       -0.2867
      5  CB        73.7310   -4.2700   68.5340 C.3     5  PHE5        0.0534
      6  CG        74.9700   -4.6600   67.7780 C.ar    5  PHE5       -0.0203
      7  CD1       74.8630   -5.3140   66.5540 C.ar    5  PHE5       -0.0042
      8  CD2       76.2430   -4.5100   68.3450 C.ar    5  PHE5       -0.0042
      9  CE1       75.9910   -5.7360   65.9010 C.ar    5  PHE5       -0.0003
     10  CE2       77.3720   -4.9660   67.6810 C.ar    5  PHE5       -0.0003
     11  CZ        77.2320   -5.5980   66.4850 C.ar    5  PHE5       -0.0000
     12  N         77.5970   -9.0070   69.5600 N.3     7  VAL7       -0.1245
     13  CA        78.5660   -9.8150   68.8500 C.3     7  VAL7        0.1561
     14  C         78.6910  -11.1770   69.5700 C.2     7  VAL7        0.2260
     15  O         78.5580  -11.2370   70.7790 O.2     7  VAL7       -0.2867
     16  CB        79.9270   -9.1420   68.7620 C.3     7  VAL7        0.0252
     17  CG1       79.8640   -7.9620   67.7930 C.3     7  VAL7        0.0019
     18  CG2       80.4800   -8.7180   70.1440 C.3     7  VAL7        0.0019
     19  N         76.5600   -8.9930   60.4940 N.3    33  HIS33      -0.1241
     20  CA        78.0080   -9.1130   60.2390 C.3    33  HIS33       0.1621
     21  C         78.4080  -10.5220   60.3120 C.2    33  HIS33       0.2264
     22  O         77.9770  -11.2680   61.2280 O.2    33  HIS33      -0.2867
     23  CB        78.9280   -8.3930   61.2510 C.3    33  HIS33       0.0745
     24  CG        78.5150   -7.0200   61.5970 C.ar   33  HIS33       0.0817
     25  ND1       78.1110   -6.6790   62.8260 N.ar   33  HIS33      -0.2268
     26  CD2       78.4660   -5.8730   60.8550 C.ar   33  HIS33       0.1154
     27  CE1       77.7420   -5.3790   62.8260 C.ar   33  HIS33       0.1986
     28  NE2       77.9510   -4.8930   61.6420 N.ar   33  HIS33      -0.2212
     29  N         78.6150    4.8080   61.6710 N.3    53  PHE53      -0.1241
     30  CA        80.0600    4.9210   61.9800 C.3    53  PHE53       0.1605
     31  C         80.8430    5.1760   60.6980 C.2    53  PHE53       0.2264
     32  O         80.4640    4.6670   59.6400 O.2    53  PHE53      -0.2867
     33  CB        80.5430    3.6120   62.6130 C.3    53  PHE53       0.0534
     34  CG        80.2360    3.5020   64.0960 C.ar   53  PHE53      -0.0203
     35  CD1       80.9760    2.6680   64.8770 C.ar   53  PHE53      -0.0042
     36  CD2       79.2460    4.2780   64.7000 C.ar   53  PHE53      -0.0042
     37  CE1       80.7060    2.5720   66.2480 C.ar   53  PHE53      -0.0003
     38  CE2       78.9890    4.2140   66.0800 C.ar   53  PHE53      -0.0003
     39  CZ        79.7220    3.3240   66.8350 C.ar   53  PHE53      -0.0000
     40  N         87.6230   -0.7050   65.0820 N.3    61  LEU61      -0.1245
     41  CA        86.8640   -1.7440   65.7840 C.3    61  LEU61       0.1561
     42  C         87.2980   -3.1660   65.3840 C.2    61  LEU61       0.2260
     43  O         87.5080   -4.0410   66.2600 O.2    61  LEU61      -0.2867
     44  CB        85.3200   -1.5460   65.5520 C.3    61  LEU61       0.0270
     45  CG        84.8930   -0.3910   66.4690 C.3    61  LEU61       0.0019
     46  CD1       83.4420    0.0470   66.2200 C.3    61  LEU61       0.0001
     47  CD2       85.0900   -0.8480   67.9080 C.3    61  LEU61       0.0001
     48  N         90.6560   -4.1090   66.8860 N.3    64  ILE64      -0.1231
     49  CA        90.5070   -4.5360   68.2590 C.3    64  ILE64       0.1692
     50  C         90.0160   -6.0130   68.3040 C.2    64  ILE64       0.2592
     51  O         90.5770   -6.8770   69.0300 O.2    64  ILE64      -0.2718
     52  CB        89.5540   -3.6170   69.0110 C.3    64  ILE64       0.0266
     53  CG1       90.1820   -2.2660   69.2420 C.3    64  ILE64       0.0019
     54  CG2       89.1080   -4.2690   70.2620 C.3    64  ILE64       0.0020
     55  CD1       89.1830   -1.1790   69.6290 C.3    64  ILE64       0.0001
     56  N         88.9830   -6.3290   67.5240 N.am   65  PHE65      -0.1976
     57  CA        88.4350   -7.6780   67.5700 C.3    65  PHE65       0.1639
     58  C         89.5220   -8.7180   67.1040 C.2    65  PHE65       0.2290
     59  O         89.6390   -9.8020   67.6880 O.2    65  PHE65      -0.2864
     60  CB        87.1610   -7.7560   66.7310 C.3    65  PHE65       0.0560
     61  CG        85.9500   -7.0880   67.4100 C.ar   65  PHE65      -0.0200
     62  CD1       85.6490   -7.3520   68.7360 C.ar   65  PHE65      -0.0042
     63  CD2       85.1010   -6.2730   66.6870 C.ar   65  PHE65      -0.0042
     64  CE1       84.5440   -6.7330   69.3650 C.ar   65  PHE65      -0.0003
     65  CE2       83.9980   -5.6660   67.2920 C.ar   65  PHE65      -0.0003
     66  CZ        83.7380   -5.9020   68.6500 C.ar   65  PHE65      -0.0000
     67  N         92.9020   -8.6270   67.0650 N.3    67  VAL67      -0.1231
     68  CA        93.9510   -8.8000   68.1260 C.3    67  VAL67       0.1692
     69  C         93.3970   -9.5310   69.3500 C.2    67  VAL67       0.2592
     70  O         94.0550  -10.3950   69.9540 O.2    67  VAL67      -0.2718
     71  CB        94.5420   -7.3930   68.4620 C.3    67  VAL67       0.0266
     72  CG1       95.5270   -7.4180   69.6000 C.3    67  VAL67       0.0020
     73  CG2       95.1580   -6.7730   67.2020 C.3    67  VAL67       0.0020
     74  N         92.1460   -9.2300   69.7330 N.am   68  TYR68      -0.1976
     75  CA        91.5570   -9.9050   70.9080 C.3    68  TYR68       0.1639
     76  C         91.3900  -11.3810   70.5730 C.2    68  TYR68       0.2290
     77  O         91.7040  -12.2350   71.3750 O.2    68  TYR68      -0.2864
     78  CB        90.1820   -9.3020   71.2990 C.3    68  TYR68       0.0560
     79  CG        89.2720  -10.2950   72.0120 C.ar   68  TYR68      -0.0198
     80  CD1       89.5920  -10.7420   73.2820 C.ar   68  TYR68      -0.0009
     81  CD2       88.1950  -10.8680   71.3930 C.ar   68  TYR68      -0.0009
     82  CE1       88.7950  -11.6300   73.9410 C.ar   68  TYR68       0.0417
     83  CE2       87.3830  -11.7800   72.0570 C.ar   68  TYR68       0.0417
     84  CZ        87.7060  -12.1610   73.3280 C.ar   68  TYR68       0.1957
     85  OH        86.9650  -13.0620   74.0620 O.3    68  TYR68      -0.2866
     86  N         78.4660  -10.2380   73.7730 N.3    95  ALA95      -0.1231
     87  CA        78.6010   -8.8350   74.2970 C.3    95  ALA95       0.1694
     88  C         77.7700   -7.9000   73.4130 C.2    95  ALA95       0.2592
     89  O         77.6730   -8.1060   72.1840 O.2    95  ALA95      -0.2718
     90  CB        80.0600   -8.3060   74.3280 C.3    95  ALA95       0.0304
     91  N         77.1360   -6.9250   74.0240 N.am   96  GLY96      -0.1957
     92  CA        76.3030   -6.0020   73.2550 C.3    96  GLY96       0.1869
     93  C         75.5370   -5.0840   74.1570 C.2    96  GLY96       0.2309
     94  O         75.8550   -4.9000   75.3540 O.2    96  GLY96      -0.2863
     95  N         77.8220   -8.5090   78.8530 N.3   109  LEU109     -0.1245
     96  CA        78.8210   -9.4210   78.3320 C.3   109  LEU109      0.1561
     97  C         78.7370  -10.6400   79.1940 C.2   109  LEU109      0.2260
     98  O         78.8090  -10.5620   80.4620 O.2   109  LEU109     -0.2867
     99  CB        80.2230   -8.8130   78.3620 C.3   109  LEU109      0.0270
    100  CG        81.5110   -9.5440   77.9350 C.3   109  LEU109      0.0019
    101  CD1       82.5980   -8.4930   77.6320 C.3   109  LEU109      0.0001
    102  CD2       82.0060  -10.6030   78.9740 C.3   109  LEU109      0.0001
    103  N         93.0630   -3.6140   79.3900 N.3   149  ILE149     -0.1245
    104  CA        92.0570   -4.5180   78.8410 C.3   149  ILE149      0.1561
    105  C         90.7120   -4.0970   79.4160 C.2   149  ILE149      0.2260
    106  O         89.7300   -3.9640   78.6690 O.2   149  ILE149     -0.2867
    107  CB        92.3290   -5.9530   79.1970 C.3   149  ILE149      0.0252
    108  CG1       93.6130   -6.3930   78.4670 C.3   149  ILE149      0.0019
    109  CG2       91.1050   -6.7960   78.8870 C.3   149  ILE149      0.0019
    110  CD1       94.0030   -7.8710   78.6280 C.3   149  ILE149      0.0001
    111  N         89.4310   -0.8380   77.9140 N.3   152  THR152     -0.1203
    112  CA        88.8750   -1.0730   76.5760 C.3   152  THR152      0.1994
    113  C         87.4270   -1.6950   76.6070 C.2   152  THR152      0.2617
    114  O         86.5300   -1.2800   75.8440 O.2   152  THR152     -0.2717
    115  CB        89.8160   -1.9750   75.7980 C.3   152  THR152      0.1784
    116  OG1       91.0480   -1.2610   75.6560 O.3   152  THR152     -0.2211
    117  CG2       89.3010   -2.2630   74.4360 C.3   152  THR152      0.0376
    118  N         87.2690   -2.7290   77.4090 N.am  153  VAL153     -0.1979
    119  CA        86.0070   -3.4050   77.5340 C.3   153  VAL153      0.1595
    120  C         84.9630   -2.3870   78.0000 C.2   153  VAL153      0.2287
    121  O         83.8920   -2.2870   77.4290 O.2   153  VAL153     -0.2864
    122  CB        86.0580   -4.6010   78.5100 C.3   153  VAL153      0.0276
    123  CG1       84.6440   -5.0860   78.8160 C.3   153  VAL153      0.0022
    124  CG2       86.8130   -5.7630   77.9410 C.3   153  VAL153      0.0022
    125  N         84.0770    0.0240   75.1510 N.3   156  LEU156     -0.1231
    126  CA        83.2790   -0.6550   74.1100 C.3   156  LEU156      0.1693
    127  C         81.8340   -0.9080   74.5550 C.2   156  LEU156      0.2591
    128  O         80.9020   -0.6950   73.7940 O.2   156  LEU156     -0.2718
    129  CB        83.9190   -1.9840   73.6440 C.3   156  LEU156      0.0284
    130  CG        85.2260   -1.8950   72.8430 C.3   156  LEU156      0.0019
    131  CD1       85.8760   -3.2520   72.5050 C.3   156  LEU156      0.0001
    132  CD2       84.9750   -1.1610   71.5500 C.3   156  LEU156      0.0001
    133  N         81.6630   -1.3850   75.7830 N.am  157  LEU157     -0.1980
    134  CA        80.3040   -1.7960   76.2360 C.3   157  LEU157      0.1596
    135  C         79.4140   -0.6170   76.5140 C.2   157  LEU157      0.2287
    136  O         78.2930   -0.5870   76.0880 O.2   157  LEU157     -0.2864
    137  CB        80.3730   -2.6180   77.5070 C.3   157  LEU157      0.0297
    138  CG        80.7690   -4.0570   77.3570 C.3   157  LEU157      0.0022
    139  CD1       80.9960   -4.5950   78.7460 C.3   157  LEU157      0.0001
    140  CD2       79.7400   -4.8360   76.5750 C.3   157  LEU157      0.0001
    141  N         80.7960    2.9360   73.2780 N.3   160  THR160     -0.1203
    142  CA        80.7120    2.6380   71.8480 C.3   160  THR160      0.1994
    143  C         79.3900    1.8890   71.4510 C.2   160  THR160      0.2618
    144  O         78.7250    2.2310   70.4710 O.2   160  THR160     -0.2717
    145  CB        81.8790    1.8170   71.4130 C.3   160  THR160      0.1784
    146  OG1       83.1060    2.3370   71.9790 O.3   160  THR160     -0.2211
    147  CG2       81.9660    1.7510   69.8470 C.3   160  THR160      0.0376
    148  N         79.0540    0.8320   72.1640 N.am  161  CYS161     -0.1969
    149  CA        77.8890    0.0170   71.7770 C.3   161  CYS161      0.1712
    150  C         76.5380    0.8360   71.7470 C.2   161  CYS161      0.2296
    151  O         75.7800    0.7530   70.8260 O.2   161  CYS161     -0.2864
    152  CB        77.7730   -1.2180   72.7270 C.3   161  CYS161      0.0983
    153  SG        76.4910   -2.4160   72.1800 S.3   161  CYS161     -0.0798
    154  N         76.5130    2.9020   68.6100 N.3   164  TYR164     -0.1241
    155  CA        76.4050    2.0560   67.4290 C.3   164  TYR164      0.1605
    156  C         74.9660    1.5800   67.2320 C.2   164  TYR164      0.2264
    157  O         74.4550    1.5790   66.0910 O.2   164  TYR164     -0.2867
    158  CB        77.3550    0.8580   67.4940 C.3   164  TYR164      0.0534
    159  CG        77.1550   -0.0140   66.3260 C.ar  164  TYR164     -0.0201
    160  CD1       76.4740   -1.2230   66.4450 C.ar  164  TYR164     -0.0009
    161  CD2       77.4910    0.4160   65.0390 C.ar  164  TYR164     -0.0009
    162  CE1       76.2650   -2.0170   65.3560 C.ar  164  TYR164      0.0417
    163  CE2       77.2530   -0.3880   63.9190 C.ar  164  TYR164      0.0417
    164  CZ        76.6390   -1.5990   64.0930 C.ar  164  TYR164      0.1957
    165  OH        76.3990   -2.3970   62.9980 O.3   164  TYR164     -0.2866
@<TRIPOS>BOND
     1    32    31    2
     2    20    21    1
     3    20    19    1
     4    20    23    1
     5    21    22    2
     6    31    30    1
     7    26    24   ar
     8    26    28   ar
     9    23    24    1
    10    24    25   ar
    11    28    27   ar
    12    29    30    1
    13    30    33    1
    14    33    34    1
    15    27    25   ar
    16   165   164    1
    17   163   164   ar
    18   163   161   ar
    19   164   162   ar
    20    34    36   ar
    21    34    35   ar
    22    36    38   ar
    23    35    37   ar
    24   161   159   ar
    25    40    41    1
    26   162   160   ar
    27    42    41    1
    28    42    43    2
    29    44    41    1
    30    44    45    1
    31     9    11   ar
    32     9     7   ar
    33    38    39   ar
    34   157   156    2
    35    46    45    1
    36    37    39   ar
    37   159   160   ar
    38   159   158    1
    39    45    47    1
    40    11    10   ar
    41     7     6   ar
    42    63    65   ar
    43    63    61   ar
    44    60    61    1
    45    60    57    1
    46    48    49    1
    47    67    68    1
    48    58    57    1
    49    58    59    2
    50    73    71    1
    51   156   155    1
    52    65    66   ar
    53    61    62   ar
    54   155   158    1
    55   155   154    1
    56    56    57    1
    57    56    50   am
    58    10     8   ar
    59     6     8   ar
    60     6     5    1
    61    17    16    1
    62    68    71    1
    63    68    69    1
    64    49    50    1
    65    49    52    1
    66    50    51    2
    67    71    72    1
    68     5     2    1
    69    66    64   ar
    70    62    64   ar
    71    16    13    1
    72    16    18    1
    73    13    12    1
    74    13    14    1
    75    52    53    1
    76    52    54    1
    77     2     1    1
    78     2     3    1
    79    53    55    1
    80    69    74   am
    81    69    70    2
    82    14    15    2
    83    74    75    1
    84   147   145    1
    85     3     4    2
    86   144   143    2
    87    76    75    1
    88    76    77    2
    89   151   150    2
    90    75    78    1
    91    78    79    1
    92    81    79   ar
    93    81    83   ar
    94   145   142    1
    95   145   146    1
    96   143   142    1
    97   143   148   am
    98   132   130    1
    99   150   149    1
   100   149   148    1
   101   149   152    1
   102   142   141    1
   103    79    80   ar
   104    83    84   ar
   105   153   152    1
   106    89    88    2
   107   131   130    1
   108   130   129    1
   109    92    91    1
   110    92    93    1
   111    80    82   ar
   112    84    82   ar
   113    84    85    1
   114    88    91   am
   115    88    87    1
   116   129   126    1
   117    86    87    1
   118   128   127    2
   119   126   127    1
   120   126   125    1
   121    93    94    2
   122    87    90    1
   123   117   115    1
   124   127   133   am
   125   116   115    1
   126   133   134    1
   127   115   112    1
   128   114   113    2
   129   136   135    2
   130   134   135    1
   131   134   137    1
   132   140   138    1
   133   112   113    1
   134   112   111    1
   135   113   118   am
   136   138   137    1
   137   138   139    1
   138   118   119    1
   139   121   120    2
   140   119   120    1
   141   119   122    1
   142   101   100    1
   143   100    99    1
   144   100   102    1
   145   124   122    1
   146    96    99    1
   147    96    95    1
   148    96    97    1
   149   108   110    1
   150   108   107    1
   151   122   123    1
   152   106   105    2
   153   104   107    1
   154   104   103    1
   155   104   105    1
   156   109   107    1
   157    97    98    2
