@<TRIPOS>MOLECULE
tmp/3t90A00.pdb
 135 131 0 0 0
SMALL
GASTEIGER

@<TRIPOS>ATOM
      1  N         13.5720   -6.5930   15.3980 N.3    24  LEU24      -0.1245
      2  CA        14.8250   -7.0020   16.1100 C.3    24  LEU24       0.1561
      3  C         14.5220   -7.1060   17.5850 C.2    24  LEU24       0.2260
      4  O         14.7670   -8.2080   18.1580 O.2    24  LEU24      -0.2867
      5  CB        15.9490   -6.0000   15.8210 C.3    24  LEU24       0.0270
      6  CG        17.2510   -6.2800   16.5800 C.3    24  LEU24       0.0019
      7  CD1       17.9090   -7.5850   16.2590 C.3    24  LEU24       0.0001
      8  CD2       18.2170   -5.0800   16.1800 C.3    24  LEU24       0.0001
      9  N         21.1290   -4.1540   13.1510 N.3    87  VAL87      -0.1231
     10  CA        20.9100   -4.6600   11.7580 C.3    87  VAL87       0.1692
     11  C         19.6400   -5.4960   11.6670 C.2    87  VAL87       0.2592
     12  O         19.4570   -6.4490   12.3950 O.2    87  VAL87      -0.2718
     13  CB        22.1140   -5.4770   11.3310 C.3    87  VAL87       0.0266
     14  CG1       21.8490   -6.0080    9.8930 C.3    87  VAL87       0.0020
     15  CG2       23.4450   -4.6240   11.3140 C.3    87  VAL87       0.0020
     16  N         18.7020   -5.0640   10.8040 N.am   88  VAL88      -0.1966
     17  CA        17.4200   -5.8200   10.7070 C.3    88  VAL88       0.1727
     18  C         16.8680   -5.6020    9.3080 C.2    88  VAL88       0.2616
     19  O         17.0070   -4.5330    8.7220 O.2    88  VAL88      -0.2715
     20  CB        16.4310   -5.4340   11.8560 C.3    88  VAL88       0.0290
     21  CG1       16.1200   -4.0980   11.8240 C.3    88  VAL88       0.0023
     22  CG2       15.1180   -6.2370   11.7470 C.3    88  VAL88       0.0023
     23  N         16.3720   -6.6970    8.7270 N.am   89  VAL89      -0.1977
     24  CA        15.6850   -6.6760    7.4320 C.3    89  VAL89       0.1596
     25  C         14.2530   -7.0710    7.6570 C.2    89  VAL89       0.2287
     26  O         13.9860   -8.0580    8.3610 O.2    89  VAL89      -0.2864
     27  CB        16.3830   -7.6370    6.4530 C.3    89  VAL89       0.0276
     28  CG1       15.6690   -7.5820    5.0400 C.3    89  VAL89       0.0022
     29  CG2       17.7620   -7.2430    6.3240 C.3    89  VAL89       0.0022
     30  N         11.0230   -8.9570    3.1350 N.3    93  PHE93      -0.1227
     31  CA        12.0420   -8.7030    2.1360 C.3    93  PHE93       0.1736
     32  C         13.2670   -9.5370    2.3970 C.2    93  PHE93       0.2595
     33  O         14.3520   -9.1720    1.9770 O.2    93  PHE93      -0.2718
     34  CB        12.4280   -7.1930    2.0890 C.3    93  PHE93       0.0547
     35  CG        11.2960   -6.2480    1.6360 C.ar   93  PHE93      -0.0202
     36  CD1       10.7820   -6.3080    0.3180 C.ar   93  PHE93      -0.0042
     37  CD2       10.7800   -5.2600    2.4980 C.ar   93  PHE93      -0.0042
     38  CE1        9.7770   -5.4760   -0.0760 C.ar   93  PHE93      -0.0003
     39  CE2        9.7740   -4.3990    2.0750 C.ar   93  PHE93      -0.0003
     40  CZ         9.2710   -4.5170    0.7650 C.ar   93  PHE93      -0.0000
     41  N         13.1400  -10.6360    3.1330 N.am   94  ARG94      -0.1966
     42  CA        14.3160  -11.4770    3.3750 C.3    94  ARG94       0.1729
     43  C         14.6390  -12.2540    2.0760 C.2    94  ARG94       0.2616
     44  O         13.7630  -12.3930    1.2370 O.2    94  ARG94      -0.2715
     45  CB        14.1750  -12.2930    4.6710 C.3    94  ARG94       0.0348
     46  CG        14.0490  -11.3120    5.9020 C.3    94  ARG94       0.0492
     47  CD        14.4660  -11.8510    7.2620 C.3    94  ARG94       0.2205
     48  NE        14.1010  -10.8430    8.2380 N.pl3  94  ARG94      -0.0865
     49  CZ        13.5650  -11.0370    9.4520 C.cat  94  ARG94       0.5346
     50  NH1       13.2990  -12.2850    9.8730 N.pl3  94  ARG94       0.1354
     51  NH2       13.2690   -9.9530   10.2470 N.pl3  94  ARG94       0.1354
     52  N         15.9010  -12.5730    1.8490 N.am   95  GLY95      -0.1955
     53  CA        16.2620  -13.2390    0.5500 C.3    95  GLY95       0.1869
     54  C         16.5500  -12.2780   -0.6140 C.2    95  GLY95       0.2309
     55  O         16.8700  -12.7250   -1.7480 O.2    95  GLY95      -0.2863
     56  N         18.8870   -9.8660   -0.4540 N.3    97  GLN97      -0.1231
     57  CA        20.2380   -9.4710   -0.2370 C.3    97  GLN97       0.1698
     58  C         20.3820   -8.0530    0.3550 C.2    97  GLN97       0.2592
     59  O         21.4070   -7.3700    0.2260 O.2    97  GLN97      -0.2718
     60  CB        21.0330   -9.6790   -1.5150 C.3    97  GLN97       0.0381
     61  CG        21.0870  -11.1770   -1.9680 C.3    97  GLN97       0.0905
     62  CD        19.7400  -11.7670   -2.3720 C.2    97  GLN97       0.2608
     63  OE1       18.9390  -11.0960   -3.0250 O.2    97  GLN97      -0.2717
     64  NE2       19.5100  -13.0480   -2.0330 N.am   97  GLN97      -0.0878
     65  N         19.3570   -7.6270    1.0860 N.am   98  LEU98      -0.1966
     66  CA        19.4130   -6.3020    1.6820 C.3    98  LEU98       0.1728
     67  C         20.3510   -6.2220    2.8890 C.2    98  LEU98       0.2616
     68  O         21.0130   -5.2000    3.1020 O.2    98  LEU98      -0.2715
     69  CB        17.9950   -5.8510    2.0670 C.3    98  LEU98       0.0311
     70  CG        16.9590   -5.7480    0.9200 C.3    98  LEU98       0.0022
     71  CD1       15.7280   -5.1130    1.5300 C.3    98  LEU98       0.0001
     72  CD2       17.4930   -4.8630   -0.2840 C.3    98  LEU98       0.0001
     73  N         20.3890   -7.2880    3.6960 N.am   99  GLY99      -0.1955
     74  CA        21.2610   -7.1650    4.8440 C.3    99  GLY99       0.1869
     75  C         22.7170   -7.0870    4.4820 C.2    99  GLY99       0.2309
     76  O         23.4490   -6.2950    5.0690 O.2    99  GLY99      -0.2863
     77  N         30.6890   -6.8200   15.2740 N.3   120  LEU120     -0.1231
     78  CA        29.2290   -6.8500   15.5820 C.3   120  LEU120      0.1693
     79  C         28.9620   -8.1400   16.3100 C.2   120  LEU120      0.2592
     80  O         29.8230   -9.0310   16.3860 O.2   120  LEU120     -0.2718
     81  CB        28.3540   -6.7340   14.3420 C.3   120  LEU120      0.0284
     82  CG        28.5260   -7.8430   13.2510 C.3   120  LEU120      0.0019
     83  CD1       27.7480   -9.1360   13.6070 C.3   120  LEU120      0.0001
     84  CD2       28.1320   -7.2200   11.8290 C.3   120  LEU120      0.0001
     85  N         27.7930   -8.2330   16.9190 N.am  121  ASP121     -0.1960
     86  CA        27.3530   -9.4980   17.5670 C.3   121  ASP121      0.1840
     87  C         26.1110  -10.0340   16.8780 C.2   121  ASP121      0.2622
     88  O         25.2720   -9.2710   16.3750 O.2   121  ASP121     -0.2715
     89  CB        27.1330   -9.2530   19.0710 C.3   121  ASP121      0.1450
     90  CG        28.3450   -8.6750   19.7830 C.2   121  ASP121      0.3671
     91  OD1       29.3310   -9.3920   19.9580 O.co2 121  ASP121     -0.2456
     92  OD2       28.2670   -7.5600   20.3520 O.co2 121  ASP121     -0.2456
     93  N         26.0310  -11.3710   16.8570 N.am  122  CYS122     -0.1954
     94  CA        24.8970  -12.0530   16.1970 C.3   122  CYS122      0.1843
     95  C         24.6150  -13.3600   16.8500 C.2   122  CYS122      0.2626
     96  O         25.4090  -13.8420   17.6630 O.2   122  CYS122     -0.2714
     97  CB        25.1260  -12.2060   14.6930 C.3   122  CYS122      0.0997
     98  SG        26.4790  -13.2880   14.3090 S.3   122  CYS122     -0.0797
     99  N         23.4870  -13.9700   16.4810 N.am  123  SER123     -0.1950
    100  CA        23.2410  -15.3390   16.9110 C.3   123  SER123      0.1924
    101  C         24.2050  -16.2940   16.2580 C.2   123  SER123      0.2314
    102  O         24.7110  -16.0660   15.1500 O.2   123  SER123     -0.2863
    103  CB        21.7970  -15.7800   16.6050 C.3   123  SER123      0.2116
    104  OG        21.6540  -15.8170   15.1420 O.3   123  SER123     -0.2180
    105  N         23.3760  -17.0040   12.6510 N.3   126  ASN126     -0.1240
    106  CA        23.7070  -15.9780   11.6400 C.3   126  ASN126      0.1653
    107  C         25.2180  -15.8420   11.3700 C.2   126  ASN126      0.2266
    108  O         25.5920  -14.9810   10.5730 O.2   126  ASN126     -0.2867
    109  CB        23.0570  -14.6500   12.0590 C.3   126  ASN126      0.1155
    110  CG        21.5450  -14.6800   11.9210 C.2   126  ASN126      0.2627
    111  OD1       21.0080  -15.1970   10.9260 O.2   126  ASN126     -0.2716
    112  ND2       20.8430  -14.0800   12.8760 N.am  126  ASN126     -0.0877
    113  N         25.9750  -16.0400    7.5810 N.3   129  PHE129     -0.1227
    114  CA        25.6280  -14.8220    6.8990 C.3   129  PHE129      0.1736
    115  C         26.7630  -13.8040    6.9240 C.2   129  PHE129      0.2595
    116  O         27.1670  -13.2360    5.9130 O.2   129  PHE129     -0.2718
    117  CB        24.3440  -14.1740    7.4700 C.3   129  PHE129      0.0547
    118  CG        24.0510  -12.8450    6.8600 C.ar  129  PHE129     -0.0202
    119  CD1       23.4240  -12.7210    5.5990 C.ar  129  PHE129     -0.0042
    120  CD2       24.4010  -11.6940    7.5330 C.ar  129  PHE129     -0.0042
    121  CE1       23.1940  -11.4250    5.0980 C.ar  129  PHE129     -0.0003
    122  CE2       24.1630  -10.3820    7.0100 C.ar  129  PHE129     -0.0003
    123  CZ        23.5790  -10.2990    5.7620 C.ar  129  PHE129     -0.0000
    124  N         27.2650  -13.5470    8.1310 N.am  130  TYR130     -0.1976
    125  CA        28.3110  -12.5650    8.2610 C.3   130  TYR130      0.1639
    126  C         29.6360  -13.0520    7.7170 C.2   130  TYR130      0.2290
    127  O         30.4350  -12.2260    7.2990 O.2   130  TYR130     -0.2864
    128  CB        28.4240  -12.0740    9.7360 C.3   130  TYR130      0.0560
    129  CG        27.2140  -11.2500   10.1220 C.ar  130  TYR130     -0.0198
    130  CD1       27.0690   -9.9740    9.5790 C.ar  130  TYR130     -0.0009
    131  CD2       26.1850  -11.7630   10.9050 C.ar  130  TYR130     -0.0009
    132  CE1       25.9640   -9.1750    9.9070 C.ar  130  TYR130      0.0417
    133  CE2       25.0660  -11.0080   11.2000 C.ar  130  TYR130      0.0417
    134  CZ        24.9720   -9.7220   10.7050 C.ar  130  TYR130      0.1957
    135  OH        23.8650   -8.9540   11.0650 O.3   130  TYR130     -0.2866
@<TRIPOS>BOND
     1    63    62    2
     2    62    64   am
     3    62    61    1
     4    61    60    1
     5    55    54    2
     6    60    57    1
     7    54    53    1
     8    56    57    1
     9    72    70    1
    10    57    58    1
    11    38    36   ar
    12    38    40   ar
    13    59    58    2
    14    36    35   ar
    15    58    65   am
    16    53    52    1
    17    40    39   ar
    18    70    71    1
    19    70    69    1
    20    65    66    1
    21    44    43    2
    22    35    34    1
    23    35    37   ar
    24    66    69    1
    25    66    67    1
    26    52    43   am
    27    33    32    2
    28    39    37   ar
    29    43    42    1
    30    34    31    1
    31    31    32    1
    32    31    30    1
    33    32    41   am
    34    67    68    2
    35    67    73   am
    36    41    42    1
    37    42    45    1
    38    73    74    1
    39    75    74    1
    40    75    76    2
    41    45    46    1
    42    28    27    1
    43   121   119   ar
    44   121   123   ar
    45   119   118   ar
    46   123   122   ar
    47    46    47    1
    48   116   115    2
    49    29    27    1
    50    27    24    1
    51   118   117    1
    52   118   120   ar
    53   114   115    1
    54   114   117    1
    55   114   113    1
    56   115   124   am
    57   122   120   ar
    58    47    48    1
    59   127   126    2
    60    24    25    1
    61    24    23    1
    62    25    26    2
    63   126   125    1
    64   124   125    1
    65    48    49    2
    66   125   128    1
    67    19    18    2
    68    23    18   am
    69    18    17    1
    70    49    50    1
    71    49    51    1
    72   130   132   ar
    73   130   129   ar
    74   128   129    1
    75    14    13    1
    76   132   134   ar
    77   129   131   ar
    78   108   107    2
    79   134   135    1
    80   134   133   ar
    81    17    16    1
    82    17    20    1
    83    16    11   am
    84   131   133   ar
    85   111   110    2
    86    15    13    1
    87    13    10    1
    88   107   106    1
    89   106   109    1
    90   106   105    1
    91    11    10    1
    92    11    12    2
    93    22    20    1
    94    10     9    1
    95    21    20    1
    96    84    82    1
    97   110   109    1
    98   110   112   am
    99    82    83    1
   100    82    81    1
   101    98    97    1
   102    81    78    1
   103    97    94    1
   104   104   103    1
   105   102   101    2
   106    77    78    1
   107     1     2    1
   108    78    79    1
   109     5     2    1
   110     5     6    1
   111     2     3    1
   112     8     6    1
   113    94    95    1
   114    94    93    1
   115   101   100    1
   116     7     6    1
   117    79    80    2
   118    79    85   am
   119    88    87    2
   120    99    95   am
   121    99   100    1
   122   103   100    1
   123    95    96    2
   124    93    87   am
   125    87    86    1
   126    85    86    1
   127    86    89    1
   128     3     4    2
   129    89    90    1
   130    90    91   ar
   131    90    92   ar
