@<TRIPOS>MOLECULE
tmp/3t94C00.pdb
 156 147 0 0 0
SMALL
GASTEIGER

@<TRIPOS>ATOM
      1  N         -0.8990  -11.4970  -26.0360 N.3    16  SER16      -0.1217
      2  CA        -0.8880  -12.9560  -25.9540 C.3    16  SER16       0.1889
      3  C         -0.3910  -13.5930  -27.2430 C.2    16  SER16       0.2288
      4  O         -0.8140  -13.2190  -28.3370 O.2    16  SER16      -0.2866
      5  CB        -2.2860  -13.4870  -25.6310 C.3    16  SER16       0.2089
      6  OG        -2.7190  -13.0370  -24.3640 O.3    16  SER16      -0.2183
      7  N          3.0030   -9.1750  -21.3740 N.3    59  HIS59      -0.1241
      8  CA         2.9000  -10.2180  -20.3470 C.3    59  HIS59       0.1621
      9  C          4.2410  -10.7710  -19.9060 C.2    59  HIS59       0.2264
     10  O          4.2950  -11.6360  -19.0280 O.2    59  HIS59      -0.2867
     11  CB         2.0180  -11.3690  -20.8200 C.3    59  HIS59       0.0745
     12  CG         0.6280  -10.9500  -21.1480 C.ar   59  HIS59       0.0817
     13  ND1       -0.3220  -10.6960  -20.1830 N.ar   59  HIS59      -0.2268
     14  CD2        0.0310  -10.7270  -22.3410 C.ar   59  HIS59       0.1154
     15  CE1       -1.4500  -10.3340  -20.7710 C.ar   59  HIS59       0.1986
     16  NE2       -1.2610  -10.3370  -22.0780 N.ar   59  HIS59      -0.2212
     17  N          4.7780  -15.4360  -20.5960 N.3    63  HIS63      -0.1241
     18  CA         3.4410  -14.9440  -20.2390 C.3    63  HIS63       0.1621
     19  C          3.2460  -15.0080  -18.7230 C.2    63  HIS63       0.2264
     20  O          2.2490  -15.5290  -18.2210 O.2    63  HIS63      -0.2867
     21  CB         2.3510  -15.7520  -20.9670 C.3    63  HIS63       0.0745
     22  CG         1.0340  -15.0480  -21.0550 C.ar   63  HIS63       0.0817
     23  ND1        0.4530  -14.7110  -22.2580 N.ar   63  HIS63      -0.2268
     24  CD2        0.1860  -14.6110  -20.0930 C.ar   63  HIS63       0.1154
     25  CE1       -0.6980  -14.0970  -22.0350 C.ar   63  HIS63       0.1986
     26  NE2       -0.8860  -14.0280  -20.7280 N.ar   63  HIS63      -0.2212
     27  N         -3.0310   -9.4480  -16.7950 N.3    67  PRO67      -0.2116
     28  CA        -3.3950   -8.0660  -17.1360 C.3    67  PRO67       0.1372
     29  C         -3.4870   -7.1360  -15.9290 C.2    67  PRO67       0.2244
     30  O         -3.0850   -5.9800  -16.0160 O.2    67  PRO67      -0.2868
     31  CB        -4.7780   -8.2220  -17.7850 C.3    67  PRO67       0.0268
     32  CG        -4.7250   -9.6040  -18.4070 C.3    67  PRO67       0.0207
     33  CD        -3.9670  -10.4280  -17.3800 C.3    67  PRO67       0.0892
     34  N         -4.9640   -9.8870  -28.3610 N.3    92  ALA92      -0.1231
     35  CA        -5.9570  -10.9280  -28.5530 C.3    92  ALA92       0.1694
     36  C         -7.2590  -10.4490  -27.9300 C.2    92  ALA92       0.2592
     37  O         -7.2620   -9.9610  -26.7830 O.2    92  ALA92      -0.2718
     38  CB        -5.4960  -12.2110  -27.8630 C.3    92  ALA92       0.0304
     39  N         -8.3620  -10.5810  -28.6600 N.am   93  VAL93      -0.1966
     40  CA        -9.6680  -10.1830  -28.1460 C.3    93  VAL93       0.1727
     41  C        -10.7360  -11.2300  -28.3760 C.2    93  VAL93       0.2616
     42  O        -10.6280  -12.0770  -29.2740 O.2    93  VAL93      -0.2715
     43  CB       -10.1740   -8.8510  -28.7450 C.3    93  VAL93       0.0290
     44  CG1       -9.2130   -7.7220  -28.3930 C.3    93  VAL93       0.0023
     45  CG2      -10.3960   -8.9870  -30.2700 C.3    93  VAL93       0.0023
     46  N        -11.7690  -11.1790  -27.5550 N.am   94  GLY94      -0.1955
     47  CA       -12.9740  -11.9270  -27.8140 C.3    94  GLY94       0.1869
     48  C        -13.9140  -11.1240  -28.6930 C.2    94  GLY94       0.2309
     49  O        -13.9160   -9.8840  -28.6430 O.2    94  GLY94      -0.2863
     50  N        -13.9700   -1.5860  -28.2220 N.3   162  TYR162     -0.1241
     51  CA       -13.3170   -2.5360  -27.3220 C.3   162  TYR162      0.1605
     52  C        -13.7740   -2.2830  -25.8870 C.2   162  TYR162      0.2264
     53  O        -13.5810   -1.1880  -25.3420 O.2   162  TYR162     -0.2867
     54  CB       -11.8090   -2.3310  -27.4680 C.3   162  TYR162      0.0534
     55  CG       -10.8320   -3.1890  -26.6690 C.ar  162  TYR162     -0.0201
     56  CD1       -9.7820   -3.8310  -27.3200 C.ar  162  TYR162     -0.0009
     57  CD2      -10.9010   -3.3000  -25.2770 C.ar  162  TYR162     -0.0009
     58  CE1       -8.8290   -4.5770  -26.6270 C.ar  162  TYR162      0.0417
     59  CE2       -9.9440   -4.0400  -24.5700 C.ar  162  TYR162      0.0417
     60  CZ        -8.9210   -4.6760  -25.2500 C.ar  162  TYR162      0.1957
     61  OH        -7.9810   -5.3960  -24.5220 O.3   162  TYR162     -0.2866
     62  N        -12.1430   -5.2480  -19.6200 N.3   165  ILE165     -0.1245
     63  CA       -12.5520   -5.7230  -18.3050 C.3   165  ILE165      0.1561
     64  C        -11.3250   -5.9910  -17.4360 C.2   165  ILE165      0.2260
     65  O        -10.1910   -6.0730  -17.9130 O.2   165  ILE165     -0.2867
     66  CB       -13.4550   -6.9810  -18.4030 C.3   165  ILE165      0.0252
     67  CG1      -12.6910   -8.1120  -19.0890 C.3   165  ILE165      0.0019
     68  CG2      -14.7590   -6.6650  -19.1390 C.3   165  ILE165      0.0019
     69  CD1      -13.3900   -9.4690  -18.9930 C.3   165  ILE165      0.0001
     70  N        -12.8160  -14.5630  -17.0230 N.3   170  PHE170     -0.1241
     71  CA       -13.6330  -14.1390  -18.1430 C.3   170  PHE170      0.1605
     72  C        -15.0390  -13.7510  -17.6490 C.2   170  PHE170      0.2264
     73  O        -15.4270  -14.0520  -16.5210 O.2   170  PHE170     -0.2867
     74  CB       -13.6850  -15.2460  -19.1980 C.3   170  PHE170      0.0534
     75  CG       -12.3590  -15.5160  -19.8770 C.ar  170  PHE170     -0.0203
     76  CD1      -11.7800  -14.5820  -20.7130 C.ar  170  PHE170     -0.0042
     77  CD2      -11.7220  -16.7370  -19.7130 C.ar  170  PHE170     -0.0042
     78  CE1      -10.5720  -14.8570  -21.3660 C.ar  170  PHE170     -0.0003
     79  CE2      -10.5320  -17.0150  -20.3530 C.ar  170  PHE170     -0.0003
     80  CZ        -9.9520  -16.0820  -21.1780 C.ar  170  PHE170     -0.0000
     81  N        -13.6930   -7.6170  -26.8680 N.3   188  ILE188     -0.1231
     82  CA       -13.4460   -7.5890  -25.4370 C.3   188  ILE188      0.1692
     83  C        -12.0480   -8.0840  -25.0980 C.2   188  ILE188      0.2593
     84  O        -11.5500   -9.0560  -25.6780 O.2   188  ILE188     -0.2718
     85  CB       -14.5340   -8.3830  -24.6810 C.3   188  ILE188      0.0266
     86  CG1      -14.3500   -8.2790  -23.1730 C.3   188  ILE188      0.0019
     87  CG2      -14.6110   -9.8470  -25.1860 C.3   188  ILE188      0.0020
     88  CD1      -15.5870   -8.7190  -22.4070 C.3   188  ILE188      0.0001
     89  N        -11.4010   -7.3900  -24.1640 N.am  189  GLY189     -0.1942
     90  CA       -10.0760   -7.7700  -23.7160 C.3   189  GLY189      0.2014
     91  C         -9.8120   -7.2080  -22.3420 C.2   189  GLY189      0.2639
     92  O        -10.6980   -6.6100  -21.7290 O.2   189  GLY189     -0.2714
     93  N         -8.5830   -7.3880  -21.8700 N.am  190  MET190     -0.1963
     94  CA        -8.2340   -7.0370  -20.4950 C.3   190  MET190      0.1736
     95  C         -7.0710   -6.0640  -20.3740 C.2   190  MET190      0.2617
     96  O         -6.7210   -5.6820  -19.2540 O.2   190  MET190     -0.2715
     97  CB        -7.8690   -8.2970  -19.7060 C.3   190  MET190      0.0427
     98  CG        -9.0370   -9.2640  -19.5280 C.3   190  MET190      0.0599
     99  SD        -8.4950  -10.7950  -18.7590 S.3   190  MET190     -0.1393
    100  CE        -9.9840  -11.7860  -18.9100 C.3   190  MET190      0.0692
    101  N         -6.4630   -5.6760  -21.4890 N.am  191  THR191     -0.1951
    102  CA        -5.1750   -4.9780  -21.4300 C.3   191  THR191      0.1897
    103  C         -5.1300   -3.5870  -22.0560 C.2   191  THR191      0.2313
    104  O         -4.1230   -2.8870  -21.9170 O.2   191  THR191     -0.2863
    105  CB        -4.0680   -5.8120  -22.1010 C.3   191  THR191      0.1794
    106  OG1       -4.4420   -6.0730  -23.4580 O.3   191  THR191     -0.2208
    107  CG2       -3.8850   -7.1470  -21.4000 C.3   191  THR191      0.0378
    108  N         -9.7960  -14.0330  -31.1560 N.3   213  THR213     -0.1203
    109  CA        -9.3000  -15.3490  -30.7820 C.3   213  THR213      0.1994
    110  C        -10.3870  -16.2510  -30.2170 C.2   213  THR213      0.2617
    111  O        -10.1540  -17.4350  -29.9770 O.2   213  THR213     -0.2717
    112  CB        -8.1650  -15.2310  -29.7670 C.3   213  THR213      0.1784
    113  OG1       -8.6090  -14.4710  -28.6340 O.3   213  THR213     -0.2211
    114  CG2       -6.9750  -14.5150  -30.3990 C.3   213  THR213      0.0376
    115  N        -11.5760  -15.6980  -30.0040 N.am  214  ASP214     -0.1973
    116  CA       -12.6650  -16.4700  -29.4180 C.3   214  ASP214      0.1709
    117  C        -13.9680  -15.7020  -29.5520 C.2   214  ASP214      0.2293
    118  O        -13.9520  -14.5180  -29.8760 O.2   214  ASP214     -0.2864
    119  CB       -12.3800  -16.7510  -27.9390 C.3   214  ASP214      0.1436
    120  CG       -12.1970  -15.4810  -27.1320 C.2   214  ASP214      0.3671
    121  OD1      -11.0500  -14.9800  -27.0330 O.co2 214  ASP214     -0.2456
    122  OD2      -13.2040  -14.9750  -26.5920 O.co2 214  ASP214     -0.2456
    123  N        -16.0940  -15.2400  -26.9930 N.3   216  ASP216     -0.1239
    124  CA       -16.5060  -14.9970  -25.6130 C.3   216  ASP216      0.1674
    125  C        -17.4820  -16.0880  -25.1260 C.2   216  ASP216      0.2266
    126  O        -17.1900  -17.2830  -25.2600 O.2   216  ASP216     -0.2867
    127  CB       -17.0800  -13.5840  -25.4670 C.3   216  ASP216      0.1410
    128  CG       -17.1990  -13.1490  -24.0130 C.2   216  ASP216      0.3668
    129  OD1      -18.3410  -12.9270  -23.5570 O.co2 216  ASP216     -0.2456
    130  OD2      -16.1560  -13.0530  -23.3180 O.co2 216  ASP216     -0.2456
    131  N        -15.4180  -19.2550  -24.1600 N.3   223  VAL223     -0.1245
    132  CA       -13.9880  -18.9700  -24.2180 C.3   223  VAL223      0.1561
    133  C        -13.2150  -19.5970  -23.0660 C.2   223  VAL223      0.2260
    134  O        -13.6730  -19.5970  -21.9170 O.2   223  VAL223     -0.2867
    135  CB       -13.7270  -17.4520  -24.2100 C.3   223  VAL223      0.0252
    136  CG1      -14.3380  -16.8000  -22.9700 C.3   223  VAL223      0.0019
    137  CG2      -12.2250  -17.1740  -24.2810 C.3   223  VAL223      0.0019
    138  N         -8.7810  -19.9480  -21.8230 N.3   225  ALA225     -0.1245
    139  CA        -7.4370  -19.4730  -22.1180 C.3   225  ALA225      0.1562
    140  C         -6.7580  -20.3380  -23.1740 C.2   225  ALA225      0.2260
    141  O         -6.0030  -19.8450  -24.0170 O.2   225  ALA225     -0.2867
    142  CB        -6.6030  -19.4570  -20.8590 C.3   225  ALA225      0.0290
    143  N         -7.7960  -19.2160  -26.6100 N.3   228  VAL228     -0.1231
    144  CA        -7.1630  -17.9640  -26.9900 C.3   228  VAL228      0.1692
    145  C         -5.7480  -18.2070  -27.5070 C.2   228  VAL228      0.2592
    146  O         -5.3630  -17.7080  -28.5660 O.2   228  VAL228     -0.2718
    147  CB        -7.1340  -16.9600  -25.8220 C.3   228  VAL228      0.0266
    148  CG1       -6.3670  -15.7120  -26.2250 C.3   228  VAL228      0.0020
    149  CG2       -8.5510  -16.5950  -25.4090 C.3   228  VAL228      0.0020
    150  N         -4.9810  -18.9790  -26.7460 N.am  229  THR229     -0.1953
    151  CA        -3.6110  -19.3030  -27.1080 C.3   229  THR229      0.1897
    152  C         -3.5520  -20.0160  -28.4600 C.2   229  THR229      0.2313
    153  O         -2.7880  -19.6300  -29.3470 O.2   229  THR229     -0.2863
    154  CB        -2.9590  -20.1760  -26.0180 C.3   229  THR229      0.1794
    155  OG1       -2.9310  -19.4530  -24.7810 O.3   229  THR229     -0.2208
    156  CG2       -1.5440  -20.5630  -26.4130 C.3   229  THR229      0.0378
@<TRIPOS>BOND
     1   108   109    1
     2   109   110    1
     3   109   112    1
     4   114   112    1
     5    45    43    1
     6   110   115   am
     7   110   111    2
     8   115   116    1
     9   118   117    2
    10   112   113    1
    11   117   116    1
    12   116   119    1
    13   153   152    2
    14    42    41    2
    15    43    44    1
    16    43    40    1
    17    48    49    2
    18    48    47    1
    19    39    40    1
    20    39    36   am
    21   146   145    2
    22    35    34    1
    23    35    36    1
    24    35    38    1
    25   152   151    1
    26    41    40    1
    27    41    46   am
    28     4     3    2
    29    50    51    1
    30   119   120    1
    31    36    37    2
    32    47    46    1
    33   145   144    1
    34   145   150   am
    35    54    51    1
    36    54    55    1
    37    51    52    1
    38    56    55   ar
    39    56    58   ar
    40     3     2    1
    41   120   121   ar
    42   120   122   ar
    43   151   150    1
    44   151   154    1
    45   123   124    1
    46   144   143    1
    47   144   147    1
    48    81    82    1
    49    55    57   ar
    50    58    60   ar
    51   156   154    1
    52   148   147    1
    53     1     2    1
    54   154   155    1
    55     2     5    1
    56    52    53    2
    57   147   149    1
    58    84    83    2
    59     5     6    1
    60   124   127    1
    61   124   125    1
    62   127   128    1
    63    82    83    1
    64    82    85    1
    65    57    59   ar
    66   126   125    2
    67    60    59   ar
    68    60    61    1
    69    87    85    1
    70    83    89   am
    71    85    86    1
    72   137   135    1
    73   132   135    1
    74   132   131    1
    75   132   133    1
    76   135   136    1
    77    89    90    1
    78   141   140    2
    79   128   129   ar
    80   128   130   ar
    81    90    91    1
    82   106   105    1
    83   140   139    1
    84    86    88    1
    85   133   134    2
    86    91    93   am
    87    91    92    2
    88    14    16   ar
    89    14    12   ar
    90    23    25   ar
    91    23    22   ar
    92   139   138    1
    93   139   142    1
    94   105   102    1
    95   105   107    1
    96    16    15   ar
    97   103   104    2
    98   103   102    1
    99    25    26   ar
   100    93    94    1
   101   101   102    1
   102   101    95   am
   103     7     8    1
   104    78    80   ar
   105    78    76   ar
   106    80    79   ar
   107    12    11    1
   108    12    13   ar
   109    22    21    1
   110    22    24   ar
   111    21    18    1
   112    11     8    1
   113    15    13   ar
   114    26    24   ar
   115    76    75   ar
   116    17    18    1
   117    94    95    1
   118    94    97    1
   119    95    96    2
   120    79    77   ar
   121     8     9    1
   122    18    19    1
   123     9    10    2
   124    75    77   ar
   125    75    74    1
   126    97    98    1
   127    62    63    1
   128    98    99    1
   129    74    71    1
   130    68    66    1
   131    67    69    1
   132    67    66    1
   133   100    99    1
   134    19    20    2
   135    32    31    1
   136    32    33    1
   137    66    63    1
   138    63    64    1
   139    71    72    1
   140    71    70    1
   141    65    64    2
   142    31    28    1
   143    72    73    2
   144    33    27    1
   145    28    27    1
   146    28    29    1
   147    30    29    2
