@<TRIPOS>MOLECULE
tmp/3t99A00.pdb
 189 175 0 0 0
SMALL
GASTEIGER

@<TRIPOS>ATOM
      1  N        -10.8760   -5.8500    5.7190 N.3   102  ARG102     -0.1245
      2  CA       -12.2570   -5.4360    5.4130 C.3   102  ARG102      0.1563
      3  C        -12.3280   -4.2410    4.4670 C.2   102  ARG102      0.2260
      4  O        -13.2980   -4.0950    3.7180 O.2   102  ARG102     -0.2867
      5  CB       -13.0410   -5.1140    6.6910 C.3   102  ARG102      0.0307
      6  CG       -13.4480   -6.3390    7.5140 C.3   102  ARG102      0.0489
      7  CD       -14.5570   -6.0170    8.5150 C.3   102  ARG102      0.2205
      8  NE       -15.1260   -7.2430    9.0800 N.pl3 102  ARG102     -0.0865
      9  CZ       -14.7150   -7.8070   10.2070 C.cat 102  ARG102      0.5346
     10  NH1      -13.7370   -7.2500   10.9090 N.pl3 102  ARG102      0.1354
     11  NH2      -15.2870   -8.9220   10.6360 N.pl3 102  ARG102      0.1354
     12  N        -23.4770   -1.9920    2.2510 N.3   117  PRO117     -0.2116
     13  CA       -23.8490   -0.8460    3.0810 C.3   117  PRO117      0.1372
     14  C        -23.0130    0.4270    2.8270 C.2   117  PRO117      0.2244
     15  O        -21.7930    0.3610    2.5590 O.2   117  PRO117     -0.2868
     16  CB       -23.6090   -1.3520    4.5200 C.3   117  PRO117      0.0268
     17  CG       -23.6240   -2.8330    4.4320 C.3   117  PRO117      0.0207
     18  CD       -23.1680   -3.1980    3.0470 C.3   117  PRO117      0.0892
     19  N        -23.1920    0.1590   12.4970 N.3   153  VAL153     -0.1245
     20  CA       -22.3680   -1.0200   12.7110 C.3   153  VAL153      0.1561
     21  C        -20.9110   -0.6040   12.6830 C.2   153  VAL153      0.2260
     22  O        -20.5170    0.2180   11.8590 O.2   153  VAL153     -0.2867
     23  CB       -22.6670   -2.0910   11.6650 C.3   153  VAL153      0.0252
     24  CG1      -21.8810   -3.3590   11.9470 C.3   153  VAL153      0.0019
     25  CG2      -24.1520   -2.3790   11.6300 C.3   153  VAL153      0.0019
     26  N        -17.0260   -2.1110   12.5950 N.3   155  LYS155     -0.1245
     27  CA       -16.2820   -3.3310   12.2880 C.3   155  LYS155      0.1561
     28  C        -14.7650   -3.1300   12.3740 C.2   155  LYS155      0.2260
     29  O        -14.2340   -2.1770   11.8080 O.2   155  LYS155     -0.2867
     30  CB       -16.6610   -3.8590   10.9020 C.3   155  LYS155      0.0271
     31  CG       -18.1340   -4.2170   10.7450 C.3   155  LYS155      0.0035
     32  CD       -18.3860   -4.8360    9.3860 C.3   155  LYS155      0.0206
     33  CE       -19.8250   -5.2250    9.2180 C.3   155  LYS155      0.1093
     34  NZ       -20.0730   -5.8600    7.8930 N.3   155  LYS155     -0.1314
     35  N        -10.2890   -8.4450    8.9610 N.3   159  ALA159     -0.1245
     36  CA       -11.4780   -9.2530    8.7340 C.3   159  ALA159      0.1562
     37  C        -11.4750  -10.4900    9.6080 C.2   159  ALA159      0.2260
     38  O        -12.4570  -11.2250    9.6450 O.2   159  ALA159     -0.2867
     39  CB       -11.6010   -9.6340    7.2670 C.3   159  ALA159      0.0290
     40  N        -13.4990  -10.6730   14.8070 N.3   162  HIS162     -0.1241
     41  CA       -14.9550  -10.7570   14.7280 C.3   162  HIS162      0.1621
     42  C        -15.7080   -9.9180   15.7770 C.2   162  HIS162      0.2264
     43  O        -16.9240  -10.0400   15.9440 O.2   162  HIS162     -0.2867
     44  CB       -15.3680  -12.2210   14.7140 C.3   162  HIS162      0.0745
     45  CG       -14.6890  -12.9970   13.6280 C.ar  162  HIS162      0.0817
     46  ND1      -15.1190  -12.9650   12.3200 N.ar  162  HIS162     -0.2268
     47  CD2      -13.5740  -13.7650   13.6400 C.ar  162  HIS162      0.1154
     48  CE1      -14.3110  -13.7000   11.5750 C.ar  162  HIS162      0.1986
     49  NE2      -13.3720  -14.2060   12.3540 N.ar  162  HIS162     -0.2212
     50  N        -17.4450   -7.2870   16.2120 N.3   164  VAL164     -0.1245
     51  CA       -18.2710   -6.2900   15.5210 C.3   164  VAL164      0.1561
     52  C        -19.3310   -5.7290   16.4750 C.2   164  VAL164      0.2260
     53  O        -20.1290   -6.4770   17.0260 O.2   164  VAL164     -0.2867
     54  CB       -18.9530   -6.9250   14.2560 C.3   164  VAL164      0.0252
     55  CG1      -20.1070   -6.0800   13.7480 C.3   164  VAL164      0.0019
     56  CG2      -17.9410   -7.1310   13.1350 C.3   164  VAL164      0.0019
     57  N        -22.6400   -3.2040   17.2270 N.3   166  ILE166     -0.1245
     58  CA       -23.7840   -2.4810   16.6930 C.3   166  ILE166      0.1561
     59  C        -24.3180   -1.5910   17.8270 C.2   166  ILE166      0.2260
     60  O        -24.5730   -2.0870   18.9300 O.2   166  ILE166     -0.2867
     61  CB       -24.9010   -3.4480   16.2290 C.3   166  ILE166      0.0252
     62  CG1      -24.3570   -4.4700   15.2150 C.3   166  ILE166      0.0019
     63  CG2      -26.0790   -2.6700   15.6620 C.3   166  ILE166      0.0019
     64  CD1      -25.3110   -5.5880   14.9170 C.3   166  ILE166      0.0001
     65  N        -20.8540   -8.4620   19.1640 N.3   179  LEU179     -0.1245
     66  CA       -20.6750   -9.7230   18.4600 C.3   179  LEU179      0.1561
     67  C        -19.2380  -10.1890   18.6540 C.2   179  LEU179      0.2260
     68  O        -18.3320   -9.3790   18.8350 O.2   179  LEU179     -0.2867
     69  CB       -21.0200   -9.5720   16.9530 C.3   179  LEU179      0.0270
     70  CG       -22.5170   -9.4820   16.5880 C.3   179  LEU179      0.0019
     71  CD1      -23.2130   -8.2590   17.2210 C.3   179  LEU179      0.0001
     72  CD2      -22.7670   -9.4990   15.0750 C.3   179  LEU179      0.0001
     73  N        -20.5810    1.6860    9.4360 N.3   205  GLU205     -0.1231
     74  CA       -21.5020    1.4820    8.3400 C.3   205  GLU205      0.1699
     75  C        -22.9520    1.4850    8.7530 C.2   205  GLU205      0.2592
     76  O        -23.2960    1.1970    9.9080 O.2   205  GLU205     -0.2718
     77  CB       -21.1250    0.2300    7.5150 C.3   205  GLU205      0.0402
     78  CG       -21.3350   -1.1000    8.1730 C.3   205  GLU205      0.1161
     79  CD       -20.8250   -2.2500    7.3170 C.2   205  GLU205      0.3649
     80  OE1      -19.6460   -2.1990    6.8970 O.co2 205  GLU205     -0.2457
     81  OE2      -21.5850   -3.2120    7.0730 O.co2 205  GLU205     -0.2457
     82  N        -23.7930    1.8250    7.7830 N.am  206  GLU206     -0.1966
     83  CA       -25.2330    1.8990    7.9350 C.3   206  GLU206      0.1733
     84  C        -25.8110    0.5510    8.2970 C.2   206  GLU206      0.2616
     85  O        -25.4530   -0.4630    7.6960 O.2   206  GLU206     -0.2715
     86  CB       -25.8500    2.3470    6.6110 C.3   206  GLU206      0.0429
     87  CG       -27.3120    2.6790    6.7250 C.3   206  GLU206      0.1163
     88  CD       -28.1060    2.2670    5.5190 C.2   206  GLU206      0.3649
     89  OE1      -27.6800    2.6080    4.3780 O.co2 206  GLU206     -0.2457
     90  OE2      -29.1610    1.6080    5.7280 O.co2 206  GLU206     -0.2457
     91  N        -26.7200    0.5420    9.2690 N.am  207  PHE207     -0.1960
     92  CA       -27.3730   -0.6890    9.6840 C.3   207  PHE207      0.1771
     93  C        -28.4900   -1.0650    8.7160 C.2   207  PHE207      0.2619
     94  O        -29.4680   -0.3360    8.5920 O.2   207  PHE207     -0.2715
     95  CB       -27.9170   -0.5610   11.1170 C.3   207  PHE207      0.0574
     96  CG       -28.6990   -1.7700   11.5930 C.ar  207  PHE207     -0.0200
     97  CD1      -30.0860   -1.8110   11.4760 C.ar  207  PHE207     -0.0042
     98  CD2      -28.0470   -2.8530   12.1760 C.ar  207  PHE207     -0.0042
     99  CE1      -30.8240   -2.9270   11.9080 C.ar  207  PHE207     -0.0003
    100  CE2      -28.7820   -3.9800   12.6320 C.ar  207  PHE207     -0.0003
    101  CZ       -30.1760   -4.0080   12.4960 C.ar  207  PHE207     -0.0000
    102  N        -28.3580   -2.2210    8.0700 N.am  208  MET208     -0.1977
    103  CA       -29.3860   -2.7390    7.1560 C.3   208  MET208      0.1605
    104  C        -30.4730   -3.4870    7.9050 C.2   208  MET208      0.2287
    105  O        -30.2210   -4.5480    8.4780 O.2   208  MET208     -0.2864
    106  CB       -28.7720   -3.6550    6.0940 C.3   208  MET208      0.0413
    107  CG       -27.6500   -3.0240    5.3020 C.3   208  MET208      0.0598
    108  SD       -27.9610   -1.3150    4.7710 S.3   208  MET208     -0.1393
    109  CE       -29.3850   -1.5170    3.6930 C.3   208  MET208      0.0692
    110  N        -32.9600   -6.0050    8.5060 N.3   210  THR210     -0.1218
    111  CA       -33.3940   -7.2710    7.9070 C.3   210  THR210      0.1862
    112  C        -34.4670   -7.8990    8.7710 C.2   210  THR210      0.2287
    113  O        -34.8460   -7.3430    9.7960 O.2   210  THR210     -0.2866
    114  CB       -32.2390   -8.2990    7.7950 C.3   210  THR210      0.1770
    115  OG1      -31.9970   -8.8950    9.0780 O.3   210  THR210     -0.2211
    116  CG2      -30.9550   -7.6600    7.2650 C.3   210  THR210      0.0375
    117  N        -29.5780  -13.8680    8.6070 N.3   214  ASP214     -0.1239
    118  CA       -28.4830  -13.5860    7.7040 C.3   214  ASP214      0.1674
    119  C        -28.5630  -14.6230    6.6120 C.2   214  ASP214      0.2266
    120  O        -28.7460  -15.8150    6.8870 O.2   214  ASP214     -0.2867
    121  CB       -27.1410  -13.7730    8.4010 C.3   214  ASP214      0.1410
    122  CG       -26.7750  -12.6320    9.3170 C.2   214  ASP214      0.3668
    123  OD1      -27.3160  -11.5240    9.1910 O.co2 214  ASP214     -0.2456
    124  OD2      -25.8920  -12.8510   10.1680 O.co2 214  ASP214     -0.2456
    125  N        -26.4940  -16.8220    4.2000 N.3   216  LYS216     -0.1245
    126  CA       -25.1360  -17.3210    4.0000 C.3   216  LYS216      0.1561
    127  C        -25.0660  -17.9720    2.6230 C.2   216  LYS216      0.2260
    128  O        -25.8730  -18.8540    2.3170 O.2   216  LYS216     -0.2867
    129  CB       -24.7660  -18.3340    5.0880 C.3   216  LYS216      0.0271
    130  CG       -25.0070  -17.8400    6.5210 C.3   216  LYS216      0.0035
    131  CD       -23.8610  -16.9790    6.9940 C.3   216  LYS216      0.0206
    132  CE       -23.9410  -16.6740    8.4720 C.3   216  LYS216      0.1093
    133  NZ       -23.1160  -15.4540    8.7720 N.3   216  LYS216     -0.1314
    134  N        -29.7620  -13.8410   13.1020 N.3   232  SER232     -0.1203
    135  CA       -28.7470  -12.8070   13.1870 C.3   232  SER232      0.2005
    136  C        -28.1190  -12.8360   14.5850 C.2   232  SER232      0.2461
    137  O        -28.8410  -12.7410   15.5780 O.2   232  SER232     -0.2732
    138  CB       -29.3360  -11.4320   12.9040 C.3   232  SER232      0.2103
    139  OG       -28.3740  -10.4340   13.2120 O.3   232  SER232     -0.2182
    140  N        -26.7800  -12.9680   14.6650 N.am  233  PRO233     -0.2717
    141  CA       -26.0960  -13.0620   15.9590 C.3   233  PRO233      0.1535
    142  C        -26.4140  -11.9050   16.9100 C.2   233  PRO233      0.2598
    143  O        -26.3890  -12.0890   18.1320 O.2   233  PRO233     -0.2715
    144  CB       -24.6170  -13.0380   15.5700 C.3   233  PRO233      0.0310
    145  CG       -24.5840  -13.5810   14.2100 C.3   233  PRO233      0.0237
    146  CD       -25.8290  -13.0860   13.5470 C.3   233  PRO233      0.0939
    147  N        -26.7240  -10.7380   16.3570 N.am  234  ALA234     -0.1978
    148  CA       -27.0360   -9.5570   17.1510 C.3   234  ALA234      0.1597
    149  C        -28.4240   -9.5810   17.7940 C.2   234  ALA234      0.2287
    150  O        -28.7630   -8.6780   18.5670 O.2   234  ALA234     -0.2864
    151  CB       -26.8970   -8.3160   16.2960 C.3   234  ALA234      0.0319
    152  N        -21.6800  -13.2040    3.0650 N.3   277  ASP277     -0.1239
    153  CA       -22.9470  -12.9460    3.7470 C.3   277  ASP277      0.1674
    154  C        -23.8390  -11.9670    2.9740 C.2   277  ASP277      0.2266
    155  O        -23.3500  -10.9740    2.4890 O.2   277  ASP277     -0.2867
    156  CB       -22.7010  -12.4220    5.1620 C.3   277  ASP277      0.1410
    157  CG       -22.0590  -13.4700    6.0830 C.2   277  ASP277      0.3668
    158  OD1      -22.3510  -14.6730    5.9470 O.co2 277  ASP277     -0.2456
    159  OD2      -21.2570  -13.0940    6.9490 O.co2 277  ASP277     -0.2456
    160  N        -27.3560   -9.4520    3.3390 N.3   279  LEU279     -0.1245
    161  CA       -28.4280   -8.8540    4.1320 C.3   279  LEU279      0.1561
    162  C        -29.5840   -8.4780    3.2010 C.2   279  LEU279      0.2260
    163  O        -29.4530   -7.5540    2.3930 O.2   279  LEU279     -0.2867
    164  CB       -27.9260   -7.6250    4.8980 C.3   279  LEU279      0.0270
    165  CG       -26.6870   -7.8840    5.7690 C.3   279  LEU279      0.0019
    166  CD1      -26.0930   -6.5880    6.2440 C.3   279  LEU279      0.0001
    167  CD2      -27.0210   -8.7870    6.9460 C.3   279  LEU279      0.0001
    168  N        -22.1670   -7.9750    3.1740 N.3   288  CYS288     -0.1221
    169  CA       -21.5190   -7.2920    4.3140 C.3   288  CYS288      0.1808
    170  C        -20.1940   -7.9420    4.7440 C.2   288  CYS288      0.2601
    171  O        -19.4460   -7.3940    5.5740 O.2   288  CYS288     -0.2717
    172  CB       -22.4840   -7.1720    5.5010 C.3   288  CYS288      0.0970
    173  SG       -22.9670   -8.7570    6.2380 S.3   288  CYS288     -0.0800
    174  N        -19.8930   -9.0890    4.1510 N.am  289  ASP289     -0.1973
    175  CA       -18.7920   -9.9100    4.5930 C.3   289  ASP289      0.1709
    176  C        -18.4340  -10.8680    3.4690 C.2   289  ASP289      0.2293
    177  O        -19.3130  -11.4960    2.9000 O.2   289  ASP289     -0.2864
    178  CB       -19.2390  -10.6840    5.8500 C.3   289  ASP289      0.1436
    179  CG       -18.1160  -11.4500    6.5200 C.2   289  ASP289      0.3671
    180  OD1      -16.9260  -11.0570    6.4120 O.co2 289  ASP289     -0.2456
    181  OD2      -18.4210  -12.4770    7.1900 O.co2 289  ASP289     -0.2456
    182  N        -15.6840  -14.0580    2.9430 N.3   291  ASN291     -0.1240
    183  CA       -14.8030  -14.8910    3.7860 C.3   291  ASN291      0.1653
    184  C        -13.8770  -15.8720    3.0570 C.2   291  ASN291      0.2266
    185  O        -12.9900  -16.4840    3.6610 O.2   291  ASN291     -0.2867
    186  CB       -15.6470  -15.6340    4.8390 C.3   291  ASN291      0.1155
    187  CG       -16.4670  -14.6720    5.7070 C.2   291  ASN291      0.2627
    188  OD1      -15.9260  -13.6860    6.2030 O.2   291  ASN291     -0.2716
    189  ND2      -17.7770  -14.9270    5.8540 N.am  291  ASN291     -0.0877
@<TRIPOS>BOND
     1    12    18    1
     2    12    13    1
     3   128   127    2
     4   163   162    2
     5   155   154    2
     6    15    14    2
     7   127   126    1
     8    14    13    1
     9   177   176    2
    10   182   183    1
    11   154   153    1
    12    18    17    1
    13   184   185    2
    14   184   183    1
    15   152   153    1
    16    13    16    1
    17   168   169    1
    18   162   161    1
    19   160   161    1
    20   176   175    1
    21   109   108    1
    22     4     3    2
    23   153   156    1
    24   183   186    1
    25   126   125    1
    26   126   129    1
    27   161   164    1
    28   174   175    1
    29   174   170   am
    30   169   170    1
    31   169   172    1
    32    89    88   ar
    33    17    16    1
    34     3     2    1
    35   175   178    1
    36   170   171    2
    37   108   107    1
    38   186   187    1
    39   164   165    1
    40   129   130    1
    41   156   157    1
    42   107   106    1
    43     2     1    1
    44     2     5    1
    45   172   173    1
    46    88    90   ar
    47    88    87    1
    48   187   189   am
    49   187   188    2
    50   165   166    1
    51   165   167    1
    52   178   179    1
    53   158   157   ar
    54   157   159   ar
    55   106   103    1
    56   180   179   ar
    57   179   181   ar
    58   130   131    1
    59    86    87    1
    60    86    83    1
    61   119   120    2
    62   119   118    1
    63     5     6    1
    64    80    79   ar
    65   131   132    1
    66    81    79   ar
    67   103   104    1
    68   103   102    1
    69   116   114    1
    70    39    36    1
    71    79    78    1
    72     6     7    1
    73    77    78    1
    74    77    74    1
    75    85    84    2
    76   118   121    1
    77   118   117    1
    78    82    83    1
    79    82    75   am
    80   114   111    1
    81   114   115    1
    82    34    33    1
    83   104   105    2
    84   111   110    1
    85   111   112    1
    86    83    84    1
    87   102    93   am
    88    84    91   am
    89    74    75    1
    90    74    73    1
    91   121   122    1
    92   132   133    1
    93     7     8    1
    94    94    93    2
    95    93    92    1
    96    36    35    1
    97    36    37    1
    98    75    76    2
    99   112   113    2
   100     8     9    2
   101   123   122   ar
   102    33    32    1
   103    91    92    1
   104   122   124   ar
   105    32    31    1
   106    37    38    2
   107    92    95    1
   108     9    11    1
   109     9    10    1
   110    31    30    1
   111    30    27    1
   112    95    96    1
   113    97    96   ar
   114    97    99   ar
   115    48    46   ar
   116    48    49   ar
   117    96    98   ar
   118    25    23    1
   119    23    24    1
   120    23    20    1
   121    29    28    2
   122    22    21    2
   123    99   101   ar
   124    98   100   ar
   125    27    28    1
   126    27    26    1
   127    46    45   ar
   128    49    47   ar
   129   101   100   ar
   130    19    20    1
   131    21    20    1
   132   138   135    1
   133   138   139    1
   134   134   135    1
   135    56    54    1
   136   135   136    1
   137   146   145    1
   138   146   140    1
   139    45    47   ar
   140    45    44    1
   141    55    54    1
   142   145   144    1
   143    54    51    1
   144   136   140   am
   145   136   137    2
   146   140   141    1
   147    44    41    1
   148    41    40    1
   149    41    42    1
   150    64    62    1
   151    72    70    1
   152    62    61    1
   153    51    50    1
   154    51    52    1
   155   144   141    1
   156    63    61    1
   157    42    43    2
   158   141   142    1
   159    61    58    1
   160   151   148    1
   161   147   142   am
   162   147   148    1
   163    52    53    2
   164    70    69    1
   165    70    71    1
   166    58    57    1
   167    58    59    1
   168   142   143    2
   169    69    66    1
   170   148   149    1
   171   149   150    2
   172    59    60    2
   173    66    67    1
   174    66    65    1
   175    67    68    2
