@<TRIPOS>MOLECULE
tmp/3t9cA01.pdb
 173 164 0 0 0
SMALL
GASTEIGER

@<TRIPOS>ATOM
      1  N         -9.2460   27.1600   10.9300 N.3    12  LYS12      -0.1231
      2  CA        -7.8800   26.8660   11.4190 C.3    12  LYS12       0.1693
      3  C         -6.8650   26.8940   10.2700 C.2    12  LYS12       0.2591
      4  O         -5.6970   27.2710   10.4460 O.2    12  LYS12      -0.2718
      5  CB        -7.8870   25.4860   12.0920 C.3    12  LYS12       0.0285
      6  CG        -6.6270   25.0930   12.8130 C.3    12  LYS12       0.0035
      7  CD        -6.7930   23.6750   13.3770 C.3    12  LYS12       0.0206
      8  CE        -5.4560   23.0670   13.7510 C.3    12  LYS12       0.1093
      9  NZ        -5.6240   21.9190   14.6860 N.3    12  LYS12      -0.1314
     10  N         -7.3220   26.4900    9.0900 N.am   13  LYS13      -0.1980
     11  CA        -6.4630   26.4740    7.9170 C.3    13  LYS13       0.1596
     12  C         -6.5710   27.7900    7.1430 C.2    13  LYS13       0.2287
     13  O         -5.5520   28.3510    6.7350 O.2    13  LYS13      -0.2864
     14  CB        -6.8110   25.2810    7.0190 C.3    13  LYS13       0.0298
     15  CG        -6.8500   23.9180    7.7580 C.3    13  LYS13       0.0038
     16  CD        -5.4920   23.5540    8.4000 C.3    13  LYS13       0.0206
     17  CE        -5.5500   22.1630    9.0280 C.3    13  LYS13       0.1093
     18  NZ        -4.3080   21.7920    9.7780 N.3    13  LYS13      -0.1314
     19  N         -9.9050   21.9740    0.6400 N.3    59  PHE59      -0.1241
     20  CA        -9.2190   20.7850    1.1250 C.3    59  PHE59       0.1605
     21  C         -9.6970   20.3630    2.4950 C.2    59  PHE59       0.2264
     22  O        -10.0300   21.1930    3.3390 O.2    59  PHE59      -0.2867
     23  CB        -7.6980   21.0090    1.1450 C.3    59  PHE59       0.0534
     24  CG        -7.2690   22.2410    1.9160 C.ar   59  PHE59      -0.0203
     25  CD1       -6.8080   22.1290    3.2280 C.ar   59  PHE59      -0.0042
     26  CD2       -7.3190   23.5060    1.3270 C.ar   59  PHE59      -0.0042
     27  CE1       -6.3780   23.2580    3.9460 C.ar   59  PHE59      -0.0003
     28  CE2       -6.8990   24.6490    2.0300 C.ar   59  PHE59      -0.0003
     29  CZ        -6.4450   24.5270    3.3460 C.ar   59  PHE59      -0.0000
     30  N         -9.6010   18.8000    6.2090 N.3    61  SER61      -0.1202
     31  CA        -8.8560   18.5570    7.4440 C.3    61  SER61       0.2020
     32  C         -9.9010   18.1690    8.4860 C.2    61  SER61       0.2618
     33  O        -11.1000   18.0910    8.1670 O.2    61  SER61      -0.2717
     34  CB        -8.0540   19.7900    7.8700 C.3    61  SER61       0.2103
     35  OG        -8.8930   20.9050    8.1620 O.3    61  SER61      -0.2182
     36  N         -9.4670   17.9320    9.7190 N.am   62  LYS62      -0.1979
     37  CA       -10.3700   17.4500   10.7610 C.3    62  LYS62       0.1596
     38  C        -11.6280   18.3100   10.8760 C.2    62  LYS62       0.2287
     39  O        -11.5390   19.5160   11.0680 O.2    62  LYS62      -0.2864
     40  CB        -9.6450   17.3900   12.1150 C.3    62  LYS62       0.0298
     41  CG       -10.5420   16.9210   13.2780 C.3    62  LYS62       0.0038
     42  CD        -9.7380   16.7230   14.5660 C.3    62  LYS62       0.0206
     43  CE       -10.6610   16.4900   15.7590 C.3    62  LYS62       0.1093
     44  NZ        -9.9040   16.5170   17.0600 N.3    62  LYS62      -0.1314
     45  N         -5.4990   10.0940    9.2550 N.3   151  GLU151     -0.1245
     46  CA        -5.7190   11.1610   10.2350 C.3   151  GLU151      0.1567
     47  C         -5.3580   10.7570   11.6740 C.2   151  GLU151      0.2260
     48  O         -5.3020   11.6030   12.5710 O.2   151  GLU151     -0.2867
     49  CB        -7.1590   11.6770   10.1320 C.3   151  GLU151      0.0388
     50  CG        -7.5730   12.0140    8.6660 C.3   151  GLU151      0.1160
     51  CD        -6.6340   13.0190    7.9460 C.2   151  GLU151      0.3649
     52  OE1       -6.3790   14.1050    8.5230 O.co2 151  GLU151     -0.2457
     53  OE2       -6.1950   12.7390    6.7770 O.co2 151  GLU151     -0.2457
     54  N         -2.4930    9.7510   13.9400 N.3   153  HIS153     -0.1241
     55  CA        -1.0250    9.8790   13.9520 C.3   153  HIS153      0.1621
     56  C         -0.3140    9.0210   15.0120 C.2   153  HIS153      0.2264
     57  O          0.8970    9.1710   15.2380 O.2   153  HIS153     -0.2867
     58  CB        -0.6570   11.3650   14.0680 C.3   153  HIS153      0.0745
     59  CG        -1.2820   12.1910   12.9850 C.ar  153  HIS153      0.0817
     60  ND1       -0.9520   12.0300   11.6600 N.ar  153  HIS153     -0.2268
     61  CD2       -2.2690   13.1190   13.0190 C.ar  153  HIS153      0.1154
     62  CE1       -1.6950   12.8390   10.9210 C.ar  153  HIS153      0.1986
     63  NE2       -2.5020   13.5100   11.7230 N.ar  153  HIS153     -0.2212
     64  N          0.7130   13.3270   17.2450 N.3   172  ARG172     -0.1231
     65  CA         0.7100   14.7540   16.9400 C.3   172  ARG172      0.1694
     66  C          1.4220   15.4750   18.0660 C.2   172  ARG172      0.2591
     67  O          1.1330   15.2480   19.2420 O.2   172  ARG172     -0.2718
     68  CB        -0.7200   15.2980   16.8260 C.3   172  ARG172      0.0321
     69  CG        -1.2070   15.5170   15.4210 C.3   172  ARG172      0.0489
     70  CD        -0.5710   16.7530   14.7240 C.3   172  ARG172      0.2205
     71  NE        -0.9070   16.6970   13.2990 N.pl3 172  ARG172     -0.0865
     72  CZ        -0.2170   16.0050   12.3890 C.cat 172  ARG172      0.5346
     73  NH1        0.8850   15.3410   12.7300 N.pl3 172  ARG172      0.1354
     74  NH2       -0.6190   15.9870   11.1260 N.pl3 172  ARG172      0.1354
     75  N          2.3610   16.3310   17.6870 N.am  173  LYS173     -0.1980
     76  CA         3.1750   17.0680   18.6330 C.3   173  LYS173      0.1596
     77  C          2.3480   17.6690   19.7820 C.2   173  LYS173      0.2287
     78  O          1.3020   18.2980   19.5590 O.2   173  LYS173     -0.2864
     79  CB         3.9750   18.1260   17.8760 C.3   173  LYS173      0.0298
     80  CG         4.8250   19.0270   18.7180 C.3   173  LYS173      0.0038
     81  CD         5.5870   20.0120   17.8400 C.3   173  LYS173      0.0206
     82  CE         4.7300   21.2110   17.4440 C.3   173  LYS173      0.1093
     83  NZ         5.4090   21.9910   16.3610 N.3   173  LYS173     -0.1314
     84  N         10.6320   16.3960    4.1490 N.3   207  LYS207     -0.1245
     85  CA         9.2610   16.8560    3.8840 C.3   207  LYS207      0.1561
     86  C          9.2470   17.6100    2.5740 C.2   207  LYS207      0.2260
     87  O         10.0520   18.5300    2.3810 O.2   207  LYS207     -0.2867
     88  CB         8.7960   17.7780    5.0030 C.3   207  LYS207      0.0271
     89  CG         9.0410   17.2120    6.4100 C.3   207  LYS207      0.0035
     90  CD         7.8960   16.3540    6.8710 C.3   207  LYS207      0.0206
     91  CE         6.6380   17.1680    7.2120 C.3   207  LYS207      0.1093
     92  NZ         5.4380   16.2560    7.1810 N.3   207  LYS207     -0.1314
     93  N          6.9060   19.6810   -0.4880 N.3   209  TYR209     -0.1241
     94  CA         5.7160   20.5110   -0.6520 C.3   209  TYR209      0.1605
     95  C          5.6530   20.9700   -2.1100 C.2   209  TYR209      0.2264
     96  O          6.5070   21.7470   -2.5530 O.2   209  TYR209     -0.2867
     97  CB         5.8180   21.7520    0.2440 C.3   209  TYR209      0.0534
     98  CG         5.9540   21.4670    1.7190 C.ar  209  TYR209     -0.0201
     99  CD1        7.2070   21.2220    2.2910 C.ar  209  TYR209     -0.0009
    100  CD2        4.8360   21.4870    2.5600 C.ar  209  TYR209     -0.0009
    101  CE1        7.3390   20.9700    3.6710 C.ar  209  TYR209      0.0417
    102  CE2        4.9580   21.2350    3.9320 C.ar  209  TYR209      0.0417
    103  CZ         6.2120   20.9960    4.4820 C.ar  209  TYR209      0.1957
    104  OH         6.3530   20.7530    5.8490 O.3   209  TYR209     -0.2866
    105  N         13.6280   17.4240    8.7820 N.3   221  ARG221     -0.1245
    106  CA        13.3740   17.5560   10.2200 C.3   221  ARG221      0.1563
    107  C         13.8350   16.2760   10.9080 C.2   221  ARG221      0.2260
    108  O         13.8790   15.2060   10.2860 O.2   221  ARG221     -0.2867
    109  CB        11.8780   17.7530   10.5040 C.3   221  ARG221      0.0307
    110  CG        11.1430   18.6540    9.5250 C.3   221  ARG221      0.0489
    111  CD        10.5510   19.8630   10.1980 C.3   221  ARG221      0.2205
    112  NE         9.3600   19.5110   10.9640 N.pl3 221  ARG221     -0.0865
    113  CZ         8.1140   19.6150   10.5120 C.cat 221  ARG221      0.5346
    114  NH1        7.1000   19.2670   11.2900 N.pl3 221  ARG221      0.1354
    115  NH2        7.8770   20.0680    9.2910 N.pl3 221  ARG221      0.1354
    116  N         10.2850   24.8350   15.1410 N.3   238  GLU238     -0.1245
    117  CA        11.0000   23.5730   14.9740 C.3   238  GLU238      0.1567
    118  C         12.1720   23.7700   14.0180 C.2   238  GLU238      0.2260
    119  O         12.0360   24.4510   12.9980 O.2   238  GLU238     -0.2867
    120  CB        10.0820   22.4540   14.4810 C.3   238  GLU238      0.0388
    121  CG        10.7420   21.0630   14.5380 C.3   238  GLU238      0.1160
    122  CD         9.8380   19.9350   14.0700 C.2   238  GLU238      0.3649
    123  OE1        8.7240   20.2090   13.5890 O.co2 238  GLU238     -0.2457
    124  OE2       10.2480   18.7620   14.1780 O.co2 238  GLU238     -0.2457
    125  N          1.6180   17.9860    0.1770 N.3   266  GLY266     -0.1225
    126  CA         2.7240   17.6370    1.0490 C.3   266  GLY266      0.1811
    127  C          2.8980   16.1300    1.0640 C.2   266  GLY266      0.2280
    128  O          1.9140   15.3800    1.1490 O.2   266  GLY266     -0.2866
    129  N          0.1660   13.6150    2.4330 N.3   282  ASN282     -0.1240
    130  CA        -0.8210   14.3540    3.2180 C.3   282  ASN282      0.1653
    131  C         -1.8370   15.2050    2.4330 C.2   282  ASN282      0.2266
    132  O         -2.8820   15.5720    2.9840 O.2   282  ASN282     -0.2867
    133  CB        -0.1270   15.2180    4.2890 C.3   282  ASN282      0.1155
    134  CG         0.7270   14.3900    5.2210 C.2   282  ASN282      0.2627
    135  OD1        1.8700   14.7460    5.5300 O.2   282  ASN282     -0.2716
    136  ND2        0.1830   13.2740    5.6680 N.am  282  ASN282     -0.0877
    137  N         -3.0760   18.7460    0.7620 N.3   284  PHE284     -0.1227
    138  CA        -2.8640   20.1930    0.8930 C.3   284  PHE284      0.1736
    139  C         -2.0400   20.5890    2.1100 C.2   284  PHE284      0.2596
    140  O         -2.3940   20.2780    3.2430 O.2   284  PHE284     -0.2718
    141  CB        -4.2060   20.9430    0.9190 C.3   284  PHE284      0.0547
    142  CG        -4.0710   22.3830    0.5710 C.ar  284  PHE284     -0.0202
    143  CD1       -3.5830   23.2980    1.5130 C.ar  284  PHE284     -0.0042
    144  CD2       -4.4170   22.8330   -0.7080 C.ar  284  PHE284     -0.0042
    145  CE1       -3.4310   24.6490    1.1750 C.ar  284  PHE284     -0.0003
    146  CE2       -4.2790   24.1730   -1.0590 C.ar  284  PHE284     -0.0003
    147  CZ        -3.7820   25.0880   -0.1090 C.ar  284  PHE284     -0.0000
    148  N         -0.9270   21.2610    1.8600 N.am  285  SER285     -0.1938
    149  CA        -0.0200   21.6570    2.9170 C.3   285  SER285      0.2055
    150  C          0.8970   22.7380    2.3760 C.2   285  SER285      0.2643
    151  O          1.4390   22.6060    1.2770 O.2   285  SER285     -0.2714
    152  CB         0.8020   20.4570    3.4310 C.3   285  SER285      0.2130
    153  OG         1.6010   20.8870    4.5300 O.3   285  SER285     -0.2179
    154  N          1.0310   23.8180    3.1450 N.am  286  PHE286     -0.1973
    155  CA         1.9350   24.9090    2.8200 C.3   286  PHE286      0.1639
    156  C          3.2120   24.7910    3.6300 C.2   286  PHE286      0.2290
    157  O          3.1970   24.3070    4.7750 O.2   286  PHE286     -0.2864
    158  CB         1.3130   26.2640    3.1760 C.3   286  PHE286      0.0560
    159  CG         0.2150   26.7350    2.2340 C.ar  286  PHE286     -0.0200
    160  CD1        0.2790   26.5070    0.8660 C.ar  286  PHE286     -0.0042
    161  CD2       -0.8570   27.4690    2.7430 C.ar  286  PHE286     -0.0042
    162  CE1       -0.7220   26.9790    0.0170 C.ar  286  PHE286     -0.0003
    163  CE2       -1.8450   27.9730    1.9070 C.ar  286  PHE286     -0.0003
    164  CZ        -1.7920   27.7240    0.5490 C.ar  286  PHE286     -0.0000
    165  N          5.8550   26.4750    5.9970 N.3   288  LYS288     -0.1245
    166  CA         5.7190   27.4840    7.0470 C.3   288  LYS288      0.1561
    167  C          7.0370   28.2600    7.1840 C.2   288  LYS288      0.2260
    168  O          8.1140   27.6910    6.9990 O.2   288  LYS288     -0.2867
    169  CB         5.3400   26.7970    8.3710 C.3   288  LYS288      0.0271
    170  CG         3.8990   26.2580    8.4370 C.3   288  LYS288      0.0035
    171  CD         3.7640   24.8810    7.8060 C.3   288  LYS288      0.0206
    172  CE         2.3570   24.2830    7.9600 C.3   288  LYS288      0.1093
    173  NZ         2.1970   23.0910    7.0550 N.3   288  LYS288     -0.1314
@<TRIPOS>BOND
     1    96    95    2
     2    95    94    1
     3   146   144   ar
     4   146   147   ar
     5   144   142   ar
     6    94    93    1
     7    94    97    1
     8   147   145   ar
     9   162   164   ar
    10   162   160   ar
    11   125   126    1
    12    97    98    1
    13   164   163   ar
    14   142   141    1
    15   142   143   ar
    16    19    20    1
    17   137   138    1
    18   160   159   ar
    19   138   141    1
    20   138   139    1
    21   126   127    1
    22   127   128    2
    23    20    23    1
    24    20    21    1
    25    23    24    1
    26   145   143   ar
    27   151   150    2
    28    26    24   ar
    29    26    28   ar
    30    98    99   ar
    31    98   100   ar
    32   148   139   am
    33   148   149    1
    34   163   161   ar
    35    24    25   ar
    36    28    29   ar
    37   139   140    2
    38   159   161   ar
    39   159   158    1
    40    99   101   ar
    41   150   149    1
    42   150   154   am
    43    87    86    2
    44   131   132    2
    45   131   130    1
    46   129   130    1
    47    21    22    2
    48   100   102   ar
    49    86    85    1
    50   155   154    1
    51   155   158    1
    52   155   156    1
    53   149   152    1
    54   130   133    1
    55    25    27   ar
    56    29    27   ar
    57   152   153    1
    58   156   157    2
    59   101   103   ar
    60    85    84    1
    61    85    88    1
    62   102   103   ar
    63   133   134    1
    64   103   104    1
    65    88    89    1
    66   134   135    2
    67   134   136   am
    68   165   166    1
    69    30    31    1
    70    89    90    1
    71    13    12    2
    72    53    51   ar
    73    90    91    1
    74   168   167    2
    75    14    15    1
    76    14    11    1
    77   166   167    1
    78   166   169    1
    79   173   172    1
    80    12    11    1
    81    92    91    1
    82    31    34    1
    83    31    32    1
    84    15    16    1
    85   171   172    1
    86   171   170    1
    87    34    35    1
    88    11    10    1
    89    51    52   ar
    90    51    50    1
    91    33    32    2
    92   169   170    1
    93    16    17    1
    94    32    36   am
    95    50    49    1
    96   105   106    1
    97    17    18    1
    98    10     3   am
    99    45    46    1
   100   115   113    1
   101   110   111    1
   102   110   109    1
   103    36    37    1
   104    49    46    1
   105   111   112    1
   106   106   109    1
   107   106   107    1
   108    46    47    1
   109     3     4    2
   110     3     2    1
   111   108   107    2
   112   113   112    2
   113   113   114    1
   114    37    38    1
   115    37    40    1
   116    38    39    2
   117    62    60   ar
   118    62    63   ar
   119     1     2    1
   120    74    72    1
   121     2     5    1
   122    60    59   ar
   123    47    48    2
   124    63    61   ar
   125     5     6    1
   126    40    41    1
   127    72    73    1
   128    72    71    2
   129     6     7    1
   130    59    61   ar
   131    59    58    1
   132   119   118    2
   133    41    42    1
   134    71    70    1
   135     7     8    1
   136   123   122   ar
   137     8     9    1
   138    54    55    1
   139    55    58    1
   140    55    56    1
   141   118   117    1
   142   122   124   ar
   143   122   121    1
   144   120   121    1
   145   120   117    1
   146    42    43    1
   147    70    69    1
   148   117   116    1
   149    56    57    2
   150    69    68    1
   151    43    44    1
   152    83    82    1
   153    68    65    1
   154    65    64    1
   155    65    66    1
   156    82    81    1
   157    75    66   am
   158    75    76    1
   159    81    80    1
   160    79    76    1
   161    79    80    1
   162    66    67    2
   163    76    77    1
   164    78    77    2
