@<TRIPOS>MOLECULE
tmp/3t9dA01.pdb
 199 187 0 0 0
SMALL
GASTEIGER

@<TRIPOS>ATOM
      1  N         -9.4760   27.0790   10.9820 N.3    12  LYS12      -0.1231
      2  CA        -8.1160   26.7610   11.4520 C.3    12  LYS12       0.1693
      3  C         -7.0920   26.8110   10.3090 C.2    12  LYS12       0.2591
      4  O         -5.9330   27.2390   10.4940 O.2    12  LYS12      -0.2718
      5  CB        -8.1280   25.3690   12.0910 C.3    12  LYS12       0.0285
      6  CG        -6.8320   24.9260   12.7550 C.3    12  LYS12       0.0035
      7  CD        -7.0530   23.5890   13.4480 C.3    12  LYS12       0.0206
      8  CE        -5.7660   23.0140   13.9890 C.3    12  LYS12       0.1093
      9  NZ        -6.0470   21.7460   14.7390 N.3    12  LYS12      -0.1314
     10  N         -7.5260   26.3760    9.1270 N.am   13  LYS13      -0.1980
     11  CA        -6.6700   26.3850    7.9470 C.3    13  LYS13       0.1596
     12  C         -6.7570   27.6990    7.1540 C.2    13  LYS13       0.2287
     13  O         -5.7180   28.2790    6.8040 O.2    13  LYS13      -0.2864
     14  CB        -6.9650   25.1810    7.0420 C.3    13  LYS13       0.0298
     15  CG        -6.9690   23.8000    7.7590 C.3    13  LYS13       0.0038
     16  CD        -5.5830   23.3950    8.2780 C.3    13  LYS13       0.0206
     17  CE        -5.6010   22.0140    8.9500 C.3    13  LYS13       0.1093
     18  NZ        -4.3400   21.7490    9.7130 N.3    13  LYS13      -0.1314
     19  N        -10.1680   21.8620    0.6360 N.3    59  PHE59      -0.1241
     20  CA        -9.4670   20.6830    1.1390 C.3    59  PHE59       0.1605
     21  C         -9.9470   20.2730    2.5150 C.2    59  PHE59       0.2264
     22  O        -10.3120   21.1160    3.3430 O.2    59  PHE59      -0.2867
     23  CB        -7.9480   20.8970    1.1460 C.3    59  PHE59       0.0534
     24  CG        -7.5020   22.1200    1.9140 C.ar   59  PHE59      -0.0203
     25  CD1       -7.0690   22.0050    3.2350 C.ar   59  PHE59      -0.0042
     26  CD2       -7.4950   23.3790    1.3110 C.ar   59  PHE59      -0.0042
     27  CE1       -6.6360   23.1300    3.9540 C.ar   59  PHE59      -0.0003
     28  CE2       -7.0780   24.5100    2.0220 C.ar   59  PHE59      -0.0003
     29  CZ        -6.6440   24.3790    3.3520 C.ar   59  PHE59      -0.0000
     30  N         -9.8120   18.7750    6.2360 N.3    61  SER61      -0.1202
     31  CA        -9.0820   18.5440    7.4790 C.3    61  SER61       0.2020
     32  C        -10.1010   18.1200    8.5360 C.2    61  SER61       0.2618
     33  O        -11.3040   18.0490    8.2500 O.2    61  SER61      -0.2717
     34  CB        -8.2950   19.7840    7.9100 C.3    61  SER61       0.2103
     35  OG        -9.1410   20.8840    8.1690 O.3    61  SER61      -0.2182
     36  N         -9.6320   17.8440    9.7520 N.am   62  LYS62      -0.1979
     37  CA       -10.5240   17.3920   10.8200 C.3    62  LYS62       0.1596
     38  C        -11.7730   18.2720   10.9570 C.2    62  LYS62       0.2287
     39  O        -11.6770   19.4810   11.1720 O.2    62  LYS62      -0.2864
     40  CB        -9.7820   17.3360   12.1620 C.3    62  LYS62       0.0298
     41  CG       -10.6400   16.7540   13.2830 C.3    62  LYS62       0.0038
     42  CD        -9.9130   16.7660   14.6260 C.3    62  LYS62       0.0206
     43  CE       -10.8470   16.3010   15.7400 C.3    62  LYS62       0.1093
     44  NZ       -11.3190   14.9040   15.4900 N.3    62  LYS62      -0.1314
     45  N         -5.6350    9.9020    9.3230 N.3   151  GLU151     -0.1245
     46  CA        -5.8550   10.9770   10.2770 C.3   151  GLU151      0.1567
     47  C         -5.5340   10.5630   11.7240 C.2   151  GLU151      0.2260
     48  O         -5.5480   11.3910   12.6370 O.2   151  GLU151     -0.2867
     49  CB        -7.2830   11.5400   10.1300 C.3   151  GLU151      0.0388
     50  CG        -7.6960   11.8500    8.6650 C.3   151  GLU151      0.1160
     51  CD        -6.7690   12.8500    7.9340 C.2   151  GLU151      0.3649
     52  OE1       -6.3920   13.8790    8.5460 O.co2 151  GLU151     -0.2457
     53  OE2       -6.4390   12.6130    6.7350 O.co2 151  GLU151     -0.2457
     54  N         -2.6480    9.5850   14.0100 N.3   153  HIS153     -0.1241
     55  CA        -1.1870    9.7780   13.9850 C.3   153  HIS153      0.1621
     56  C         -0.4280    8.9410   15.0280 C.2   153  HIS153      0.2264
     57  O          0.7610    9.1610   15.2820 O.2   153  HIS153     -0.2867
     58  CB        -0.8620   11.2780   14.1070 C.3   153  HIS153      0.0745
     59  CG        -1.5190   12.0960   13.0350 C.ar  153  HIS153      0.0817
     60  ND1       -1.2370   11.9150   11.7000 N.ar  153  HIS153     -0.2268
     61  CD2       -2.5130   13.0150   13.0880 C.ar  153  HIS153      0.1154
     62  CE1       -1.9990   12.7180   10.9750 C.ar  153  HIS153      0.1986
     63  NE2       -2.7810   13.3990   11.7940 N.ar  153  HIS153     -0.2212
     64  N          0.7380   13.2680   17.2640 N.3   172  ARG172     -0.1231
     65  CA         0.7180   14.7100   16.9620 C.3   172  ARG172      0.1694
     66  C          1.4530   15.4360   18.0740 C.2   172  ARG172      0.2591
     67  O          1.1920   15.1720   19.2490 O.2   172  ARG172     -0.2718
     68  CB        -0.7250   15.2590   16.8880 C.3   172  ARG172      0.0321
     69  CG        -1.2960   15.4380   15.4870 C.3   172  ARG172      0.0489
     70  CD        -0.6810   16.6240   14.7130 C.3   172  ARG172      0.2205
     71  NE        -1.0240   16.5490   13.2870 N.pl3 172  ARG172     -0.0865
     72  CZ        -0.3150   15.8800   12.3770 C.cat 172  ARG172      0.5346
     73  NH1        0.7930   15.2400   12.7370 N.pl3 172  ARG172      0.1354
     74  NH2       -0.7050   15.8580   11.1080 N.pl3 172  ARG172      0.1354
     75  N          2.3680   16.3320   17.7080 N.am  173  LYS173     -0.1980
     76  CA         3.1960   17.0410   18.6930 C.3   173  LYS173      0.1596
     77  C          2.3700   17.6330   19.8190 C.2   173  LYS173      0.2287
     78  O          1.3200   18.2460   19.5810 O.2   173  LYS173     -0.2864
     79  CB         4.0240   18.1490   18.0300 C.3   173  LYS173      0.0298
     80  CG         5.3240   17.6610   17.4400 C.3   173  LYS173      0.0038
     81  CD         6.0550   18.7670   16.6670 C.3   173  LYS173      0.0206
     82  CE         5.5380   18.8860   15.2300 C.3   173  LYS173      0.1093
     83  NZ         6.0800   20.0970   14.5330 N.3   173  LYS173     -0.1314
     84  N          3.4870   20.0990   22.6230 N.3   175  GLY175     -0.1225
     85  CA         4.5800   20.9470   23.1000 C.3   175  GLY175      0.1811
     86  C          5.9510   20.5040   22.6190 C.2   175  GLY175      0.2280
     87  O          6.2700   20.6030   21.4340 O.2   175  GLY175     -0.2866
     88  N         10.3670   16.4630    4.1310 N.3   207  LYS207     -0.1245
     89  CA         8.9900   16.8680    3.8260 C.3   207  LYS207      0.1561
     90  C          9.0260   17.6200    2.5130 C.2   207  LYS207      0.2260
     91  O          9.8650   18.5260    2.3200 O.2   207  LYS207     -0.2867
     92  CB         8.4160   17.7670    4.9220 C.3   207  LYS207      0.0271
     93  CG         8.5650   17.2130    6.3290 C.3   207  LYS207      0.0035
     94  CD         7.4980   16.2080    6.6680 C.3   207  LYS207      0.0206
     95  CE         6.2000   16.8930    7.1050 C.3   207  LYS207      0.1093
     96  NZ         5.0660   15.9070    7.2130 N.3   207  LYS207     -0.1314
     97  N          6.7510   19.7030   -0.5200 N.3   209  TYR209     -0.1241
     98  CA         5.5490   20.5040   -0.6890 C.3   209  TYR209      0.1605
     99  C          5.4740   20.9040   -2.1510 C.2   209  TYR209      0.2264
    100  O          6.3140   21.6740   -2.6200 O.2   209  TYR209     -0.2867
    101  CB         5.6410   21.7640    0.1710 C.3   209  TYR209      0.0534
    102  CG         5.7570   21.4830    1.6570 C.ar  209  TYR209     -0.0201
    103  CD1        6.9950   21.2570    2.2450 C.ar  209  TYR209     -0.0009
    104  CD2        4.6180   21.4510    2.4720 C.ar  209  TYR209     -0.0009
    105  CE1        7.1090   21.0060    3.6190 C.ar  209  TYR209      0.0417
    106  CE2        4.7210   21.2050    3.8470 C.ar  209  TYR209      0.0417
    107  CZ         5.9660   20.9860    4.4100 C.ar  209  TYR209      0.1957
    108  OH         6.0850   20.7360    5.7730 O.3   209  TYR209     -0.2866
    109  N         13.5190   17.4240    8.7370 N.3   221  ARG221     -0.1245
    110  CA        13.3040   17.6040   10.1640 C.3   221  ARG221      0.1563
    111  C         13.7490   16.3360   10.8680 C.2   221  ARG221      0.2260
    112  O         13.7540   15.2580   10.2780 O.2   221  ARG221     -0.2867
    113  CB        11.8280   17.8830   10.4490 C.3   221  ARG221      0.0307
    114  CG        10.9320   16.7480   10.0200 C.3   221  ARG221      0.0489
    115  CD         9.7510   16.5310   10.9420 C.3   221  ARG221      0.2205
    116  NE         9.2700   15.1520   10.8240 N.pl3 221  ARG221     -0.0865
    117  CZ         7.9930   14.7930   10.9040 C.cat 221  ARG221      0.5346
    118  NH1        7.0470   15.7110   11.0800 N.pl3 221  ARG221      0.1354
    119  NH2        7.6590   13.5120   10.7950 N.pl3 221  ARG221      0.1354
    120  N         13.4720   22.9700   18.8260 N.3   232  ARG232     -0.1245
    121  CA        12.8110   24.2420   18.5590 C.3   232  ARG232      0.1563
    122  C         13.8070   25.3810   18.5090 C.2   232  ARG232      0.2260
    123  O         14.8070   25.3150   19.1570 O.2   232  ARG232     -0.2867
    124  CB        11.7170   24.5160   19.5860 C.3   232  ARG232      0.0307
    125  CG        10.5900   23.5130   19.5220 C.3   232  ARG232      0.0489
    126  CD         9.2520   24.0340   19.9240 C.3   232  ARG232      0.2205
    127  NE         8.2070   23.0360   19.8340 N.pl3 232  ARG232     -0.0865
    128  CZ         7.2540   23.0150   18.9260 C.cat 232  ARG232      0.5346
    129  NH1        7.1910   23.9600   18.0150 N.pl3 232  ARG232      0.1354
    130  NH2        6.3450   22.0570   18.9450 N.pl3 232  ARG232      0.1354
    131  N          9.7470   24.6760   15.0140 N.3   238  GLU238     -0.1245
    132  CA        10.5450   23.4560   14.8440 C.3   238  GLU238      0.1567
    133  C         11.7220   23.7290   13.9000 C.2   238  GLU238      0.2260
    134  O         11.5570   24.3900   12.8770 O.2   238  GLU238     -0.2867
    135  CB         9.7030   22.2710   14.3410 C.3   238  GLU238      0.0388
    136  CG        10.4850   20.9440   14.3240 C.3   238  GLU238      0.1160
    137  CD         9.6540   19.7270   13.9440 C.2   238  GLU238      0.3649
    138  OE1        8.4800   19.8780   13.5550 O.co2 238  GLU238     -0.2457
    139  OE2       10.1870   18.6000   14.0340 O.co2 238  GLU238     -0.2457
    140  N         14.2150   23.2350   11.0330 N.3   240  ARG240     -0.1245
    141  CA        14.1280   22.5970    9.7200 C.3   240  ARG240      0.1563
    142  C         15.4960   22.6860    9.0370 C.2   240  ARG240      0.2260
    143  O         16.2230   23.6610    9.2270 O.2   240  ARG240     -0.2867
    144  CB        13.0110   23.2430    8.8670 C.3   240  ARG240      0.0307
    145  CG        11.5510   22.9420    9.3510 C.3   240  ARG240      0.0489
    146  CD        11.0980   21.5240    8.9310 C.3   240  ARG240      0.2205
    147  NE         9.8590   21.0360    9.5550 N.pl3 240  ARG240     -0.0865
    148  CZ         8.7070   20.8400    8.9100 C.cat 240  ARG240      0.5346
    149  NH1        8.6020   21.1130    7.6070 N.pl3 240  ARG240      0.1354
    150  NH2        7.6480   20.3790    9.5720 N.pl3 240  ARG240      0.1354
    151  N          1.4280   17.8510    0.0860 N.3   266  GLY266     -0.1225
    152  CA         2.5600   17.5460    0.9430 C.3   266  GLY266      0.1811
    153  C          2.7510   16.0460    0.9800 C.2   266  GLY266      0.2280
    154  O          1.7760   15.2870    1.0330 O.2   266  GLY266     -0.2866
    155  N         -0.0110   13.5630    2.2980 N.3   282  ASN282     -0.1240
    156  CA        -0.9670   14.3010    3.1320 C.3   282  ASN282      0.1653
    157  C         -1.9710   15.1820    2.3880 C.2   282  ASN282      0.2266
    158  O         -2.9720   15.6070    2.9720 O.2   282  ASN282     -0.2867
    159  CB        -0.2290   15.1390    4.1780 C.3   282  ASN282      0.1155
    160  CG         0.5620   14.2840    5.1340 C.2   282  ASN282      0.2627
    161  OD1        1.7190   14.5750    5.4430 O.2   282  ASN282     -0.2716
    162  ND2       -0.0540   13.2020    5.5980 N.am  282  ASN282     -0.0877
    163  N         -3.2530   18.6580    0.7330 N.3   284  PHE284     -0.1227
    164  CA        -3.0490   20.1070    0.8580 C.3   284  PHE284      0.1736
    165  C         -2.2590   20.4990    2.0810 C.2   284  PHE284      0.2596
    166  O         -2.6540   20.2080    3.2150 O.2   284  PHE284     -0.2718
    167  CB        -4.3800   20.8640    0.8630 C.3   284  PHE284      0.0547
    168  CG        -4.2430   22.3170    0.4920 C.ar  284  PHE284     -0.0202
    169  CD1       -3.7810   23.2530    1.4200 C.ar  284  PHE284     -0.0042
    170  CD2       -4.5660   22.7450   -0.7900 C.ar  284  PHE284     -0.0042
    171  CE1       -3.6570   24.6070    1.0690 C.ar  284  PHE284     -0.0003
    172  CE2       -4.4520   24.0800   -1.1520 C.ar  284  PHE284     -0.0003
    173  CZ        -3.9910   25.0150   -0.2210 C.ar  284  PHE284     -0.0000
    174  N         -1.1410   21.1670    1.8370 N.am  285  SER285     -0.1938
    175  CA        -0.2220   21.5740    2.8820 C.3   285  SER285      0.2055
    176  C          0.6860   22.6870    2.3570 C.2   285  SER285      0.2643
    177  O          1.2280   22.5830    1.2570 O.2   285  SER285     -0.2714
    178  CB         0.6200   20.3840    3.3700 C.3   285  SER285      0.2130
    179  OG         1.4340   20.8020    4.4610 O.3   285  SER285     -0.2179
    180  N          0.8190   23.7570    3.1420 N.am  286  PHE286     -0.1973
    181  CA         1.7090   24.8780    2.8190 C.3   286  PHE286      0.1639
    182  C          2.9840   24.8130    3.6560 C.2   286  PHE286      0.2290
    183  O          2.9520   24.3940    4.8160 O.2   286  PHE286     -0.2864
    184  CB         1.0290   26.2230    3.1300 C.3   286  PHE286      0.0560
    185  CG        -0.0170   26.6550    2.1310 C.ar  286  PHE286     -0.0200
    186  CD1        0.0900   26.3330    0.7810 C.ar  286  PHE286     -0.0042
    187  CD2       -1.0910   27.4390    2.5490 C.ar  286  PHE286     -0.0042
    188  CE1       -0.8740   26.7630   -0.1430 C.ar  286  PHE286     -0.0003
    189  CE2       -2.0520   27.8880    1.6390 C.ar  286  PHE286     -0.0003
    190  CZ        -1.9470   27.5500    0.2910 C.ar  286  PHE286     -0.0000
    191  N          5.5960   26.4590    6.0610 N.3   288  LYS288     -0.1245
    192  CA         5.5010   27.4980    7.0910 C.3   288  LYS288      0.1561
    193  C          6.8210   28.2650    7.2200 C.2   288  LYS288      0.2260
    194  O          7.9010   27.6690    7.1810 O.2   288  LYS288     -0.2867
    195  CB         5.1210   26.8800    8.4460 C.3   288  LYS288      0.0271
    196  CG         3.6750   26.3450    8.5460 C.3   288  LYS288      0.0035
    197  CD         3.5680   24.9120    8.0470 C.3   288  LYS288      0.0206
    198  CE         2.1410   24.3710    8.1190 C.3   288  LYS288      0.1093
    199  NZ         2.0050   23.1140    7.3190 N.3   288  LYS288     -0.1314
@<TRIPOS>BOND
     1   100    99    2
     2    99    98    1
     3   172   170   ar
     4   172   173   ar
     5   170   168   ar
     6    98    97    1
     7    98   101    1
     8   173   171   ar
     9   188   190   ar
    10   188   186   ar
    11   151   152    1
    12   101   102    1
    13   190   189   ar
    14   168   167    1
    15   168   169   ar
    16    19    20    1
    17   163   164    1
    18   186   185   ar
    19   164   167    1
    20   164   165    1
    21   152   153    1
    22   153   154    2
    23   171   169   ar
    24    20    23    1
    25    20    21    1
    26    23    24    1
    27   177   176    2
    28    26    24   ar
    29    26    28   ar
    30   189   187   ar
    31   102   103   ar
    32   102   104   ar
    33   174   165   am
    34   174   175    1
    35    24    25   ar
    36    28    29   ar
    37   165   166    2
    38   185   187   ar
    39   185   184    1
    40   103   105   ar
    41   155   156    1
    42    91    90    2
    43   176   175    1
    44   176   180   am
    45   157   158    2
    46   157   156    1
    47   104   106   ar
    48    90    89    1
    49    21    22    2
    50   181   184    1
    51   181   180    1
    52   181   182    1
    53   175   178    1
    54   156   159    1
    55    25    27   ar
    56    29    27   ar
    57   178   179    1
    58   105   107   ar
    59   182   183    2
    60    89    88    1
    61    89    92    1
    62   106   107   ar
    63   159   160    1
    64   107   108    1
    65    92    93    1
    66   160   161    2
    67   160   162   am
    68   191   192    1
    69    30    31    1
    70    93    94    1
    71    94    95    1
    72    53    51   ar
    73    13    12    2
    74    14    15    1
    75    14    11    1
    76   192   193    1
    77   192   195    1
    78    95    96    1
    79    12    11    1
    80   194   193    2
    81   199   198    1
    82    31    34    1
    83    31    32    1
    84   149   148    1
    85    15    16    1
    86    34    35    1
    87    51    52   ar
    88    51    50    1
    89    11    10    1
    90   197   198    1
    91   197   196    1
    92    33    32    2
    93    16    17    1
    94   195   196    1
    95    32    36   am
    96    50    49    1
    97   109   110    1
    98   144   145    1
    99   144   141    1
   100   148   147    2
   101   148   150    1
   102   146   145    1
   103   146   147    1
   104    17    18    1
   105   142   143    2
   106   142   141    1
   107    10     3   am
   108    45    46    1
   109   141   140    1
   110    36    37    1
   111   114   113    1
   112   114   115    1
   113    49    46    1
   114   110   113    1
   115   110   111    1
   116    46    47    1
   117   112   111    2
   118     3     4    2
   119     3     2    1
   120   119   117    1
   121    37    38    1
   122    37    40    1
   123   116   117    2
   124   116   115    1
   125   117   118    1
   126    38    39    2
   127    62    60   ar
   128    62    63   ar
   129     1     2    1
   130    74    72    1
   131     2     5    1
   132    60    59   ar
   133    47    48    2
   134    63    61   ar
   135     5     6    1
   136    40    41    1
   137    72    73    1
   138    72    71    2
   139     6     7    1
   140   134   133    2
   141    59    61   ar
   142    59    58    1
   143    41    42    1
   144    71    70    1
   145     7     8    1
   146   138   137   ar
   147   133   132    1
   148   137   139   ar
   149   137   136    1
   150    55    54    1
   151    55    58    1
   152    55    56    1
   153     8     9    1
   154   136   135    1
   155   135   132    1
   156    83    82    1
   157    42    43    1
   158    70    69    1
   159   132   131    1
   160    56    57    2
   161    82    81    1
   162    69    68    1
   163    44    43    1
   164    81    80    1
   165    68    65    1
   166    65    64    1
   167    65    66    1
   168    80    79    1
   169    75    66   am
   170    75    76    1
   171   129   128    1
   172    79    76    1
   173    66    67    2
   174   122   121    1
   175   122   123    2
   176   121   120    1
   177   121   124    1
   178    76    77    1
   179   128   130    1
   180   128   127    2
   181   125   124    1
   182   125   126    1
   183    78    77    2
   184   127   126    1
   185    87    86    2
   186    86    85    1
   187    84    85    1
