@<TRIPOS>MOLECULE
tmp/3t9fA01.pdb
 227 213 0 0 0
SMALL
GASTEIGER

@<TRIPOS>ATOM
      1  N         -9.5670   26.7190   11.0270 N.3    11  LYS11      -0.1231
      2  CA        -8.2100   26.3910   11.5190 C.3    11  LYS11       0.1693
      3  C         -7.1830   26.5030   10.3740 C.2    11  LYS11       0.2591
      4  O         -6.0390   26.9890   10.5660 O.2    11  LYS11      -0.2718
      5  CB        -8.2260   24.9800   12.1390 C.3    11  LYS11       0.0285
      6  CG        -7.0100   24.5790   12.9800 C.3    11  LYS11       0.0035
      7  CD        -7.1680   23.1370   13.4620 C.3    11  LYS11       0.0206
      8  CE        -5.8660   22.5790   14.0260 C.3    11  LYS11       0.1093
      9  NZ        -6.0750   21.2930   14.7740 N.3    11  LYS11      -0.1314
     10  N         -7.5930   26.0680    9.1830 N.am   12  LYS12      -0.1980
     11  CA        -6.7300   26.1230    8.0000 C.3    12  LYS12       0.1596
     12  C         -6.8290   27.4620    7.2530 C.2    12  LYS12       0.2287
     13  O         -5.7930   28.1040    6.9950 O.2    12  LYS12      -0.2864
     14  CB        -7.0180   24.9540    7.0450 C.3    12  LYS12       0.0298
     15  CG        -7.0890   23.5630    7.7270 C.3    12  LYS12       0.0038
     16  CD        -5.7610   23.2170    8.4240 C.3    12  LYS12       0.0206
     17  CE        -5.7740   21.8150    9.0310 C.3    12  LYS12       0.1093
     18  NZ        -4.4390   21.4770    9.6270 N.3    12  LYS12      -0.1314
     19  N        -10.2410   21.6860    0.6380 N.3    58  PHE58      -0.1241
     20  CA        -9.5020   20.5170    1.1390 C.3    58  PHE58       0.1605
     21  C         -9.9740   20.0540    2.5030 C.2    58  PHE58       0.2264
     22  O        -10.3040   20.8710    3.3770 O.2    58  PHE58      -0.2867
     23  CB        -7.9920   20.7530    1.1580 C.3    58  PHE58       0.0534
     24  CG        -7.5600   21.9360    1.9860 C.ar   58  PHE58      -0.0203
     25  CD1       -7.1530   21.7720    3.3050 C.ar   58  PHE58      -0.0042
     26  CD2       -7.5220   23.2120    1.4240 C.ar   58  PHE58      -0.0042
     27  CE1       -6.7190   22.8680    4.0640 C.ar   58  PHE58      -0.0003
     28  CE2       -7.1060   24.3060    2.1650 C.ar   58  PHE58      -0.0003
     29  CZ        -6.7120   24.1400    3.4930 C.ar   58  PHE58      -0.0000
     30  N         -9.9600   18.4900    6.1990 N.3    60  SER60      -0.1202
     31  CA        -9.2040   18.2950    7.4320 C.3    60  SER60       0.2020
     32  C        -10.2360   17.9120    8.4930 C.2    60  SER60       0.2618
     33  O        -11.4350   17.9380    8.2110 O.2    60  SER60      -0.2717
     34  CB        -8.4310   19.5560    7.8260 C.3    60  SER60       0.2103
     35  OG        -9.3100   20.6260    8.1180 O.3    60  SER60      -0.2182
     36  N         -9.7850   17.5610    9.7000 N.am   61  LYS61      -0.1979
     37  CA       -10.7050   17.1040   10.7390 C.3    61  LYS61       0.1596
     38  C        -11.9670   17.9730   10.8720 C.2    61  LYS61       0.2287
     39  O        -11.8760   19.1790   11.0960 O.2    61  LYS61      -0.2864
     40  CB       -10.0070   17.0160   12.1040 C.3    61  LYS61       0.0298
     41  CG       -10.7830   16.1130   13.0650 C.3    61  LYS61       0.0038
     42  CD       -10.4180   16.3330   14.5260 C.3    61  LYS61       0.0206
     43  CE       -11.0160   15.1940   15.3620 C.3    61  LYS61       0.1093
     44  NZ       -12.2920   14.6870   14.7480 N.3    61  LYS61      -0.1314
     45  N         -4.8070    5.0360    4.5980 N.3    92  ARG92      -0.1245
     46  CA        -3.4070    4.7260    4.2790 C.3    92  ARG92       0.1563
     47  C         -3.2860    3.5970    3.2720 C.2    92  ARG92       0.2260
     48  O         -2.3740    3.5960    2.4510 O.2    92  ARG92      -0.2867
     49  CB        -2.6050    4.3880    5.5420 C.3    92  ARG92       0.0307
     50  CG        -2.5440    5.5100    6.5600 C.3    92  ARG92       0.0489
     51  CD        -1.4240    5.2900    7.5780 C.3    92  ARG92       0.2205
     52  NE        -1.6310    6.1470    8.7500 N.pl3  92  ARG92      -0.0865
     53  CZ        -1.1020    7.3620    8.9020 C.cat  92  ARG92       0.5346
     54  NH1       -0.3000    7.8680    7.9630 N.pl3  92  ARG92       0.1354
     55  NH2       -1.3620    8.0730    9.9930 N.pl3  92  ARG92       0.1354
     56  N         -5.4610    7.3820    7.9670 N.3   149  ALA149     -0.1231
     57  CA        -4.3930    8.3820    7.7960 C.3   149  ALA149      0.1694
     58  C         -4.5680    9.6030    8.7060 C.2   149  ALA149      0.2591
     59  O         -3.6450   10.4100    8.8840 O.2   149  ALA149     -0.2718
     60  CB        -4.3190    8.8080    6.3350 C.3   149  ALA149      0.0304
     61  N         -5.7490    9.7510    9.2940 N.am  150  GLU150     -0.1979
     62  CA        -5.9490   10.8370   10.2500 C.3   150  GLU150      0.1602
     63  C         -5.5460   10.4370   11.7020 C.2   150  GLU150      0.2287
     64  O         -5.5800   11.2670   12.6260 O.2   150  GLU150     -0.2864
     65  CB        -7.3960   11.3670   10.1540 C.3   150  GLU150      0.0415
     66  CG        -7.8790   11.6600    8.6760 C.3   150  GLU150      0.1163
     67  CD        -6.9190   12.5720    7.8710 C.2   150  GLU150      0.3649
     68  OE1       -6.4640   13.5930    8.4350 O.co2 150  GLU150     -0.2457
     69  OE2       -6.5980   12.2670    6.6840 O.co2 150  GLU150     -0.2457
     70  N         -2.6000    9.4580   14.0370 N.3   152  HIS152     -0.1241
     71  CA        -1.1240    9.6140   14.0220 C.3   152  HIS152      0.1621
     72  C         -0.4030    8.7670   15.0770 C.2   152  HIS152      0.2264
     73  O          0.7870    8.9470   15.3470 O.2   152  HIS152     -0.2867
     74  CB        -0.7670   11.1020   14.1070 C.3   152  HIS152      0.0745
     75  CG        -1.3930   11.8920   13.0020 C.ar  152  HIS152      0.0817
     76  ND1       -1.0420   11.7050   11.6830 N.ar  152  HIS152     -0.2268
     77  CD2       -2.4300   12.7650   12.9960 C.ar  152  HIS152      0.1154
     78  CE1       -1.8090   12.4590   10.9160 C.ar  152  HIS152      0.1986
     79  NE2       -2.6540   13.1170   11.6890 N.ar  152  HIS152     -0.2212
     80  N          0.5880   13.1400   17.3360 N.3   171  ARG171     -0.1231
     81  CA         0.5800   14.5740   17.0230 C.3   171  ARG171      0.1694
     82  C          1.3410   15.2740   18.1450 C.2   171  ARG171      0.2591
     83  O          1.0970   15.0020   19.3220 O.2   171  ARG171     -0.2718
     84  CB        -0.8480   15.1460   16.9120 C.3   171  ARG171      0.0321
     85  CG        -1.4480   15.0910   15.4990 C.3   171  ARG171      0.0489
     86  CD        -1.0100   16.2830   14.6320 C.3   171  ARG171      0.2205
     87  NE        -1.3130   16.0820   13.2070 N.pl3 171  ARG171     -0.0865
     88  CZ        -0.4750   15.5510   12.3140 C.cat 171  ARG171      0.5346
     89  NH1        0.7440   15.1670   12.6800 N.pl3 171  ARG171      0.1354
     90  NH2       -0.8550   15.4090   11.0420 N.pl3 171  ARG171      0.1354
     91  N          2.2890   16.1340   17.7760 N.am  172  LYS172     -0.1980
     92  CA         3.1560   16.8080   18.7510 C.3   172  LYS172      0.1596
     93  C          2.3440   17.4380   19.8590 C.2   172  LYS172      0.2287
     94  O          1.2910   18.0320   19.6030 O.2   172  LYS172     -0.2864
     95  CB         4.0150   17.8780   18.0740 C.3   172  LYS172      0.0298
     96  CG         5.2950   17.3250   17.4560 C.3   172  LYS172      0.0038
     97  CD         6.0410   18.3720   16.6070 C.3   172  LYS172      0.0206
     98  CE         5.3900   18.5360   15.2310 C.3   172  LYS172      0.1093
     99  NZ         6.1460   19.4620   14.3080 N.3   172  LYS172     -0.1314
    100  N         10.3420   16.4760    4.2320 N.3   206  LYS206     -0.1245
    101  CA         8.9820   16.8810    3.9340 C.3   206  LYS206      0.1561
    102  C          8.9810   17.5860    2.5880 C.2   206  LYS206      0.2260
    103  O          9.7480   18.5370    2.3820 O.2   206  LYS206     -0.2867
    104  CB         8.4170   17.8080    5.0100 C.3   206  LYS206      0.0271
    105  CG         8.4920   17.2890    6.4730 C.3   206  LYS206      0.0035
    106  CD         7.4670   16.1990    6.7800 C.3   206  LYS206      0.0206
    107  CE         6.1310   16.7420    7.2680 C.3   206  LYS206      0.1093
    108  NZ         4.9980   15.7100    7.1820 N.3   206  LYS206     -0.1314
    109  N          6.7010   19.6070   -0.4510 N.3   208  TYR208     -0.1241
    110  CA         5.4870   20.4010   -0.6490 C.3   208  TYR208      0.1605
    111  C          5.4170   20.8070   -2.1160 C.2   208  TYR208      0.2264
    112  O          6.2910   21.5290   -2.6040 O.2   208  TYR208     -0.2867
    113  CB         5.5710   21.6590    0.2090 C.3   208  TYR208      0.0534
    114  CG         5.6750   21.4040    1.6940 C.ar  208  TYR208     -0.0201
    115  CD1        6.9080   21.1520    2.2980 C.ar  208  TYR208     -0.0009
    116  CD2        4.5440   21.4120    2.4890 C.ar  208  TYR208     -0.0009
    117  CE1        7.0110   20.9300    3.6760 C.ar  208  TYR208      0.0417
    118  CE2        4.6280   21.1880    3.8790 C.ar  208  TYR208      0.0417
    119  CZ         5.8580   20.9520    4.4610 C.ar  208  TYR208      0.1957
    120  OH         5.9430   20.7320    5.8250 O.3   208  TYR208     -0.2866
    121  N         13.5810   17.4590    8.8830 N.3   220  ARG220     -0.1245
    122  CA        13.4240   17.6560   10.3220 C.3   220  ARG220      0.1563
    123  C         13.7310   16.3380   11.0020 C.2   220  ARG220      0.2260
    124  O         13.6170   15.2730   10.3780 O.2   220  ARG220     -0.2867
    125  CB        12.0070   18.1380   10.6650 C.3   220  ARG220      0.0307
    126  CG        10.8810   17.2010   10.1960 C.3   220  ARG220      0.0489
    127  CD        10.3650   16.2690   11.3310 C.3   220  ARG220      0.2205
    128  NE         9.2720   15.4030   10.8790 N.pl3 220  ARG220     -0.0865
    129  CZ         7.9880   15.7590   10.8660 C.cat 220  ARG220      0.5346
    130  NH1        7.6100   16.9640   11.2810 N.pl3 220  ARG220      0.1354
    131  NH2        7.0700   14.9090   10.4260 N.pl3 220  ARG220      0.1354
    132  N         13.0700   22.9180   18.8410 N.3   231  ARG231     -0.1245
    133  CA        12.2790   24.1520   18.6740 C.3   231  ARG231      0.1563
    134  C         13.2070   25.3650   18.5710 C.2   231  ARG231      0.2260
    135  O         14.2170   25.4220   19.2720 O.2   231  ARG231     -0.2867
    136  CB        11.3140   24.3660   19.8620 C.3   231  ARG231      0.0307
    137  CG        10.1700   23.3470   20.0370 C.3   231  ARG231      0.0489
    138  CD         8.9300   23.7060   19.2140 C.3   231  ARG231      0.2205
    139  NE         7.8530   22.7160   19.3650 N.pl3 231  ARG231     -0.0865
    140  CZ         6.9350   22.4550   18.4310 C.cat 231  ARG231      0.5346
    141  NH1        6.9610   23.1100   17.2730 N.pl3 231  ARG231      0.1354
    142  NH2        5.9970   21.5310   18.6440 N.pl3 231  ARG231      0.1354
    143  N          9.3390   24.3420   14.8560 N.3   237  GLU237     -0.1245
    144  CA        10.1920   23.1740   14.6510 C.3   237  GLU237      0.1567
    145  C         11.3630   23.5420   13.7360 C.2   237  GLU237      0.2260
    146  O         11.1660   24.1610   12.6870 O.2   237  GLU237     -0.2867
    147  CB         9.3900   22.0130   14.0500 C.3   237  GLU237      0.0388
    148  CG        10.1670   20.7090   13.8990 C.3   237  GLU237      0.1160
    149  CD         9.2850   19.6160   13.3250 C.2   237  GLU237      0.3649
    150  OE1        9.1160   19.5470   12.0790 O.co2 237  GLU237     -0.2457
    151  OE2        8.7400   18.8380   14.1260 O.co2 237  GLU237     -0.2457
    152  N         13.8580   23.2220   10.9580 N.3   239  ARG239     -0.1245
    153  CA        13.7870   22.6290    9.6280 C.3   239  ARG239      0.1563
    154  C         15.1560   22.8180    8.9430 C.2   239  ARG239      0.2260
    155  O         15.7860   23.8660    9.0960 O.2   239  ARG239     -0.2867
    156  CB        12.6560   23.2900    8.8070 C.3   239  ARG239      0.0307
    157  CG        11.2010   22.9070    9.2260 C.3   239  ARG239      0.0489
    158  CD        10.8600   21.4660    8.8250 C.3   239  ARG239      0.2205
    159  NE         9.6730   20.8920    9.4840 N.pl3 239  ARG239     -0.0865
    160  CZ         8.5000   20.7030    8.8890 C.cat 239  ARG239      0.5346
    161  NH1        8.3290   21.0730    7.6180 N.pl3 239  ARG239      0.1354
    162  NH2        7.4880   20.1490    9.5620 N.pl3 239  ARG239      0.1354
    163  N          1.3940   17.8480    0.1170 N.3   265  GLY265     -0.1225
    164  CA         2.5580   17.5320    0.9100 C.3   265  GLY265      0.1811
    165  C          2.7450   16.0350    0.9960 C.2   265  GLY265      0.2280
    166  O          1.7730   15.2770    1.0660 O.2   265  GLY265     -0.2866
    167  N          5.8710   12.8080    2.4700 N.3   267  ASP267     -0.1239
    168  CA         7.0720   12.5110    3.2740 C.3   267  ASP267      0.1674
    169  C          7.9660   11.5380    2.5040 C.2   267  ASP267      0.2266
    170  O          7.4540   10.5410    1.9730 O.2   267  ASP267     -0.2867
    171  CB         6.6880   11.8740    4.6320 C.3   267  ASP267      0.1410
    172  CG         5.8690   12.8190    5.5440 C.2   267  ASP267      0.3668
    173  OD1        5.7950   14.0310    5.2490 O.co2 267  ASP267     -0.2456
    174  OD2        5.2930   12.3610    6.5710 O.co2 267  ASP267     -0.2456
    175  N          4.1600    8.5500    3.2710 N.3   279  ASP279     -0.1239
    176  CA         3.0050    9.3240    3.7150 C.3   279  ASP279      0.1674
    177  C          2.6500   10.3410    2.6380 C.2   279  ASP279      0.2266
    178  O          3.5330   11.0280    2.1320 O.2   279  ASP279     -0.2867
    179  CB         3.3820   10.0560    5.0270 C.3   279  ASP279      0.1410
    180  CG         2.1930   10.6730    5.7370 C.2   279  ASP279      0.3668
    181  OD1        1.0390   10.2840    5.4840 O.co2 279  ASP279     -0.2456
    182  OD2        2.4090   11.5440    6.6070 O.co2 279  ASP279     -0.2456
    183  N         -0.0810   13.4860    2.2850 N.3   281  ASN281     -0.1240
    184  CA        -1.0370   14.2570    3.0860 C.3   281  ASN281      0.1653
    185  C         -2.0300   15.1460    2.3340 C.2   281  ASN281      0.2266
    186  O         -3.0070   15.6080    2.9220 O.2   281  ASN281     -0.2867
    187  CB        -0.2550   15.0820    4.0950 C.3   281  ASN281      0.1155
    188  CG         0.4220   14.2120    5.1020 C.2   281  ASN281      0.2627
    189  OD1       -0.1960   13.2750    5.6000 O.2   281  ASN281     -0.2716
    190  ND2        1.6940   14.4760    5.3860 N.am  281  ASN281     -0.0877
    191  N         -3.2970   18.6340    0.7720 N.3   283  PHE283     -0.1227
    192  CA        -3.0730   20.0600    0.8990 C.3   283  PHE283      0.1736
    193  C         -2.3320   20.3980    2.1610 C.2   283  PHE283      0.2596
    194  O         -2.7900   20.1210    3.2600 O.2   283  PHE283     -0.2718
    195  CB        -4.3920   20.8290    0.8780 C.3   283  PHE283      0.0547
    196  CG        -4.2380   22.2780    0.5520 C.ar  283  PHE283     -0.0202
    197  CD1       -3.7380   23.1700    1.4970 C.ar  283  PHE283     -0.0042
    198  CD2       -4.6280   22.7690   -0.6980 C.ar  283  PHE283     -0.0042
    199  CE1       -3.6020   24.5260    1.1960 C.ar  283  PHE283     -0.0003
    200  CE2       -4.4950   24.1170   -1.0110 C.ar  283  PHE283     -0.0003
    201  CZ        -3.9880   24.9970   -0.0740 C.ar  283  PHE283     -0.0000
    202  N         -1.1880   21.0380    1.9750 N.am  284  SER284     -0.1938
    203  CA        -0.2920   21.4140    3.0540 C.3   284  SER284      0.2055
    204  C          0.5880   22.5600    2.5320 C.2   284  SER284      0.2643
    205  O          1.0940   22.4860    1.4080 O.2   284  SER284     -0.2714
    206  CB         0.5510   20.1890    3.4840 C.3   284  SER284      0.2130
    207  OG         1.5620   20.5280    4.4160 O.3   284  SER284     -0.2179
    208  N          0.7330   23.6200    3.3220 N.am  285  PHE285     -0.1973
    209  CA         1.6510   24.7440    2.9810 C.3   285  PHE285      0.1639
    210  C          2.8910   24.6800    3.8670 C.2   285  PHE285      0.2290
    211  O          2.8530   24.1470    4.9910 O.2   285  PHE285     -0.2864
    212  CB         0.9720   26.1020    3.2540 C.3   285  PHE285      0.0560
    213  CG        -0.0470   26.5220    2.2230 C.ar  285  PHE285     -0.0200
    214  CD1        0.1420   26.2470    0.8670 C.ar  285  PHE285     -0.0042
    215  CD2       -1.1780   27.2560    2.6140 C.ar  285  PHE285     -0.0042
    216  CE1       -0.7900   26.6610   -0.0950 C.ar  285  PHE285     -0.0003
    217  CE2       -2.1160   27.6890    1.6580 C.ar  285  PHE285     -0.0003
    218  CZ        -1.9220   27.3860    0.3030 C.ar  285  PHE285     -0.0000
    219  N          5.4100   26.3540    6.4130 N.3   287  LYS287     -0.1245
    220  CA         5.3980   27.3760    7.4740 C.3   287  LYS287      0.1561
    221  C          6.7520   28.1270    7.5150 C.2   287  LYS287      0.2260
    222  O          7.8150   27.5120    7.4130 O.2   287  LYS287     -0.2867
    223  CB         5.1120   26.7420    8.8490 C.3   287  LYS287      0.0271
    224  CG         3.7390   26.0260    9.0090 C.3   287  LYS287      0.0035
    225  CD         3.7070   25.1660   10.2950 C.3   287  LYS287      0.0206
    226  CE         2.3920   24.3810   10.4880 C.3   287  LYS287      0.1093
    227  NZ         2.5030   23.3400   11.5760 N.3   287  LYS287     -0.1314
@<TRIPOS>BOND
     1   112   111    2
     2   111   110    1
     3   200   198   ar
     4   200   201   ar
     5   198   196   ar
     6   110   109    1
     7   110   113    1
     8   216   218   ar
     9   216   214   ar
    10   201   199   ar
    11   163   164    1
    12   113   114    1
    13   218   217   ar
    14   196   195    1
    15   196   197   ar
    16    19    20    1
    17   191   192    1
    18   214   213   ar
    19   195   192    1
    20   192   193    1
    21   164   165    1
    22   165   166    2
    23    20    23    1
    24    20    21    1
    25    23    24    1
    26   199   197   ar
    27   205   204    2
    28    26    24   ar
    29    26    28   ar
    30   217   215   ar
    31   114   115   ar
    32   114   116   ar
    33   170   169    2
    34   202   193   am
    35   202   203    1
    36    24    25   ar
    37   178   177    2
    38   193   194    2
    39    28    29   ar
    40   213   215   ar
    41   213   212    1
    42   183   184    1
    43   115   117   ar
    44   185   186    2
    45   185   184    1
    46   103   102    2
    47    48    47    2
    48   167   168    1
    49   116   118   ar
    50    21    22    2
    51   169   168    1
    52   204   203    1
    53   204   208   am
    54   102   101    1
    55   177   176    1
    56   209   212    1
    57   209   208    1
    58   209   210    1
    59   203   206    1
    60   184   187    1
    61   175   176    1
    62    47    46    1
    63   168   171    1
    64    25    27   ar
    65   206   207    1
    66    29    27   ar
    67   117   119   ar
    68   176   179    1
    69   210   211    2
    70   118   119   ar
    71   101   100    1
    72   101   104    1
    73   187   188    1
    74    46    45    1
    75    46    49    1
    76   119   120    1
    77   171   172    1
    78   104   105    1
    79   179   180    1
    80   188   190   am
    81   188   189    2
    82   173   172   ar
    83   181   180   ar
    84    49    50    1
    85   172   174   ar
    86   180   182   ar
    87    30    31    1
    88    60    57    1
    89   219   220    1
    90   105   106    1
    91    50    51    1
    92    69    67   ar
    93   106   107    1
    94    13    12    2
    95    14    15    1
    96    14    11    1
    97   108   107    1
    98    12    11    1
    99   222   221    2
   100    31    34    1
   101    31    32    1
   102   220   221    1
   103   220   223    1
   104    51    52    1
   105   161   160    1
   106    15    16    1
   107    57    56    1
   108    57    58    1
   109    34    35    1
   110    67    68   ar
   111    67    66    1
   112    54    53    1
   113    11    10    1
   114    33    32    2
   115    16    17    1
   116    32    36   am
   117    66    65    1
   118    58    59    2
   119    58    61   am
   120    52    53    2
   121   156   157    1
   122   156   153    1
   123   158   157    1
   124   158   159    1
   125   223   224    1
   126   121   122    1
   127   160   159    2
   128   160   162    1
   129    53    55    1
   130   154   155    2
   131   154   153    1
   132   224   225    1
   133    17    18    1
   134    10     3   am
   135    61    62    1
   136   153   152    1
   137    36    37    1
   138    65    62    1
   139   126   125    1
   140   126   127    1
   141    62    63    1
   142   225   226    1
   143   122   125    1
   144   122   123    1
   145     3     4    2
   146     3     2    1
   147   124   123    2
   148   131   129    1
   149   226   227    1
   150    37    38    1
   151    37    40    1
   152   129   128    2
   153   129   130    1
   154    38    39    2
   155   128   127    1
   156    78    76   ar
   157    78    79   ar
   158     1     2    1
   159    90    88    1
   160     2     5    1
   161    76    75   ar
   162    79    77   ar
   163    63    64    2
   164   150   149   ar
   165    40    41    1
   166     5     6    1
   167    88    89    1
   168    88    87    2
   169   146   145    2
   170     6     7    1
   171    77    75   ar
   172    75    74    1
   173    41    42    1
   174    87    86    1
   175   149   148    1
   176   149   151   ar
   177     7     8    1
   178   145   144    1
   179   148   147    1
   180    71    70    1
   181    71    74    1
   182    71    72    1
   183     8     9    1
   184   147   144    1
   185    99    98    1
   186    42    43    1
   187    86    85    1
   188   144   143    1
   189    44    43    1
   190    72    73    2
   191    98    97    1
   192    85    84    1
   193    97    96    1
   194    84    81    1
   195    81    80    1
   196    81    82    1
   197   141   140    1
   198    96    95    1
   199    91    82   am
   200    91    92    1
   201    95    92    1
   202    82    83    2
   203   140   142    1
   204   140   139    2
   205   134   133    1
   206   134   135    2
   207   133   132    1
   208   133   136    1
   209    92    93    1
   210   138   139    1
   211   138   137    1
   212    94    93    2
   213   136   137    1
