@<TRIPOS>MOLECULE
tmp/3t9iA00.pdb
 179 168 0 0 0
SMALL
GASTEIGER

@<TRIPOS>ATOM
      1  N        -15.5760   38.3180    5.4800 N.3    12  LEU12      -0.1231
      2  CA       -16.9980   38.3890    5.8170 C.3    12  LEU12       0.1693
      3  C        -17.4030   37.2570    6.7500 C.2    12  LEU12       0.2592
      4  O        -17.2080   36.0850    6.4300 O.2    12  LEU12      -0.2718
      5  CB       -17.8630   38.3170    4.5560 C.3    12  LEU12       0.0284
      6  CG       -17.7360   39.4180    3.5060 C.3    12  LEU12       0.0019
      7  CD1      -18.5790   39.0820    2.2870 C.3    12  LEU12       0.0001
      8  CD2      -18.1420   40.7580    4.0840 C.3    12  LEU12       0.0001
      9  N        -17.9820   37.6100    7.8960 N.am   13  GLY13      -0.1957
     10  CA       -18.4790   36.6250    8.8440 C.3    13  GLY13       0.1869
     11  C        -17.3730   35.8830    9.5710 C.2    13  GLY13       0.2309
     12  O        -17.6080   34.8250   10.1580 O.2    13  GLY13      -0.2863
     13  N        -18.4730   31.7950    5.7850 N.3    17  PHE17      -0.1241
     14  CA       -18.7450   31.1660    4.4910 C.3    17  PHE17       0.1605
     15  C        -17.4600   30.6650    3.8480 C.2    17  PHE17       0.2264
     16  O        -17.4070   30.4370    2.6380 O.2    17  PHE17      -0.2867
     17  CB       -19.4360   32.1490    3.5450 C.3    17  PHE17       0.0534
     18  CG       -20.4630   33.0140    4.2150 C.ar   17  PHE17      -0.0203
     19  CD1      -21.7960   32.6430    4.2350 C.ar   17  PHE17      -0.0042
     20  CD2      -20.0910   34.1990    4.8280 C.ar   17  PHE17      -0.0042
     21  CE1      -22.7400   33.4390    4.8530 C.ar   17  PHE17      -0.0003
     22  CE2      -21.0310   34.9980    5.4510 C.ar   17  PHE17      -0.0003
     23  CZ       -22.3560   34.6170    5.4630 C.ar   17  PHE17      -0.0000
     24  N        -14.3520   34.2610    2.0260 N.3    20  VAL20      -0.1245
     25  CA       -14.9680   35.2720    1.1850 C.3    20  VAL20       0.1561
     26  C        -14.8530   36.6420    1.8400 C.2    20  VAL20       0.2260
     27  O        -15.1550   36.8020    3.0180 O.2    20  VAL20      -0.2867
     28  CB       -16.4290   34.9050    0.7730 C.3    20  VAL20       0.0252
     29  CG1      -16.8710   33.6220    1.4440 C.3    20  VAL20       0.0019
     30  CG2      -17.3930   36.0470    1.0460 C.3    20  VAL20       0.0019
     31  N        -18.7480   40.2730   -3.5830 N.3    33  ALA33      -0.1245
     32  CA       -18.1780   39.3770   -2.5950 C.3    33  ALA33       0.1562
     33  C        -17.1700   38.5260   -3.3350 C.2    33  ALA33       0.2260
     34  O        -17.4020   38.1360   -4.4790 O.2    33  ALA33      -0.2867
     35  CB       -19.2590   38.5200   -1.9450 C.3    33  ALA33       0.0290
     36  N        -14.8160   35.2010   -3.2530 N.3    35  LYS35      -0.1245
     37  CA       -14.5300   33.9050   -2.6570 C.3    35  LYS35       0.1561
     38  C        -13.2530   33.2910   -3.2170 C.2    35  LYS35       0.2260
     39  O        -13.0190   33.3010   -4.4220 O.2    35  LYS35      -0.2867
     40  CB       -15.6940   32.9390   -2.8640 C.3    35  LYS35       0.0271
     41  CG       -15.4640   31.6180   -2.1720 C.3    35  LYS35       0.0035
     42  CD       -16.6200   30.6710   -2.3190 C.3    35  LYS35       0.0206
     43  CE       -16.3570   29.4190   -1.4890 C.3    35  LYS35       0.1093
     44  NZ       -17.2230   28.2680   -1.8760 N.3    35  LYS35      -0.1314
     45  N        -18.2330   24.1820   -8.5950 N.3    57  GLU57      -0.1245
     46  CA       -18.9490   25.3550   -8.1180 C.3    57  GLU57       0.1567
     47  C        -19.1170   26.3650   -9.2440 C.2    57  GLU57       0.2260
     48  O        -20.1650   26.9940   -9.3660 O.2    57  GLU57      -0.2867
     49  CB       -18.2210   25.9960   -6.9330 C.3    57  GLU57       0.0388
     50  CG       -19.0820   26.9200   -6.0810 C.3    57  GLU57       0.1160
     51  CD       -18.3750   27.3670   -4.7940 C.2    57  GLU57       0.3649
     52  OE1      -17.2010   26.9850   -4.5890 O.co2  57  GLU57      -0.2457
     53  OE2      -18.9930   28.0970   -3.9830 O.co2  57  GLU57      -0.2457
     54  N        -22.4750   27.6850  -10.9950 N.3    61  LEU61      -0.1245
     55  CA       -22.7060   29.1190  -10.9230 C.3    61  LEU61       0.1561
     56  C        -22.9500   29.7400  -12.2970 C.2    61  LEU61       0.2260
     57  O        -23.8110   30.6090  -12.4480 O.2    61  LEU61      -0.2867
     58  CB       -21.5490   29.8100  -10.2080 C.3    61  LEU61       0.0270
     59  CG       -21.6350   29.6870   -8.6850 C.3    61  LEU61       0.0019
     60  CD1      -20.3720   30.2060   -8.0210 C.3    61  LEU61       0.0001
     61  CD2      -22.8600   30.4220   -8.1640 C.3    61  LEU61       0.0001
     62  N        -27.6380   34.3820   -5.6490 N.3    72  ILE72      -0.1245
     63  CA       -26.4860   35.2710   -5.8260 C.3    72  ILE72       0.1561
     64  C        -25.7150   34.8930   -7.0880 C.2    72  ILE72       0.2260
     65  O        -25.3580   33.7350   -7.2810 O.2    72  ILE72      -0.2867
     66  CB       -25.5220   35.2250   -4.6190 C.3    72  ILE72       0.0252
     67  CG1      -26.1840   35.8180   -3.3700 C.3    72  ILE72       0.0019
     68  CG2      -24.2250   35.9550   -4.9460 C.3    72  ILE72       0.0019
     69  CD1      -26.4250   37.3160   -3.4370 C.3    72  ILE72       0.0001
     70  N        -13.6550   33.8360   -7.0110 N.3    86  LEU86      -0.1245
     71  CA       -14.9890   34.1300   -7.5250 C.3    86  LEU86       0.1561
     72  C        -15.4470   35.5280   -7.1200 C.2    86  LEU86       0.2260
     73  O        -15.2820   35.9320   -5.9670 O.2    86  LEU86      -0.2867
     74  CB       -16.0060   33.1100   -7.0040 C.3    86  LEU86       0.0270
     75  CG       -15.7140   31.6090   -7.0880 C.3    86  LEU86       0.0019
     76  CD1      -16.9470   30.8200   -6.6700 C.3    86  LEU86       0.0001
     77  CD2      -15.2780   31.1960   -8.4820 C.3    86  LEU86       0.0001
     78  N        -18.8070   37.7050   -6.6970 N.3    88  LEU88      -0.1231
     79  CA       -20.2390   37.4780   -6.5650 C.3    88  LEU88       0.1693
     80  C        -20.9660   38.7630   -6.1930 C.2    88  LEU88       0.2592
     81  O        -20.3810   39.6550   -5.5820 O.2    88  LEU88      -0.2718
     82  CB       -20.4880   36.4040   -5.5040 C.3    88  LEU88       0.0284
     83  CG       -19.6500   35.1380   -5.6940 C.3    88  LEU88       0.0019
     84  CD1      -19.2010   34.5780   -4.3630 C.3    88  LEU88       0.0001
     85  CD2      -20.4000   34.0900   -6.5050 C.3    88  LEU88       0.0001
     86  N        -22.2380   38.8600   -6.5730 N.am   89  GLU89      -0.1966
     87  CA       -23.0900   39.9520   -6.1170 C.3    89  GLU89       0.1733
     88  C        -22.9770   40.0730   -4.6140 C.2    89  GLU89       0.2616
     89  O        -22.8980   39.0660   -3.9140 O.2    89  GLU89      -0.2715
     90  CB       -24.5590   39.6550   -6.3970 C.3    89  GLU89       0.0429
     91  CG       -25.0060   39.6110   -7.8340 C.3    89  GLU89       0.1163
     92  CD       -26.5040   39.3520   -7.9250 C.2    89  GLU89       0.3649
     93  OE1      -27.2770   40.3270   -8.0420 O.co2  89  GLU89      -0.2457
     94  OE2      -26.9110   38.1730   -7.8490 O.co2  89  GLU89      -0.2457
     95  N        -22.9990   41.3000   -4.1120 N.am   90  ARG90      -0.1964
     96  CA       -23.1470   41.5250   -2.6830 C.3    90  ARG90       0.1714
     97  C        -24.3100   42.4730   -2.4120 C.2    90  ARG90       0.2458
     98  O        -24.2090   43.6730   -2.6490 O.2    90  ARG90      -0.2730
     99  CB       -21.8550   42.0650   -2.0620 C.3    90  ARG90       0.0347
    100  CG       -21.9890   42.4000   -0.5770 C.3    90  ARG90       0.0492
    101  CD       -20.6470   42.3740    0.1380 C.3    90  ARG90       0.2205
    102  NE       -19.7500   43.4200   -0.3370 N.pl3  90  ARG90      -0.0865
    103  CZ       -19.8920   44.7070   -0.0400 C.cat  90  ARG90       0.5346
    104  NH1      -19.0340   45.6060   -0.5070 N.pl3  90  ARG90       0.1354
    105  NH2      -20.9020   45.0940    0.7260 N.pl3  90  ARG90       0.1354
    106  N        -25.4260   41.9320   -1.9120 N.am   91  PRO91      -0.2716
    107  CA       -26.5540   42.7900   -1.5440 C.3    91  PRO91       0.1536
    108  C        -26.1270   43.7270   -0.4220 C.2    91  PRO91       0.2598
    109  O        -25.3050   43.3490    0.4200 O.2    91  PRO91      -0.2715
    110  CB       -27.5990   41.7970   -1.0150 C.3    91  PRO91       0.0310
    111  CG       -27.1430   40.4460   -1.4700 C.3    91  PRO91       0.0237
    112  CD       -25.6540   40.5260   -1.5430 C.3    91  PRO91       0.0939
    113  N        -26.6850   44.9320   -0.4100 N.am   92  GLU92      -0.1978
    114  CA       -26.3440   45.9190    0.6010 C.3    92  GLU92       0.1602
    115  C        -27.5300   46.8380    0.8730 C.2    92  GLU92       0.2287
    116  O        -27.9820   47.5480   -0.0250 O.2    92  GLU92      -0.2864
    117  CB       -25.1440   46.7460    0.1380 C.3    92  GLU92       0.0415
    118  CG       -24.6060   47.6910    1.1920 C.3    92  GLU92       0.1163
    119  CD       -24.0880   46.9520    2.4080 C.2    92  GLU92       0.3649
    120  OE1      -23.4570   45.8930    2.2240 O.co2  92  GLU92      -0.2457
    121  OE2      -24.3100   47.4240    3.5450 O.co2  92  GLU92      -0.2457
    122  N        -27.5640   43.6420    3.8970 N.3    94  VAL94      -0.1245
    123  CA       -27.8800   42.2290    3.7950 C.3    94  VAL94       0.1561
    124  C        -27.7650   41.5600    5.1560 C.2    94  VAL94       0.2260
    125  O        -26.9350   41.9470    5.9750 O.2    94  VAL94      -0.2867
    126  CB       -26.9280   41.5200    2.8010 C.3    94  VAL94       0.0252
    127  CG1      -25.4760   41.7170    3.2190 C.3    94  VAL94       0.0019
    128  CG2      -27.2570   40.0430    2.7000 C.3    94  VAL94       0.0019
    129  N        -27.8780   37.3930    6.7910 N.3    96  ASP96      -0.1239
    130  CA       -28.0450   35.9610    6.6650 C.3    96  ASP96       0.1674
    131  C        -29.3190   35.5140    7.3910 C.2    96  ASP96       0.2266
    132  O        -29.6560   36.0370    8.4520 O.2    96  ASP96      -0.2867
    133  CB       -26.8130   35.2660    7.2380 C.3    96  ASP96       0.1410
    134  CG       -26.9200   33.7700    7.1920 C.2    96  ASP96       0.3668
    135  OD1      -26.8900   33.2080    6.0790 O.co2  96  ASP96      -0.2456
    136  OD2      -27.0340   33.1540    8.2690 O.co2  96  ASP96      -0.2456
    137  N        -29.4380   34.5150    2.0130 N.3   142  LEU142     -0.1245
    138  CA       -29.2630   35.9130    2.3900 C.3   142  LEU142      0.1561
    139  C        -30.5570   36.6800    2.2080 C.2   142  LEU142      0.2260
    140  O        -31.3570   36.3740    1.3240 O.2   142  LEU142     -0.2867
    141  CB       -28.1570   36.5740    1.5680 C.3   142  LEU142      0.0270
    142  CG       -26.7730   35.9320    1.6190 C.3   142  LEU142      0.0019
    143  CD1      -25.8200   36.7500    0.7740 C.3   142  LEU142      0.0001
    144  CD2      -26.2640   35.8080    3.0600 C.3   142  LEU142      0.0001
    145  N        -30.0210   32.6240   -2.6390 N.3   152  LEU152     -0.1231
    146  CA       -29.2650   31.4180   -2.3300 C.3   152  LEU152      0.1693
    147  C        -27.7770   31.6560   -2.5030 C.2   152  LEU152      0.2592
    148  O        -27.3540   32.3260   -3.4410 O.2   152  LEU152     -0.2718
    149  CB       -29.6780   30.2830   -3.2590 C.3   152  LEU152      0.0284
    150  CG       -31.1310   29.8470   -3.1900 C.3   152  LEU152      0.0019
    151  CD1      -31.3770   28.7130   -4.1740 C.3   152  LEU152      0.0001
    152  CD2      -31.4450   29.4220   -1.7690 C.3   152  LEU152      0.0001
    153  N        -26.9810   31.0890   -1.6060 N.am  153  ILE153     -0.1966
    154  CA       -25.5320   31.1620   -1.7350 C.3   153  ILE153      0.1727
    155  C        -24.9090   29.7920   -1.5230 C.2   153  ILE153      0.2616
    156  O        -25.5960   28.8320   -1.1510 O.2   153  ILE153     -0.2715
    157  CB       -24.9140   32.1390   -0.7190 C.3   153  ILE153      0.0290
    158  CG1      -25.2380   31.6860    0.7110 C.3   153  ILE153      0.0022
    159  CG2      -25.4180   33.5520   -0.9620 C.3   153  ILE153      0.0023
    160  CD1      -24.5560   32.5030    1.7890 C.3   153  ILE153      0.0001
    161  N        -23.6020   29.7250   -1.7650 N.am  154  ASP154     -0.1957
    162  CA       -22.7850   28.5420   -1.5080 C.3   154  ASP154      0.1840
    163  C        -23.2230   27.2860   -2.2710 C.2   154  ASP154      0.2622
    164  O        -23.9140   26.4190   -1.7330 O.2   154  ASP154     -0.2715
    165  CB       -22.6940   28.2570   -0.0090 C.3   154  ASP154      0.1450
    166  CG       -21.6540   27.1990    0.3150 C.2   154  ASP154      0.3671
    167  OD1      -20.8240   26.8840   -0.5740 O.co2 154  ASP154     -0.2456
    168  OD2      -21.6640   26.6850    1.4570 O.co2 154  ASP154     -0.2456
    169  N        -22.7930   27.1970   -3.5230 N.am  155  PHE155     -0.1974
    170  CA       -23.0650   26.0370   -4.3540 C.3   155  PHE155      0.1639
    171  C        -21.8910   25.0620   -4.3350 C.2   155  PHE155      0.2290
    172  O        -21.7900   24.1870   -5.1960 O.2   155  PHE155     -0.2864
    173  CB       -23.3690   26.4760   -5.7860 C.3   155  PHE155      0.0560
    174  CG       -24.7090   27.1350   -5.9440 C.ar  155  PHE155     -0.0200
    175  CD1      -24.9060   28.4470   -5.5350 C.ar  155  PHE155     -0.0042
    176  CD2      -25.7780   26.4400   -6.5000 C.ar  155  PHE155     -0.0042
    177  CE1      -26.1470   29.0590   -5.6760 C.ar  155  PHE155     -0.0003
    178  CE2      -27.0240   27.0460   -6.6510 C.ar  155  PHE155     -0.0003
    179  CZ       -27.2080   28.3560   -6.2370 C.ar  155  PHE155     -0.0000
@<TRIPOS>BOND
     1    57    56    2
     2    56    55    1
     3    54    55    1
     4    55    58    1
     5    58    59    1
     6    48    47    2
     7    47    46    1
     8    59    61    1
     9    59    60    1
    10    45    46    1
    11    77    75    1
    12    46    49    1
    13    93    92   ar
    14    92    94   ar
    15    92    91    1
    16    91    90    1
    17    71    72    1
    18    71    70    1
    19    71    74    1
    20    65    64    2
    21    72    73    2
    22    64    63    1
    23    75    74    1
    24    75    76    1
    25    49    50    1
    26    78    79    1
    27   178   176   ar
    28   178   179   ar
    29    86    80   am
    30    86    87    1
    31    79    80    1
    32    79    82    1
    33    85    83    1
    34   176   174   ar
    35    90    87    1
    36   179   177   ar
    37    80    81    2
    38    87    88    1
    39    50    51    1
    40   174   173    1
    41   174   175   ar
    42    63    62    1
    43    63    66    1
    44   173   170    1
    45    83    82    1
    46    83    84    1
    47   177   175   ar
    48   172   171    2
    49    68    66    1
    50    51    52   ar
    51    51    53   ar
    52    66    67    1
    53    88    95   am
    54    88    89    2
    55    34    33    2
    56    39    38    2
    57   170   171    1
    58   170   169    1
    59   151   150    1
    60    95    96    1
    61    31    32    1
    62   169   163   am
    63   148   147    2
    64    69    67    1
    65    33    32    1
    66   149   150    1
    67   149   146    1
    68    36    37    1
    69    38    37    1
    70   150   152    1
    71    40    37    1
    72    40    41    1
    73    96    97    1
    74    96    99    1
    75    98    97    2
    76   145   146    1
    77    32    35    1
    78   147   146    1
    79   147   153   am
    80    97   106   am
    81    42    41    1
    82    42    43    1
    83   163   164    2
    84   163   162    1
    85    99   100    1
    86   106   107    1
    87   106   112    1
    88    44    43    1
    89   161   155   am
    90   161   162    1
    91   154   153    1
    92   154   155    1
    93   154   157    1
    94   107   110    1
    95   107   108    1
    96   112   111    1
    97   155   156    2
    98   162   165    1
    99   111   110    1
   100   159   157    1
   101   157   158    1
   102   100   101    1
   103   167   166   ar
   104   104   103    1
   105   108   113   am
   106   108   109    2
   107   113   114    1
   108   102   103    2
   109   102   101    1
   110   103   105    1
   111   116   115    2
   112   165   166    1
   113   117   114    1
   114   117   118    1
   115   166   168   ar
   116   114   115    1
   117   158   160    1
   118    28    30    1
   119    28    25    1
   120    28    29    1
   121   143   142    1
   122    25    26    1
   123    25    24    1
   124   118   119    1
   125   140   139    2
   126   141   142    1
   127   141   138    1
   128   142   144    1
   129    26    27    2
   130   137   138    1
   131   139   138    1
   132   120   119   ar
   133     7     6    1
   134   119   121   ar
   135    16    15    2
   136   128   126    1
   137   126   127    1
   138   126   123    1
   139     6     8    1
   140     6     5    1
   141    17    18    1
   142    17    14    1
   143   123   122    1
   144   123   124    1
   145    15    14    1
   146    18    19   ar
   147    18    20   ar
   148    19    21   ar
   149    14    13    1
   150     5     2    1
   151    20    22   ar
   152    21    23   ar
   153   124   125    2
   154    22    23   ar
   155     1     2    1
   156     2     3    1
   157   135   134   ar
   158     4     3    2
   159   130   129    1
   160   130   133    1
   161   130   131    1
   162     3     9   am
   163   134   133    1
   164   134   136   ar
   165   131   132    2
   166     9    10    1
   167    10    11    1
   168    11    12    2
