@<TRIPOS>MOLECULE
tmp/3t9nB01.pdb
 77 70 0 0 0
SMALL
GASTEIGER

@<TRIPOS>ATOM
      1  N        -24.6960  -69.8870   63.9010 N.3    51  THR51      -0.1218
      2  CA       -24.0320  -68.6350   64.2360 C.3    51  THR51       0.1862
      3  C        -25.0320  -67.4650   64.3150 C.2    51  THR51       0.2287
      4  O        -24.9370  -66.5990   65.1940 O.2    51  THR51      -0.2866
      5  CB       -22.9070  -68.3200   63.2190 C.3    51  THR51       0.1770
      6  OG1      -21.6620  -68.1640   63.9080 O.3    51  THR51      -0.2211
      7  CG2      -23.2060  -67.0530   62.4260 C.3    51  THR51       0.0375
      8  N        -27.2830  -67.8740   67.5520 N.3    54  SER54      -0.1202
      9  CA       -26.6130  -67.4040   68.7590 C.3    54  SER54       0.2020
     10  C        -26.3800  -65.8780   68.7200 C.2    54  SER54       0.2618
     11  O        -26.3000  -65.2190   69.7700 O.2    54  SER54      -0.2717
     12  CB       -25.2970  -68.1420   68.9780 C.3    54  SER54       0.2103
     13  OG       -24.3550  -67.7550   67.9990 O.3    54  SER54      -0.2182
     14  N        -26.2600  -65.3210   67.5110 N.am   55  LEU55      -0.1979
     15  CA       -26.2770  -63.8620   67.3230 C.3    55  LEU55       0.1596
     16  C        -27.5460  -63.2510   67.9400 C.2    55  LEU55       0.2287
     17  O        -27.4840  -62.4490   68.8420 O.2    55  LEU55      -0.2864
     18  CB       -26.1930  -63.5250   65.8250 C.3    55  LEU55       0.0297
     19  CG       -25.1030  -62.5320   65.4450 C.3    55  LEU55       0.0022
     20  CD1      -25.6730  -61.0920   65.4150 C.3    55  LEU55       0.0001
     21  CD2      -23.9570  -62.7150   66.4410 C.3    55  LEU55       0.0001
     22  N        -27.6670  -63.8100   71.8740 N.3    58  ASN58      -0.1240
     23  CA       -26.8020  -62.8310   72.5110 C.3    58  ASN58       0.1653
     24  C        -27.3250  -61.3780   72.4580 C.2    58  ASN58       0.2266
     25  O        -27.2590  -60.6510   73.4450 O.2    58  ASN58      -0.2867
     26  CB       -25.4000  -62.9040   71.8990 C.3    58  ASN58       0.1155
     27  CG       -24.6770  -64.1760   72.2600 C.2    58  ASN58       0.2627
     28  OD1      -24.9090  -64.7330   73.3270 O.2    58  ASN58      -0.2716
     29  ND2      -23.7920  -64.6380   71.3810 N.am   58  ASN58      -0.0877
     30  N        -28.0870  -59.2660   75.8830 N.3    62  TYR62      -0.1241
     31  CA       -27.4900  -57.9560   76.1780 C.3    62  TYR62       0.1605
     32  C        -28.5260  -56.8130   76.3090 C.2    62  TYR62       0.2264
     33  O        -28.4180  -55.9580   77.1880 O.2    62  TYR62      -0.2867
     34  CB       -26.3880  -57.6120   75.1750 C.3    62  TYR62       0.0534
     35  CG       -25.1710  -58.4830   75.3340 C.ar   62  TYR62      -0.0201
     36  CD1      -24.2520  -58.6400   74.3060 C.ar   62  TYR62      -0.0009
     37  CD2      -24.9480  -59.1560   76.5180 C.ar   62  TYR62      -0.0009
     38  CE1      -23.1380  -59.4470   74.4580 C.ar   62  TYR62       0.0417
     39  CE2      -23.8440  -59.9650   76.6830 C.ar   62  TYR62       0.0417
     40  CZ       -22.9390  -60.1120   75.6520 C.ar   62  TYR62       0.1957
     41  OH       -21.8380  -60.9330   75.8320 O.3    62  TYR62      -0.2866
     42  N        -24.1220  -47.6530   66.7690 N.3    94  ILE94      -0.1245
     43  CA       -24.8400  -48.7550   66.1120 C.3    94  ILE94       0.1561
     44  C        -25.8280  -48.2020   65.1050 C.2    94  ILE94       0.2260
     45  O        -25.8940  -48.6710   63.9730 O.2    94  ILE94      -0.2867
     46  CB       -25.6620  -49.6980   67.0880 C.3    94  ILE94       0.0252
     47  CG1      -24.8940  -50.0690   68.3640 C.3    94  ILE94       0.0019
     48  CG2      -26.0990  -50.9620   66.3580 C.3    94  ILE94       0.0019
     49  CD1      -23.7010  -50.8870   68.1200 C.3    94  ILE94       0.0001
     50  N        -25.5200  -49.0310   61.1680 N.3    98  ALA98      -0.1245
     51  CA       -26.5180  -49.8840   60.5520 C.3    98  ALA98       0.1562
     52  C        -27.3360  -49.1600   59.4770 C.2    98  ALA98       0.2260
     53  O        -27.9870  -49.7970   58.6130 O.2    98  ALA98      -0.2867
     54  CB       -27.4240  -50.4320   61.6300 C.3    98  ALA98       0.0290
     55  N        -26.6990  -50.7530   55.9250 N.3   101  LEU101     -0.1231
     56  CA       -27.5130  -51.9510   55.8000 C.3   101  LEU101      0.1693
     57  C        -29.0040  -51.6420   55.4440 C.2   101  LEU101      0.2591
     58  O        -29.5350  -52.1870   54.4470 O.2   101  LEU101     -0.2718
     59  CB       -27.4100  -52.7510   57.1030 C.3   101  LEU101      0.0284
     60  CG       -28.2980  -53.9810   57.2170 C.3   101  LEU101      0.0019
     61  CD1      -27.8130  -54.9530   56.1970 C.3   101  LEU101      0.0001
     62  CD2      -28.2450  -54.5700   58.6070 C.3   101  LEU101      0.0001
     63  N        -29.6730  -50.7750   56.2300 N.am  102  VAL102     -0.1980
     64  CA       -31.0840  -50.4360   55.9280 C.3   102  VAL102      0.1595
     65  C        -31.2300  -49.8780   54.5040 C.2   102  VAL102      0.2287
     66  O        -32.2220  -50.1530   53.7970 O.2   102  VAL102     -0.2864
     67  CB       -31.7090  -49.4150   56.9350 C.3   102  VAL102      0.0276
     68  CG1      -33.2150  -49.2410   56.6870 C.3   102  VAL102      0.0022
     69  CG2      -31.4820  -49.8340   58.3660 C.3   102  VAL102      0.0022
     70  N        -30.9050  -52.6710   51.8450 N.3   105  MET105     -0.1245
     71  CA       -32.1720  -53.3740   51.7590 C.3   105  MET105      0.1570
     72  C        -33.3000  -52.6120   51.0690 C.2   105  MET105      0.2261
     73  O        -33.9400  -53.1780   50.1970 O.2   105  MET105     -0.2867
     74  CB       -32.5930  -53.8750   53.1170 C.3   105  MET105      0.0387
     75  CG       -31.7100  -54.9790   53.5930 C.3   105  MET105      0.0595
     76  SD       -32.3500  -55.5020   55.1680 S.3   105  MET105     -0.1393
     77  CE       -31.5780  -54.3470   56.3010 C.3   105  MET105      0.0692
@<TRIPOS>BOND
     1    73    72    2
     2    72    71    1
     3    71    70    1
     4    71    74    1
     5    74    75    1
     6    75    76    1
     7    66    65    2
     8    58    57    2
     9    65    64    1
    10    76    77    1
    11    57    56    1
    12    57    63   am
    13    56    55    1
    14    56    59    1
    15    64    63    1
    16    64    67    1
    17    61    60    1
    18    68    67    1
    19    67    69    1
    20    59    60    1
    21    60    62    1
    22    53    52    2
    23    52    51    1
    24    51    50    1
    25    51    54    1
    26     7     5    1
    27     5     6    1
    28     5     2    1
    29     1     2    1
    30    45    44    2
    31     2     3    1
    32     3     4    2
    33    44    43    1
    34    20    19    1
    35    19    18    1
    36    19    21    1
    37    18    15    1
    38    43    42    1
    39    43    46    1
    40    48    46    1
    41    46    47    1
    42    15    14    1
    43    15    16    1
    44    14    10   am
    45     8     9    1
    46    16    17    2
    47    13    12    1
    48    49    47    1
    49    10     9    1
    50    10    11    2
    51     9    12    1
    52    29    27   am
    53    22    23    1
    54    26    27    1
    55    26    23    1
    56    27    28    2
    57    24    23    1
    58    24    25    2
    59    36    38   ar
    60    36    35   ar
    61    38    40   ar
    62    34    35    1
    63    34    31    1
    64    35    37   ar
    65    40    41    1
    66    40    39   ar
    67    30    31    1
    68    31    32    1
    69    32    33    2
    70    37    39   ar
