@<TRIPOS>MOLECULE
tmp/3t9tA00.pdb
 174 162 0 0 0
SMALL
GASTEIGER

@<TRIPOS>ATOM
      1  N        -14.0650    6.5790    8.2790 N.3    14  ILE14      -0.1231
      2  CA       -14.0800    5.3300    9.0430 C.3    14  ILE14       0.1692
      3  C        -13.7970    5.4860   10.5350 C.2    14  ILE14       0.2593
      4  O        -14.1840    4.6340   11.3690 O.2    14  ILE14      -0.2718
      5  CB       -13.2330    4.2100    8.3850 C.3    14  ILE14       0.0266
      6  CG1      -11.7320    4.5510    8.3700 C.3    14  ILE14       0.0019
      7  CG2      -13.7590    3.9040    6.9700 C.3    14  ILE14       0.0020
      8  CD1      -10.8300    3.3910    7.8690 C.3    14  ILE14       0.0001
      9  N        -13.1210    6.5660   10.9000 N.am   15  GLY15      -0.1942
     10  CA       -12.9170    6.8260   12.3260 C.3    15  GLY15       0.2014
     11  C        -11.7910    7.8010   12.5860 C.2    15  GLY15       0.2640
     12  O        -11.3070    8.4290   11.6630 O.2    15  GLY15      -0.2714
     13  N        -11.3870    7.9110   13.8500 N.am   16  SER16      -0.1935
     14  CA       -10.3450    8.8570   14.2860 C.3    16  SER16       0.2055
     15  C         -9.1740    8.1010   14.9010 C.2    16  SER16       0.2643
     16  O         -9.3570    7.2090   15.7360 O.2    16  SER16      -0.2714
     17  CB       -10.9040    9.8220   15.3420 C.3    16  SER16       0.2130
     18  OG       -11.5980   10.8840   14.7100 O.3    16  SER16      -0.2179
     19  N         -7.9710    8.4690   14.4770 N.am   17  GLY17      -0.1954
     20  CA        -6.7400    7.8940   14.9950 C.3    17  GLY17       0.1869
     21  C         -5.7970    8.9990   15.4510 C.2    17  GLY17       0.2309
     22  O         -6.1810   10.1750   15.5850 O.2    17  GLY17      -0.2863
     23  N         -9.7740    9.4800    9.6850 N.3    22  VAL22      -0.1245
     24  CA        -9.3360    8.5540    8.6330 C.3    22  VAL22       0.1561
     25  C        -10.5180    8.1780    7.7270 C.2    22  VAL22       0.2260
     26  O        -11.6290    7.9610    8.2080 O.2    22  VAL22      -0.2867
     27  CB        -8.6220    7.3080    9.2310 C.3    22  VAL22       0.0252
     28  CG1       -8.1420    6.3490    8.1510 C.3    22  VAL22       0.0019
     29  CG2       -7.4390    7.7560   10.1060 C.3    22  VAL22       0.0019
     30  N         -6.4240    3.7980    2.9050 N.3    34  ALA34      -0.1231
     31  CA        -6.8620    4.6480    4.0050 C.3    34  ALA34       0.1694
     32  C         -6.1680    5.9910    3.8860 C.2    34  ALA34       0.2592
     33  O         -4.9960    6.0710    3.4930 O.2    34  ALA34      -0.2718
     34  CB        -6.5330    3.9950    5.3750 C.3    34  ALA34       0.0304
     35  N         -6.8860    7.0480    4.2230 N.am   35  ILE35      -0.1966
     36  CA        -6.3120    8.3880    4.1280 C.3    35  ILE35       0.1727
     37  C         -6.5480    9.0920    5.4330 C.2    35  ILE35       0.2616
     38  O         -7.7100    9.2220    5.8600 O.2    35  ILE35      -0.2715
     39  CB        -6.9730    9.2390    3.0110 C.3    35  ILE35       0.0290
     40  CG1       -6.9770    8.4890    1.6710 C.3    35  ILE35       0.0022
     41  CG2       -6.2420   10.5700    2.8390 C.3    35  ILE35       0.0023
     42  CD1       -7.8500    9.1700    0.6260 C.3    35  ILE35       0.0001
     43  N         -5.4730    9.5470    6.0820 N.am   36  LYS36      -0.1977
     44  CA        -5.6400   10.2550    7.3530 C.3    36  LYS36       0.1596
     45  C         -5.4160   11.7300    7.0820 C.2    36  LYS36       0.2287
     46  O         -4.3830   12.1260    6.5200 O.2    36  LYS36      -0.2864
     47  CB        -4.6320    9.7620    8.4000 C.3    36  LYS36       0.0298
     48  CG        -4.7660   10.4540    9.7480 C.3    36  LYS36       0.0038
     49  CD        -3.6720    9.9750   10.6920 C.3    36  LYS36       0.0206
     50  CE        -3.9490    8.5960   11.2230 C.3    36  LYS36       0.1093
     51  NZ        -2.9320    8.2340   12.2760 N.3    36  LYS36      -0.1314
     52  N          1.9330   -1.6550    8.9030 N.3    64  VAL64      -0.1245
     53  CA         1.1080   -0.8160    8.0300 C.3    64  VAL64       0.1561
     54  C          1.9510    0.0120    7.0790 C.2    64  VAL64       0.2260
     55  O          2.8060    0.7780    7.5100 O.2    64  VAL64      -0.2867
     56  CB         0.2120    0.1340    8.8320 C.3    64  VAL64       0.0252
     57  CG1       -0.5860    0.9970    7.8670 C.3    64  VAL64       0.0019
     58  CG2       -0.7320   -0.6910    9.6990 C.3    64  VAL64       0.0019
     59  N          3.0570    2.8160    4.6920 N.3    66  LEU66      -0.1245
     60  CA         2.8770    4.1870    4.1990 C.3    66  LEU66       0.1561
     61  C          3.0810    4.2640    2.6910 C.2    66  LEU66       0.2260
     62  O          4.1430    3.8580    2.1800 O.2    66  LEU66      -0.2867
     63  CB         3.8420    5.1510    4.8840 C.3    66  LEU66       0.0270
     64  CG         3.6680    6.6510    4.5830 C.3    66  LEU66       0.0019
     65  CD1        2.3160    7.1400    5.1240 C.3    66  LEU66       0.0001
     66  CD2        4.7940    7.4330    5.2780 C.3    66  LEU66       0.0001
     67  N         -1.9120   11.6870    5.1540 N.3    78  LEU78      -0.1245
     68  CA        -1.0720   10.4920    4.9540 C.3    78  LEU78       0.1561
     69  C         -1.9230    9.3600    4.3770 C.2    78  LEU78       0.2260
     70  O         -3.0720    9.1640    4.8040 O.2    78  LEU78      -0.2867
     71  CB        -0.4690   10.0210    6.2890 C.3    78  LEU78       0.0270
     72  CG         0.7460   10.7710    6.8610 C.3    78  LEU78       0.0019
     73  CD1        0.5590   12.3040    6.8690 C.3    78  LEU78       0.0001
     74  CD2        1.0660   10.2690    8.2860 C.3    78  LEU78       0.0001
     75  N         -2.1610    5.2120    3.4000 N.3    80  THR80      -0.1203
     76  CA        -1.6450    3.8570    3.6540 C.3    80  THR80       0.1994
     77  C         -2.5300    2.7720    3.0720 C.2    80  THR80       0.2618
     78  O         -3.6350    3.0280    2.5580 O.2    80  THR80      -0.2717
     79  CB        -1.5270    3.5230    5.1610 C.3    80  THR80       0.1784
     80  OG1       -2.8450    3.3400    5.7500 O.3    80  THR80      -0.2211
     81  CG2       -0.7480    4.5940    5.8880 C.3    80  THR80       0.0376
     82  N         -2.0420    1.5470    3.1800 N.am   81  GLU81      -0.1965
     83  CA        -2.8570    0.3980    2.8790 C.3    81  GLU81       0.1733
     84  C         -4.0940    0.4110    3.7490 C.2    81  GLU81       0.2616
     85  O         -4.0850    0.9510    4.8450 O.2    81  GLU81      -0.2715
     86  CB        -2.0750   -0.8980    3.0820 C.3    81  GLU81       0.0429
     87  CG        -1.8380   -1.2670    4.5430 C.3    81  GLU81       0.1163
     88  CD        -1.0550   -2.5720    4.6650 C.2    81  GLU81       0.3649
     89  OE1        0.1290   -2.5080    5.0350 O.co2  81  GLU81      -0.2457
     90  OE2       -1.6280   -3.6430    4.3700 O.co2  81  GLU81      -0.2457
     91  N         -5.1830   -0.1520    3.2300 N.am   82  PHE82      -0.1960
     92  CA        -6.4360   -0.2210    3.9830 C.3    82  PHE82       0.1771
     93  C         -6.5740   -1.5320    4.7620 C.2    82  PHE82       0.2619
     94  O         -6.3830   -2.6310    4.1940 O.2    82  PHE82      -0.2715
     95  CB        -7.6190   -0.0690    3.0110 C.3    82  PHE82       0.0574
     96  CG        -8.9620   -0.1720    3.6880 C.ar   82  PHE82      -0.0200
     97  CD1       -9.3870    0.7970    4.5740 C.ar   82  PHE82      -0.0042
     98  CD2       -9.7850   -1.2500    3.4390 C.ar   82  PHE82      -0.0042
     99  CE1      -10.6030    0.6880    5.1960 C.ar   82  PHE82      -0.0003
    100  CE2      -10.9990   -1.3590    4.0500 C.ar   82  PHE82      -0.0003
    101  CZ       -11.4040   -0.3900    4.9500 C.ar   82  PHE82      -0.0000
    102  N         -6.9400   -1.4020    6.0380 N.am   83  MET83      -0.1977
    103  CA        -7.1700   -2.5590    6.9240 C.3    83  MET83       0.1605
    104  C         -8.6120   -2.5230    7.3870 C.2    83  MET83       0.2287
    105  O         -9.0560   -1.5070    7.9110 O.2    83  MET83      -0.2864
    106  CB        -6.2950   -2.4720    8.1870 C.3    83  MET83       0.0413
    107  CG        -4.8880   -1.9920    7.9420 C.3    83  MET83       0.0598
    108  SD        -3.8720   -3.4210    7.6040 S.3    83  MET83      -0.1393
    109  CE        -3.9870   -4.3070    9.1450 C.3    83  MET83       0.0692
    110  N        -10.1680   -2.3930   11.9160 N.3    86  GLY86      -0.1210
    111  CA        -9.9820   -1.3920   12.9710 C.3    86  GLY86       0.1956
    112  C         -8.8210   -1.6920   13.9190 C.2    86  GLY86       0.2612
    113  O         -7.8680   -2.3690   13.5420 O.2    86  GLY86      -0.2717
    114  N         -8.9090   -1.1420   15.1250 N.am   87  CYS87      -0.1970
    115  CA        -7.8560   -1.2810   16.1500 C.3    87  CYS87       0.1712
    116  C         -7.9580   -2.6610   16.8110 C.2    87  CYS87       0.2296
    117  O         -9.0670   -3.1660   17.1010 O.2    87  CYS87      -0.2864
    118  CB        -8.0110   -0.1800   17.2260 C.3    87  CYS87       0.0983
    119  SG        -7.3830    1.4560   16.7380 S.3    87  CYS87      -0.0798
    120  N         -7.1980   -3.3300   19.8480 N.3    89  SER89      -0.1202
    121  CA        -7.8450   -3.1400   21.1510 C.3    89  SER89       0.2020
    122  C         -9.3800   -3.2890   21.1060 C.2    89  SER89       0.2618
    123  O         -9.9680   -4.0460   21.8760 O.2    89  SER89      -0.2717
    124  CB        -7.4570   -1.7890   21.7620 C.3    89  SER89       0.2103
    125  OG        -7.6400   -0.7370   20.8250 O.3    89  SER89      -0.2182
    126  N        -10.0100   -2.5390   20.2180 N.am   90  ASP90      -0.1973
    127  CA       -11.4610   -2.6080   20.0290 C.3    90  ASP90       0.1709
    128  C        -11.8800   -3.9710   19.5300 C.2    90  ASP90       0.2293
    129  O        -12.9200   -4.4840   19.9110 O.2    90  ASP90      -0.2864
    130  CB       -11.8810   -1.6150   18.9450 C.3    90  ASP90       0.1436
    131  CG       -11.7260   -0.1800   19.3750 C.2    90  ASP90       0.3671
    132  OD1      -11.7760    0.0850   20.5900 O.co2  90  ASP90      -0.2456
    133  OD2      -11.5580    0.6830   18.4830 O.co2  90  ASP90      -0.2456
    134  N         -3.8210   -0.5850   21.1350 N.3   131  ARG131     -0.1245
    135  CA        -4.5820    0.5160   20.5710 C.3   131  ARG131      0.1563
    136  C         -4.0000    1.0610   19.2850 C.2   131  ARG131      0.2260
    137  O         -4.7070    1.7590   18.5510 O.2   131  ARG131     -0.2867
    138  CB        -4.7320    1.6400   21.5980 C.3   131  ARG131      0.0307
    139  CG        -3.3780    2.2320   21.9930 C.3   131  ARG131      0.0489
    140  CD        -3.4920    3.3080   23.0810 C.3   131  ARG131      0.2205
    141  NE        -2.3110    3.3000   23.9470 N.pl3 131  ARG131     -0.0865
    142  CZ        -1.1260    3.8220   23.6200 C.cat 131  ARG131      0.5346
    143  NH1       -0.1070    3.7370   24.4660 N.pl3 131  ARG131      0.1354
    144  NH2       -0.9640    4.4220   22.4430 N.pl3 131  ARG131      0.1354
    145  N         -3.4870   -2.5840   14.0140 N.3   134  LEU134     -0.1245
    146  CA        -4.6870   -2.6530   13.1680 C.3   134  LEU134      0.1561
    147  C         -4.9130   -4.0970   12.7370 C.2   134  LEU134      0.2260
    148  O         -3.9720   -4.8990   12.6690 O.2   134  LEU134     -0.2867
    149  CB        -4.5490   -1.7540   11.9190 C.3   134  LEU134      0.0270
    150  CG        -4.4260   -0.2600   12.2700 C.3   134  LEU134      0.0019
    151  CD1       -4.2820    0.5670   10.9960 C.3   134  LEU134      0.0001
    152  CD2       -5.5960    0.1980   13.1130 C.3   134  LEU134      0.0001
    153  N          1.2650   -0.2420   13.6360 N.3   144  SER144     -0.1202
    154  CA         1.0740    1.1040   13.0590 C.3   144  SER144      0.2020
    155  C          1.6210    2.1760   14.0090 C.2   144  SER144      0.2618
    156  O          1.7960    1.9260   15.2030 O.2   144  SER144     -0.2717
    157  CB        -0.4280    1.3650   12.8490 C.3   144  SER144      0.2103
    158  OG        -0.6300    2.5390   12.0860 O.3   144  SER144     -0.2182
    159  N          1.8240    3.3800   13.4680 N.am  145  ASP145     -0.1973
    160  CA         2.1660    4.5870   14.2440 C.3   145  ASP145      0.1709
    161  C          3.5960    4.5310   14.8050 C.2   145  ASP145      0.2293
    162  O          3.9180    5.2830   15.7190 O.2   145  ASP145     -0.2864
    163  CB         1.1710    4.8610   15.4050 C.3   145  ASP145      0.1436
    164  CG        -0.2510    5.2080   14.9310 C.2   145  ASP145      0.3671
    165  OD1       -1.1510    5.3970   15.8190 O.co2 145  ASP145     -0.2456
    166  OD2       -0.4870    5.2560   13.7080 O.co2 145  ASP145     -0.2456
    167  N          5.8880    7.7130   15.6760 N.3   148  MET148     -0.1245
    168  CA         5.0820    8.9360   15.4600 C.3   148  MET148      0.1570
    169  C          5.0480    9.8960   16.6520 C.2   148  MET148      0.2261
    170  O          4.7250   11.1070   16.4840 O.2   148  MET148     -0.2867
    171  CB         3.6490    8.5910   15.0000 C.3   148  MET148      0.0387
    172  CG         3.5590    8.1080   13.5930 C.3   148  MET148      0.0595
    173  SD         4.2000    9.2590   12.3730 S.3   148  MET148     -0.1393
    174  CE         2.8130   10.3400   12.1590 C.3   148  MET148      0.0692
@<TRIPOS>BOND
     1    42    40    1
     2    40    39    1
     3    62    61    2
     4    78    77    2
     5    61    60    1
     6    41    39    1
     7    83    86    1
     8    83    82    1
     9    83    84    1
    10    30    31    1
    11    39    36    1
    12    95    96    1
    13    95    92    1
    14    77    82   am
    15    77    76    1
    16    86    87    1
    17    91    84   am
    18    91    92    1
    19    75    76    1
    20    98    96   ar
    21    98   100   ar
    22    33    32    2
    23    76    79    1
    24    96    97   ar
    25    84    85    2
    26    32    31    1
    27    32    35   am
    28    92    93    1
    29    31    34    1
    30   100   101   ar
    31    36    35    1
    32    36    37    1
    33    94    93    2
    34    60    59    1
    35    60    63    1
    36    90    88   ar
    37    69    70    2
    38    69    68    1
    39    87    88    1
    40    97    99   ar
    41    64    63    1
    42    64    65    1
    43    64    66    1
    44    88    89   ar
    45    93   102   am
    46   101    99   ar
    47    68    67    1
    48    68    71    1
    49    79    80    1
    50    79    81    1
    51    37    38    2
    52    37    43   am
    53   102   103    1
    54    43    44    1
    55    71    72    1
    56    46    45    2
    57    72    73    1
    58    72    74    1
    59   103   104    1
    60   103   106    1
    61     7     5    1
    62    54    55    2
    63    54    53    1
    64    45    44    1
    65    44    47    1
    66   104   105    2
    67   108   107    1
    68   108   109    1
    69    25    26    2
    70    25    24    1
    71    57    56    1
    72     8     6    1
    73   107   106    1
    74    53    56    1
    75    53    52    1
    76    28    27    1
    77     1     2    1
    78     6     5    1
    79     5     2    1
    80    47    48    1
    81    24    27    1
    82    24    23    1
    83    56    58    1
    84     2     3    1
    85    27    29    1
    86    48    49    1
    87     3     9   am
    88     3     4    2
    89    49    50    1
    90     9    10    1
    91   151   150    1
    92    50    51    1
    93    12    11    2
    94   110   111    1
    95   149   150    1
    96   149   146    1
    97   158   157    1
    98   174   173    1
    99   150   152    1
   100    10    11    1
   101   173   172    1
   102    11    13   am
   103   148   147    2
   104   147   146    1
   105   157   154    1
   106   111   112    1
   107   154   153    1
   108   154   155    1
   109   146   145    1
   110   159   155   am
   111   159   160    1
   112   113   112    2
   113   172   171    1
   114   166   164   ar
   115    13    14    1
   116   112   114   am
   117   155   156    2
   118   160   161    1
   119   160   163    1
   120    14    15    1
   121    14    17    1
   122    19    15   am
   123    19    20    1
   124    18    17    1
   125   161   162    2
   126    15    16    2
   127   164   163    1
   128   164   165   ar
   129    20    21    1
   130   171   168    1
   131   114   115    1
   132    21    22    2
   133   168   167    1
   134   168   169    1
   135   115   116    1
   136   115   118    1
   137   170   169    2
   138   119   118    1
   139   116   117    2
   140   133   131   ar
   141   137   136    2
   142   130   131    1
   143   130   127    1
   144   136   135    1
   145   131   132   ar
   146   128   129    2
   147   128   127    1
   148   120   121    1
   149   127   126    1
   150   126   122   am
   151   135   134    1
   152   135   138    1
   153   125   124    1
   154   122   121    1
   155   122   123    2
   156   121   124    1
   157   138   139    1
   158   139   140    1
   159   144   142    1
   160   140   141    1
   161   142   141    2
   162   142   143    1
