@<TRIPOS>MOLECULE
tmp/3t9vB00.pdb
 109 104 0 0 0
SMALL
GASTEIGER

@<TRIPOS>ATOM
      1  N        -18.8870  -40.4140  -28.6740 N.3    10  GLU10      -0.1245
      2  CA       -20.0860  -39.8170  -28.1070 C.3    10  GLU10       0.1567
      3  C        -20.7830  -39.1360  -29.2590 C.2    10  GLU10       0.2260
      4  O        -20.2220  -38.2220  -29.8450 O.2    10  GLU10      -0.2867
      5  CB       -19.6800  -38.7430  -27.0820 C.3    10  GLU10       0.0388
      6  CG       -20.8360  -38.0830  -26.3720 C.3    10  GLU10       0.1160
      7  CD       -21.1690  -38.8230  -25.0840 C.2    10  GLU10       0.3649
      8  OE1      -20.4540  -38.6010  -24.0660 O.co2  10  GLU10      -0.2457
      9  OE2      -22.0910  -39.6610  -25.1130 O.co2  10  GLU10      -0.2457
     10  N        -20.6200  -36.3110  -31.7230 N.3    13  TYR13      -0.1241
     11  CA       -19.2640  -35.7570  -31.8710 C.3    13  TYR13       0.1605
     12  C        -18.3750  -36.6800  -32.6960 C.2    13  TYR13       0.2264
     13  O        -17.6440  -36.2200  -33.5470 O.2    13  TYR13      -0.2867
     14  CB       -18.6210  -35.4610  -30.5190 C.3    13  TYR13       0.0534
     15  CG       -19.4940  -34.5280  -29.6840 C.ar   13  TYR13      -0.0201
     16  CD1      -19.4160  -33.1430  -29.8310 C.ar   13  TYR13      -0.0009
     17  CD2      -20.4340  -35.0360  -28.8120 C.ar   13  TYR13      -0.0009
     18  CE1      -20.2310  -32.3010  -29.0940 C.ar   13  TYR13       0.0417
     19  CE2      -21.2840  -34.1900  -28.0990 C.ar   13  TYR13       0.0417
     20  CZ       -21.1580  -32.8410  -28.2410 C.ar   13  TYR13       0.1957
     21  OH       -21.9630  -32.0040  -27.5200 O.3    13  TYR13      -0.2866
     22  N        -13.7370  -39.2740  -20.1620 N.3    58  TYR58      -0.1241
     23  CA       -13.2860  -37.8950  -20.3460 C.3    58  TYR58       0.1605
     24  C        -12.0040  -37.5380  -19.6100 C.2    58  TYR58       0.2264
     25  O        -11.0140  -37.1240  -20.2280 O.2    58  TYR58      -0.2867
     26  CB       -14.4050  -36.9080  -19.9690 C.3    58  TYR58       0.0534
     27  CG       -15.4690  -36.9180  -21.0330 C.ar   58  TYR58      -0.0201
     28  CD1      -15.2690  -36.2410  -22.2500 C.ar   58  TYR58      -0.0009
     29  CD2      -16.6110  -37.6600  -20.8800 C.ar   58  TYR58      -0.0009
     30  CE1      -16.2410  -36.2840  -23.2760 C.ar   58  TYR58       0.0417
     31  CE2      -17.6150  -37.6930  -21.8980 C.ar   58  TYR58       0.0417
     32  CZ       -17.4010  -37.0130  -23.0830 C.ar   58  TYR58       0.1957
     33  OH       -18.3570  -37.0600  -24.0900 O.3    58  TYR58      -0.2866
     34  N        -15.8930  -33.2970  -26.8120 N.3    86  PRO86      -0.2102
     35  CA       -16.7030  -32.4190  -25.9610 C.3    86  PRO86       0.1504
     36  C        -16.1590  -32.5310  -24.5140 C.2    86  PRO86       0.2576
     37  O        -16.8230  -33.0500  -23.6390 O.2    86  PRO86      -0.2718
     38  CB       -18.1070  -33.0200  -26.0900 C.3    86  PRO86       0.0282
     39  CG       -17.8650  -34.4750  -26.3700 C.3    86  PRO86       0.0208
     40  CD       -16.6640  -34.4510  -27.3140 C.3    86  PRO86       0.0893
     41  N        -14.9400  -32.0470  -24.3120 N.am   87  LEU87      -0.1966
     42  CA       -14.2600  -32.1100  -23.0260 C.3    87  LEU87       0.1728
     43  C        -14.5140  -30.7980  -22.2850 C.2    87  LEU87       0.2616
     44  O        -14.0970  -29.7310  -22.7230 O.2    87  LEU87      -0.2715
     45  CB       -12.7510  -32.3340  -23.2700 C.3    87  LEU87       0.0311
     46  CG       -11.8970  -32.5170  -22.0220 C.3    87  LEU87       0.0022
     47  CD1      -12.4580  -33.6550  -21.1720 C.3    87  LEU87       0.0001
     48  CD2      -10.4400  -32.7880  -22.3800 C.3    87  LEU87       0.0001
     49  N        -15.2270  -30.8640  -21.1720 N.am   88  THR88      -0.1951
     50  CA       -15.5620  -29.6630  -20.4300 C.3    88  THR88       0.1897
     51  C        -14.3630  -28.9610  -19.8150 C.2    88  THR88       0.2313
     52  O        -13.5070  -29.6150  -19.2070 O.2    88  THR88      -0.2863
     53  CB       -16.5980  -29.9850  -19.3230 C.3    88  THR88       0.1794
     54  OG1      -17.7450  -30.6060  -19.9380 O.3    88  THR88      -0.2208
     55  CG2      -17.0320  -28.7210  -18.6940 C.3    88  THR88       0.0378
     56  N         -8.9530  -29.7210  -14.3770 N.3    93  ARG93      -0.1245
     57  CA        -8.3070  -30.0770  -15.6550 C.3    93  ARG93       0.1563
     58  C         -7.3090  -29.0460  -16.1450 C.2    93  ARG93       0.2260
     59  O         -6.2580  -29.4120  -16.6460 O.2    93  ARG93      -0.2867
     60  CB        -9.3570  -30.3740  -16.7370 C.3    93  ARG93       0.0307
     61  CG       -10.0370  -31.7090  -16.4910 C.3    93  ARG93       0.0489
     62  CD       -11.2780  -31.8270  -17.2980 C.3    93  ARG93       0.2205
     63  NE       -11.9840  -33.0930  -17.1240 N.pl3  93  ARG93      -0.0865
     64  CZ       -13.2060  -33.3180  -17.6130 C.cat  93  ARG93       0.5346
     65  NH1      -13.8480  -32.3610  -18.2620 N.pl3  93  ARG93       0.1354
     66  NH2      -13.7970  -34.4860  -17.4410 N.pl3  93  ARG93       0.1354
     67  N        -25.4480  -41.6170  -18.2140 N.3   171  THR171     -0.1218
     68  CA       -26.3540  -40.6950  -18.8840 C.3   171  THR171      0.1862
     69  C        -27.4260  -41.4950  -19.5550 C.2   171  THR171      0.2287
     70  O        -28.6090  -41.2310  -19.3640 O.2   171  THR171     -0.2866
     71  CB       -25.6450  -39.8570  -19.9190 C.3   171  THR171      0.1770
     72  OG1      -24.5220  -39.2300  -19.3030 O.3   171  THR171     -0.2211
     73  CG2      -26.5660  -38.7700  -20.3980 C.3   171  THR171      0.0375
     74  N        -26.4720  -32.2520  -19.4040 N.3   190  GLU190     -0.1245
     75  CA       -25.8420  -31.2460  -20.2400 C.3   190  GLU190      0.1567
     76  C        -26.8370  -30.8520  -21.3410 C.2   190  GLU190      0.2260
     77  O        -27.4350  -31.7210  -21.9530 O.2   190  GLU190     -0.2867
     78  CB       -24.6160  -31.8680  -20.9450 C.3   190  GLU190      0.0388
     79  CG       -23.3990  -32.1190  -20.0320 C.3   190  GLU190      0.1160
     80  CD       -23.5930  -33.2270  -18.9860 C.2   190  GLU190      0.3649
     81  OE1      -24.6690  -33.9130  -18.9560 O.co2 190  GLU190     -0.2457
     82  OE2      -22.6240  -33.4050  -18.1740 O.co2 190  GLU190     -0.2457
     83  N        -26.4300  -29.7170  -24.3030 N.3   192  THR192     -0.1203
     84  CA       -26.0650  -30.2110  -25.6230 C.3   192  THR192      0.1994
     85  C        -26.6140  -31.6180  -25.8670 C.2   192  THR192      0.2617
     86  O        -27.1310  -31.9080  -26.9400 O.2   192  THR192     -0.2717
     87  CB       -24.5390  -30.1990  -25.8460 C.3   192  THR192      0.1784
     88  OG1      -23.8890  -30.8810  -24.7520 O.3   192  THR192     -0.2211
     89  CG2      -24.0560  -28.7470  -25.9620 C.3   192  THR192      0.0376
     90  N        -26.4960  -32.4920  -24.8750 N.am  193  MET193     -0.1979
     91  CA       -26.9700  -33.8540  -25.0410 C.3   193  MET193      0.1605
     92  C        -28.5070  -33.8750  -25.0110 C.2   193  MET193      0.2287
     93  O        -29.1510  -34.7040  -25.6620 O.2   193  MET193     -0.2864
     94  CB       -26.4140  -34.7730  -23.9560 C.3   193  MET193      0.0413
     95  CG       -27.0270  -36.1510  -23.9490 C.3   193  MET193      0.0598
     96  SD       -26.5120  -37.1950  -25.3140 S.3   193  MET193     -0.1393
     97  CE       -24.8190  -37.5710  -24.8000 C.3   193  MET193      0.0692
     98  N        -17.0470  -26.4710  -23.7860 N.3   217  TYR217     -0.1241
     99  CA       -16.1190  -27.5350  -24.1910 C.3   217  TYR217      0.1605
    100  C        -14.9510  -26.8560  -24.8460 C.2   217  TYR217      0.2264
    101  O        -15.1370  -25.8990  -25.6080 O.2   217  TYR217     -0.2867
    102  CB       -16.6930  -28.5030  -25.2150 C.3   217  TYR217      0.0534
    103  CG       -17.9120  -29.2560  -24.8150 C.ar  217  TYR217     -0.0201
    104  CD1      -18.0300  -29.7890  -23.5510 C.ar  217  TYR217     -0.0009
    105  CD2      -18.9500  -29.4670  -25.7360 C.ar  217  TYR217     -0.0009
    106  CE1      -19.1290  -30.4930  -23.1810 C.ar  217  TYR217      0.0417
    107  CE2      -20.0810  -30.1690  -25.3590 C.ar  217  TYR217      0.0417
    108  CZ       -20.1600  -30.6690  -24.0860 C.ar  217  TYR217      0.1957
    109  OH       -21.2520  -31.3960  -23.7060 O.3   217  TYR217     -0.2866
@<TRIPOS>BOND
     1    13    12    2
     2    12    11    1
     3    11    10    1
     4    11    14    1
     5    14    15    1
     6     4     3    2
     7    16    15   ar
     8    16    18   ar
     9    15    17   ar
    10     3     2    1
    11    18    20   ar
    12    17    19   ar
    13     1     2    1
    14    20    19   ar
    15    20    21    1
    16     2     5    1
    17    40    34    1
    18    40    39    1
    19     5     6    1
    20    86    85    2
    21    34    35    1
    22     6     7    1
    23    39    38    1
    24    38    35    1
    25    89    87    1
    26    35    36    1
    27    85    84    1
    28    85    90   am
    29    87    84    1
    30    87    88    1
    31   105   107   ar
    32   105   103   ar
    33    93    92    2
    34    84    83    1
    35   101   100    2
    36   107   108   ar
    37    96    97    1
    38    96    95    1
    39   102   103    1
    40   102    99    1
    41     9     7   ar
    42     7     8   ar
    43    91    92    1
    44    91    90    1
    45    91    94    1
    46   100    99    1
    47   103   104   ar
    48    36    41   am
    49    36    37    2
    50    41    42    1
    51    99    98    1
    52    33    32    1
    53   108   109    1
    54   108   106   ar
    55    94    95    1
    56   104   106   ar
    57    30    32   ar
    58    30    28   ar
    59    45    42    1
    60    45    46    1
    61    32    31   ar
    62    42    43    1
    63    44    43    2
    64    48    46    1
    65    43    49   am
    66    28    27   ar
    67    46    47    1
    68    77    76    2
    69    31    29   ar
    70    76    75    1
    71    49    50    1
    72    27    29   ar
    73    27    26    1
    74    78    75    1
    75    78    79    1
    76    50    51    1
    77    50    53    1
    78    73    71    1
    79    23    22    1
    80    23    26    1
    81    23    24    1
    82    75    74    1
    83    25    24    2
    84    79    80    1
    85    54    53    1
    86    71    72    1
    87    71    68    1
    88    51    52    2
    89    69    70    2
    90    69    68    1
    91    53    55    1
    92    80    81   ar
    93    80    82   ar
    94    68    67    1
    95    65    64    1
    96    64    66    1
    97    64    63    2
    98    62    63    1
    99    62    61    1
   100    60    61    1
   101    60    57    1
   102    59    58    2
   103    58    57    1
   104    57    56    1
