@<TRIPOS>MOLECULE
tmp/3t9yA00.pdb
 92 88 0 0 0
SMALL
GASTEIGER

@<TRIPOS>ATOM
      1  N         26.5830   28.5740   16.3210 N.3     4  THR4       -0.1203
      2  CA        26.8200   29.3280   15.1050 C.3     4  THR4        0.1994
      3  C         28.2790   29.7410   15.0790 C.2     4  THR4        0.2618
      4  O         28.8580   30.1110   16.1050 O.2     4  THR4       -0.2717
      5  CB        25.9190   30.5500   14.9770 C.3     4  THR4        0.1784
      6  OG1       26.1370   31.3970   16.1000 O.3     4  THR4       -0.2211
      7  CG2       24.4510   30.1350   14.9250 C.3     4  THR4        0.0376
      8  N         28.8810   29.6520   13.9080 N.am    5  ARG5       -0.1965
      9  CA        30.2520   30.0820   13.7430 C.3     5  ARG5        0.1729
     10  C         30.4270   30.5650   12.3060 C.2     5  ARG5        0.2616
     11  O         29.6250   30.2330   11.4380 O.2     5  ARG5       -0.2715
     12  CB        31.1950   28.9230   14.0180 C.3     5  ARG5        0.0348
     13  CG        30.9120   27.7280   13.1130 C.3     5  ARG5        0.0492
     14  CD        32.0740   26.7890   13.1340 C.3     5  ARG5        0.2205
     15  NE        31.8680   25.5840   12.3320 N.pl3   5  ARG5       -0.0865
     16  CZ        32.0640   25.5060   11.0130 C.cat   5  ARG5        0.5346
     17  NH1       32.4020   26.5890   10.2810 N.pl3   5  ARG5        0.1354
     18  NH2       31.8720   24.3450   10.4140 N.pl3   5  ARG5        0.1354
     19  N         31.4660   31.3450   12.0490 N.am    6  LEU6       -0.1977
     20  CA        31.7360   31.7690   10.6820 C.3     6  LEU6        0.1596
     21  C         32.2330   30.5860    9.8630 C.2     6  LEU6        0.2287
     22  O         32.8640   29.6630   10.4170 O.2     6  LEU6       -0.2864
     23  CB        32.7510   32.9040   10.6580 C.3     6  LEU6        0.0297
     24  CG        32.1760   34.2280   11.1600 C.3     6  LEU6        0.0022
     25  CD1       33.2960   35.2430   11.3300 C.3     6  LEU6        0.0001
     26  CD2       31.1140   34.7400   10.1870 C.3     6  LEU6        0.0001
     27  N         30.2340   38.1670    5.3910 N.3    48  PHE48      -0.1241
     28  CA        30.2930   37.2890    6.5730 C.3    48  PHE48       0.1605
     29  C         29.2730   36.1860    6.3830 C.2    48  PHE48       0.2264
     30  O         28.0710   36.4520    6.3140 O.2    48  PHE48      -0.2867
     31  CB        30.0010   38.0870    7.8540 C.3    48  PHE48       0.0534
     32  CG        31.0050   39.1740    8.1320 C.ar   48  PHE48      -0.0203
     33  CD1       32.2220   38.8740    8.7370 C.ar   48  PHE48      -0.0042
     34  CD2       30.7400   40.5010    7.7650 C.ar   48  PHE48      -0.0042
     35  CE1       33.1600   39.8780    8.9950 C.ar   48  PHE48      -0.0003
     36  CE2       31.6760   41.5180    8.0160 C.ar   48  PHE48      -0.0003
     37  CZ        32.8890   41.2040    8.6360 C.ar   48  PHE48      -0.0000
     38  N         27.7010   33.2200    8.0610 N.3    50  LEU50      -0.1245
     39  CA        27.5360   32.6100    9.3670 C.3    50  LEU50       0.1561
     40  C         26.7620   31.2920    9.2220 C.2    50  LEU50       0.2260
     41  O         25.7040   31.2500    8.5620 O.2    50  LEU50      -0.2867
     42  CB        26.8600   33.5910   10.3420 C.3    50  LEU50       0.0270
     43  CG        26.7710   33.2220   11.8390 C.3    50  LEU50       0.0019
     44  CD1       28.1330   33.2700   12.5870 C.3    50  LEU50       0.0001
     45  CD2       25.7600   34.1150   12.5240 C.3    50  LEU50       0.0001
     46  N         21.4540   35.2680   16.4490 N.3    96  ASP96      -0.1239
     47  CA        22.9240   35.2180   16.4330 C.3    96  ASP96       0.1674
     48  C         23.5000   36.1150   15.3570 C.2    96  ASP96       0.2266
     49  O         24.5800   36.6540   15.5360 O.2    96  ASP96      -0.2867
     50  CB        23.4420   33.7940   16.2120 C.3    96  ASP96       0.1410
     51  CG        23.3280   32.9330   17.4490 C.2    96  ASP96       0.3668
     52  OD1       22.7580   33.3820   18.4750 O.co2  96  ASP96      -0.2456
     53  OD2       23.8320   31.8060   17.4100 O.co2  96  ASP96      -0.2456
     54  N         23.3050   39.5610   16.8960 N.3    99  GLU99      -0.1231
     55  CA        24.3120   39.6900   17.9490 C.3    99  GLU99       0.1699
     56  C         25.7060   39.8900   17.3360 C.2    99  GLU99       0.2592
     57  O         26.4770   40.7530   17.7800 O.2    99  GLU99      -0.2718
     58  CB        24.2630   38.4680   18.8990 C.3    99  GLU99       0.0402
     59  CG        24.9430   38.6780   20.2410 C.3    99  GLU99       0.1161
     60  CD        24.9860   37.4300   21.1120 C.2    99  GLU99       0.3649
     61  OE1       25.8260   37.4050   22.0440 O.co2  99  GLU99      -0.2457
     62  OE2       24.2050   36.4770   20.8720 O.co2  99  GLU99      -0.2457
     63  N         26.0270   39.0620   16.3410 N.am  100  PHE100     -0.1976
     64  CA        27.2410   39.2010   15.5500 C.3   100  PHE100      0.1639
     65  C         27.3490   40.6220   14.9660 C.2   100  PHE100      0.2290
     66  O         28.3900   41.2650   15.0780 O.2   100  PHE100     -0.2864
     67  CB        27.2290   38.1540   14.4150 C.3   100  PHE100      0.0560
     68  CG        28.4150   38.2400   13.4720 C.ar  100  PHE100     -0.0200
     69  CD1       29.6490   37.6720   13.8230 C.ar  100  PHE100     -0.0042
     70  CD2       28.2980   38.8770   12.2350 C.ar  100  PHE100     -0.0042
     71  CE1       30.7580   37.7470   12.9510 C.ar  100  PHE100     -0.0003
     72  CE2       29.4000   38.9570   11.3470 C.ar  100  PHE100     -0.0003
     73  CZ        30.6320   38.3930   11.7020 C.ar  100  PHE100     -0.0000
     74  N         28.0750   43.3420   17.5340 N.3   103  ARG103     -0.1231
     75  CA        29.4840   43.3150   17.9600 C.3   103  ARG103      0.1694
     76  C         30.3770   44.0300   16.9530 C.2   103  ARG103      0.2591
     77  O         31.4000   44.6280   17.3280 O.2   103  ARG103     -0.2718
     78  CB        29.9890   41.8820   18.1770 C.3   103  ARG103      0.0321
     79  CG        31.4710   41.7900   18.6070 C.3   103  ARG103      0.0489
     80  CD        31.8940   40.3430   18.8980 C.3   103  ARG103      0.2205
     81  NE        33.2170   40.2170   19.5070 N.pl3 103  ARG103     -0.0865
     82  CZ        33.6660   39.0910   20.0680 C.cat 103  ARG103      0.5346
     83  NH1       32.9050   38.0140   20.0890 N.pl3 103  ARG103      0.1354
     84  NH2       34.8720   39.0310   20.6020 N.pl3 103  ARG103      0.1354
     85  N         29.9850   43.9740   15.6800 N.am  104  LEU104     -0.1980
     86  CA        30.6990   44.7160   14.6180 C.3   104  LEU104      0.1596
     87  C         30.2570   46.1640   14.4940 C.2   104  LEU104      0.2287
     88  O         30.5650   46.8290   13.4980 O.2   104  LEU104     -0.2864
     89  CB        30.5170   44.0260   13.2830 C.3   104  LEU104      0.0297
     90  CG        31.2380   42.6930   13.1840 C.3   104  LEU104      0.0022
     91  CD1       31.0220   42.1070   11.8220 C.3   104  LEU104      0.0001
     92  CD2       32.7070   42.8860   13.4430 C.3   104  LEU104      0.0001
@<TRIPOS>BOND
     1    27    28    1
     2    30    29    2
     3    29    28    1
     4    28    31    1
     5    34    36   ar
     6    34    32   ar
     7    31    32    1
     8    36    37   ar
     9    38    39    1
    10    32    33   ar
    11    41    40    2
    12    37    35   ar
    13    33    35   ar
    14    40    39    1
    15    39    42    1
    16    21    22    2
    17    21    20    1
    18    26    24    1
    19    17    16    1
    20    42    43    1
    21    18    16    1
    22    23    20    1
    23    23    24    1
    24    20    19    1
    25    16    15    2
    26    24    25    1
    27    72    73   ar
    28    72    70   ar
    29    11    10    2
    30    73    71   ar
    31    91    90    1
    32    43    45    1
    33    43    44    1
    34    19    10   am
    35    70    68   ar
    36    10     9    1
    37    15    14    1
    38    71    69   ar
    39    13    14    1
    40    13    12    1
    41    90    89    1
    42    90    92    1
    43    89    86    1
    44    68    69   ar
    45    68    67    1
    46    88    87    2
    47     9     8    1
    48     9    12    1
    49     8     3   am
    50    67    64    1
    51    87    86    1
    52    86    85    1
    53     7     5    1
    54    65    66    2
    55    65    64    1
    56     5     2    1
    57     5     6    1
    58     3     2    1
    59     3     4    2
    60     2     1    1
    61    48    49    2
    62    48    47    1
    63    64    63    1
    64    85    76   am
    65    50    47    1
    66    50    51    1
    67    63    56   am
    68    47    46    1
    69    54    55    1
    70    76    77    2
    71    76    75    1
    72    56    57    2
    73    56    55    1
    74    53    51   ar
    75    51    52   ar
    76    74    75    1
    77    55    58    1
    78    75    78    1
    79    78    79    1
    80    79    80    1
    81    80    81    1
    82    58    59    1
    83    81    82    2
    84    82    83    1
    85    82    84    1
    86    59    60    1
    87    62    60   ar
    88    60    61   ar
