@<TRIPOS>MOLECULE
tmp/3t9zB00.pdb
 74 69 0 0 0
SMALL
GASTEIGER

@<TRIPOS>ATOM
      1  N         15.1760  -45.6930  -25.9000 N.3     7  VAL7       -0.1245
      2  CA        14.4610  -44.4450  -25.6270 C.3     7  VAL7        0.1561
      3  C         14.0430  -43.9530  -27.0090 C.2     7  VAL7        0.2260
      4  O         14.9010  -43.6720  -27.8600 O.2     7  VAL7       -0.2867
      5  CB        15.3120  -43.4170  -24.8460 C.3     7  VAL7        0.0252
      6  CG1       14.5320  -42.1330  -24.6850 C.3     7  VAL7        0.0019
      7  CG2       15.7250  -43.9840  -23.4830 C.3     7  VAL7        0.0019
      8  N         11.5820  -37.8780  -20.4860 N.3    34  LYS34      -0.1231
      9  CA        11.9170  -36.6960  -21.2690 C.3    34  LYS34       0.1693
     10  C         13.3660  -36.8350  -21.6160 C.2    34  LYS34       0.2593
     11  O         14.1410  -37.4480  -20.8770 O.2    34  LYS34      -0.2718
     12  CB        11.6630  -35.3930  -20.4960 C.3    34  LYS34       0.0285
     13  CG        10.1780  -35.0740  -20.3380 C.3    34  LYS34       0.0035
     14  CD         9.9870  -33.7420  -19.6350 C.3    34  LYS34       0.0206
     15  CE         8.5200  -33.3910  -19.5430 C.3    34  LYS34       0.1093
     16  NZ         8.3040  -32.1600  -18.7390 N.3    34  LYS34      -0.1314
     17  N         13.7370  -36.3200  -22.7610 N.am   35  GLY35      -0.1942
     18  CA        15.1230  -36.4090  -23.1760 C.3    35  GLY35       0.2014
     19  C         15.5110  -35.4280  -24.2510 C.2    35  GLY35       0.2639
     20  O         14.6660  -34.7070  -24.7910 O.2    35  GLY35      -0.2714
     21  N         16.8110  -35.4160  -24.5480 N.am   36  ARG36      -0.1963
     22  CA        17.4640  -34.6510  -25.6160 C.3    36  ARG36       0.1729
     23  C         18.7630  -35.3710  -25.9910 C.2    36  ARG36       0.2616
     24  O         19.2600  -36.1610  -25.1900 O.2    36  ARG36      -0.2715
     25  CB        17.7000  -33.1770  -25.2210 C.3    36  ARG36       0.0348
     26  CG        18.7310  -32.9570  -24.1370 C.3    36  ARG36       0.0492
     27  CD        18.9720  -31.4850  -23.9130 C.3    36  ARG36       0.2205
     28  NE        20.0500  -31.2880  -22.9510 N.pl3  36  ARG36      -0.0865
     29  CZ        20.2360  -30.1890  -22.2310 C.cat  36  ARG36       0.5346
     30  NH1       19.4060  -29.1570  -22.3520 N.pl3  36  ARG36       0.1354
     31  NH2       21.2410  -30.1160  -21.3730 N.pl3  36  ARG36       0.1354
     32  N         19.2770  -35.1030  -27.1920 N.am   37  GLY37      -0.1955
     33  CA        20.5100  -35.6820  -27.7150 C.3    37  GLY37       0.1869
     34  C         21.5800  -34.6430  -27.9790 C.2    37  GLY37       0.2309
     35  O         21.3280  -33.4390  -27.8800 O.2    37  GLY37      -0.2863
     36  N          9.6250  -38.5080  -24.4760 N.3    43  LYS43      -0.1245
     37  CA        10.1080  -39.7220  -25.1250 C.3    43  LYS43       0.1561
     38  C          9.5340  -40.9040  -24.3750 C.2    43  LYS43       0.2260
     39  O          8.9000  -40.7320  -23.3250 O.2    43  LYS43      -0.2867
     40  CB        11.6620  -39.7950  -25.1750 C.3    43  LYS43       0.0271
     41  CG        12.3700  -38.6410  -25.9120 C.3    43  LYS43       0.0035
     42  CD        12.3220  -38.7830  -27.4410 C.3    43  LYS43       0.0206
     43  CE        12.9520  -37.5690  -28.1150 C.3    43  LYS43       0.1093
     44  NZ        12.7750  -37.5940  -29.6040 N.3    43  LYS43      -0.1314
     45  N         16.7900  -37.2840  -33.2040 N.3    72  GLY72      -0.1225
     46  CA        15.7450  -37.4630  -32.2030 C.3    72  GLY72       0.1811
     47  C         15.1750  -38.8660  -32.1520 C.2    72  GLY72       0.2280
     48  O         14.2740  -39.1300  -31.3400 O.2    72  GLY72      -0.2866
     49  N         16.5510  -41.4770  -31.0310 N.3    74  GLY74      -0.1210
     50  CA        16.9280  -42.0800  -29.7570 C.3    74  GLY74       0.1956
     51  C         18.0280  -43.1240  -29.8250 C.2    74  GLY74       0.2611
     52  O         18.7140  -43.3020  -30.8440 O.2    74  GLY74      -0.2717
     53  N         18.2520  -43.7740  -28.6990 N.am   75  ARG75      -0.1979
     54  CA        19.3330  -44.7480  -28.5580 C.3    75  ARG75       0.1597
     55  C         18.8590  -45.9880  -27.8580 C.2    75  ARG75       0.2287
     56  O         17.8240  -45.9550  -27.1710 O.2    75  ARG75      -0.2864
     57  CB        20.4630  -44.1170  -27.6810 C.3    75  ARG75       0.0334
     58  CG        21.3740  -43.1270  -28.4360 C.3    75  ARG75       0.0492
     59  CD        22.6730  -42.9250  -27.6800 C.3    75  ARG75       0.2205
     60  NE        23.8320  -42.7410  -28.5640 N.pl3  75  ARG75      -0.0865
     61  CZ        24.2760  -41.5650  -28.9990 C.cat  75  ARG75       0.5346
     62  NH1       25.3450  -41.5020  -29.7800 N.pl3  75  ARG75       0.1354
     63  NH2       23.6510  -40.4420  -28.6600 N.pl3  75  ARG75       0.1354
     64  N         20.4620  -49.0890  -25.3200 N.3    77  PHE77      -0.1241
     65  CA        21.6010  -49.5020  -24.4780 C.3    77  PHE77       0.1605
     66  C         21.4000  -50.9430  -24.0880 C.2    77  PHE77       0.2264
     67  O         20.2660  -51.3770  -23.8410 O.2    77  PHE77      -0.2867
     68  CB        21.6980  -48.6300  -23.2260 C.3    77  PHE77       0.0534
     69  CG        21.7040  -47.1580  -23.5420 C.ar   77  PHE77      -0.0203
     70  CD1       22.7100  -46.6030  -24.3300 C.ar   77  PHE77      -0.0042
     71  CD2       20.6990  -46.3210  -23.0610 C.ar   77  PHE77      -0.0042
     72  CE1       22.6860  -45.2450  -24.6670 C.ar   77  PHE77      -0.0003
     73  CE2       20.6910  -44.9610  -23.3740 C.ar   77  PHE77      -0.0003
     74  CZ        21.6890  -44.4320  -24.1710 C.ar   77  PHE77      -0.0000
@<TRIPOS>BOND
     1    45    46    1
     2    46    47    1
     3    47    48    2
     4    49    50    1
     5    52    51    2
     6    51    50    1
     7    51    53   am
     8    62    61    1
     9    44    43    1
    10    61    63    1
    11    61    60    2
    12    53    54    1
    13    60    59    1
    14    54    55    1
    15    54    57    1
    16    58    57    1
    17    58    59    1
    18    43    42    1
    19    34    35    2
    20    34    33    1
    21     4     3    2
    22    55    56    2
    23    33    32    1
    24    42    41    1
    25    32    23   am
    26     3     2    1
    27    23    22    1
    28    23    24    2
    29    41    40    1
    30     1     2    1
    31     2     5    1
    32    22    25    1
    33    22    21    1
    34    64    65    1
    35    25    26    1
    36    40    37    1
    37    37    36    1
    38    37    38    1
    39     5     6    1
    40     5     7    1
    41    20    19    2
    42    72    70   ar
    43    72    74   ar
    44    21    19   am
    45    65    66    1
    46    65    68    1
    47    38    39    2
    48    70    69   ar
    49    19    18    1
    50    74    73   ar
    51    26    27    1
    52    66    67    2
    53    27    28    1
    54    69    68    1
    55    69    71   ar
    56    73    71   ar
    57    18    17    1
    58    28    29    2
    59    17    10   am
    60    30    29    1
    61    29    31    1
    62    10     9    1
    63    10    11    2
    64     9    12    1
    65     9     8    1
    66    12    13    1
    67    13    14    1
    68    14    15    1
    69    15    16    1
