@<TRIPOS>MOLECULE
tmp/3ta0C00.pdb
 84 79 0 0 0
SMALL
GASTEIGER

@<TRIPOS>ATOM
      1  N        -35.0780    1.9390  -17.9040 N.3     3  MET3       -0.1245
      2  CA       -36.2570    2.7660  -17.6960 C.3     3  MET3        0.1570
      3  C        -36.1200    3.3650  -16.3040 C.2     3  MET3        0.2261
      4  O        -36.0090    2.6320  -15.3150 O.2     3  MET3       -0.2867
      5  CB       -37.5780    1.9960  -17.8370 C.3     3  MET3        0.0387
      6  CG       -38.7980    2.9110  -17.7490 C.3     3  MET3        0.0595
      7  SD       -40.3870    2.0680  -17.6860 S.3     3  MET3       -0.1393
      8  CE       -40.5760    1.5730  -19.4480 C.3     3  MET3        0.0692
      9  N        -36.1050   14.6900  -23.8760 N.3    26  VAL26      -0.1231
     10  CA       -37.4210   15.1590  -24.2950 C.3    26  VAL26       0.1692
     11  C        -38.5190   14.0770  -24.2320 C.2    26  VAL26       0.2593
     12  O        -39.6510   14.4010  -23.8780 O.2    26  VAL26      -0.2718
     13  CB       -37.3320   15.9650  -25.6230 C.3    26  VAL26       0.0266
     14  CG1      -37.0840   15.0730  -26.8340 C.3    26  VAL26       0.0020
     15  CG2      -38.5130   16.9100  -25.8190 C.3    26  VAL26       0.0020
     16  N        -38.1600   12.8180  -24.4980 N.am   27  GLY27      -0.1942
     17  CA       -39.0960   11.6990  -24.4450 C.3    27  GLY27       0.2014
     18  C        -39.4660   11.2800  -23.0350 C.2    27  GLY27       0.2639
     19  O        -38.5800   11.0090  -22.2190 O.2    27  GLY27      -0.2714
     20  N        -40.7700   11.2420  -22.7210 N.am   28  MET28      -0.1963
     21  CA       -41.2700   10.8330  -21.3970 C.3    28  MET28       0.1736
     22  C        -42.7330   10.4230  -21.4400 C.2    28  MET28       0.2617
     23  O        -43.4960   10.9250  -22.2620 O.2    28  MET28      -0.2715
     24  CB       -41.0710   11.9270  -20.3300 C.3    28  MET28       0.0427
     25  CG       -41.8840   13.1860  -20.5980 C.3    28  MET28       0.0599
     26  SD       -41.4830   14.5820  -19.5420 S.3    28  MET28      -0.1393
     27  CE       -39.9520   15.1280  -20.3160 C.3    28  MET28       0.0692
     28  N        -43.1160    9.5370  -20.5160 N.am   29  THR29      -0.1951
     29  CA       -44.4810    9.0580  -20.3360 C.3    29  THR29       0.1897
     30  C        -44.8620    9.3940  -18.8870 C.2    29  THR29       0.2313
     31  O        -44.1020    9.1060  -17.9550 O.2    29  THR29      -0.2863
     32  CB       -44.5760    7.5720  -20.6950 C.3    29  THR29       0.1794
     33  OG1      -44.0980    7.4100  -22.0280 O.3    29  THR29      -0.2208
     34  CG2      -46.0100    7.0270  -20.5850 C.3    29  THR29       0.0378
     35  N        -41.9020    8.2740  -16.4330 N.3    48  GLU48      -0.1231
     36  CA       -41.0690    7.1950  -16.9770 C.3    48  GLU48       0.1699
     37  C        -40.2340    7.7210  -18.1440 C.2    48  GLU48       0.2592
     38  O        -40.7830    8.3170  -19.0670 O.2    48  GLU48      -0.2718
     39  CB       -41.9020    5.9820  -17.4370 C.3    48  GLU48       0.0402
     40  CG       -42.7000    5.3110  -16.3340 C.3    48  GLU48       0.1161
     41  CD       -43.6780    4.2550  -16.8150 C.2    48  GLU48       0.3649
     42  OE1      -44.5680    4.5930  -17.6300 O.co2  48  GLU48      -0.2457
     43  OE2      -43.5780    3.0950  -16.3500 O.co2  48  GLU48      -0.2457
     44  N        -38.9040    7.5330  -18.0820 N.am   49  VAL49      -0.1966
     45  CA       -37.9960    7.9200  -19.1610 C.3    49  VAL49       0.1727
     46  C        -37.0510    6.7770  -19.4970 C.2    49  VAL49       0.2616
     47  O        -36.3280    6.2860  -18.6240 O.2    49  VAL49      -0.2715
     48  CB       -37.3320    9.3420  -19.0790 C.3    49  VAL49       0.0290
     49  CG1      -38.0100   10.2720  -18.0740 C.3    49  VAL49       0.0023
     50  CG2      -35.8240    9.3040  -18.8870 C.3    49  VAL49       0.0023
     51  N        -37.1050    6.3130  -20.7450 N.am   50  VAL50      -0.1963
     52  CA       -36.2420    5.2390  -21.2260 C.3    50  VAL50       0.1727
     53  C        -35.0160    5.8790  -21.8660 C.2    50  VAL50       0.2616
     54  O        -35.1540    6.6730  -22.8030 O.2    50  VAL50      -0.2715
     55  CB       -36.9690    4.2440  -22.1620 C.3    50  VAL50       0.0290
     56  CG1      -36.0020    3.2110  -22.7310 C.3    50  VAL50       0.0023
     57  CG2      -38.1080    3.5460  -21.4270 C.3    50  VAL50       0.0023
     58  N        -33.8250    5.5690  -21.3190 N.am   51  VAL51      -0.1977
     59  CA       -32.5410    6.1130  -21.7690 C.3    51  VAL51       0.1596
     60  C        -31.4950    5.0040  -21.9050 C.2    51  VAL51       0.2287
     61  O        -31.7040    3.8880  -21.4190 O.2    51  VAL51      -0.2864
     62  CB       -32.0330    7.2340  -20.8140 C.3    51  VAL51       0.0276
     63  CG1      -32.8960    8.4940  -20.9090 C.3    51  VAL51       0.0022
     64  CG2      -31.9230    6.7410  -19.3620 C.3    51  VAL51       0.0022
     65  N        -39.0670    1.7770  -32.1770 N.3    87  LYS87      -0.1245
     66  CA       -39.6750    3.0050  -32.6960 C.3    87  LYS87       0.1561
     67  C        -40.7890    2.5370  -33.6690 C.2    87  LYS87       0.2260
     68  O        -40.4680    1.9260  -34.6910 O.2    87  LYS87      -0.2867
     69  CB       -38.6250    3.8650  -33.4100 C.3    87  LYS87       0.0271
     70  CG       -39.1510    5.2020  -33.8880 C.3    87  LYS87       0.0035
     71  CD       -38.1310    6.2860  -33.6150 C.3    87  LYS87       0.0206
     72  CE       -37.9880    7.2090  -34.7950 C.3    87  LYS87       0.1093
     73  NZ       -37.0550    8.3360  -34.5200 N.3    87  LYS87      -0.1314
     74  N        -42.9250    4.0810  -35.7470 N.3    89  ARG89      -0.1245
     75  CA       -42.8480    4.7790  -37.0300 C.3    89  ARG89       0.1563
     76  C        -41.9660    4.0580  -38.0580 C.2    89  ARG89       0.2260
     77  O        -42.4250    3.8240  -39.1780 O.2    89  ARG89      -0.2867
     78  CB       -42.3480    6.2210  -36.8180 C.3    89  ARG89       0.0307
     79  CG       -42.5380    7.1330  -38.0360 C.3    89  ARG89       0.0489
     80  CD       -42.0800    8.5690  -37.7990 C.3    89  ARG89       0.2205
     81  NE       -40.6810    8.6890  -37.3710 N.pl3  89  ARG89      -0.0865
     82  CZ       -39.6310    8.7370  -38.1860 C.cat  89  ARG89       0.5346
     83  NH1      -38.4060    8.8340  -37.6930 N.pl3  89  ARG89       0.1354
     84  NH2      -39.8010    8.6980  -39.5000 N.pl3  89  ARG89       0.1354
@<TRIPOS>BOND
     1    84    82    1
     2    77    76    2
     3    82    83    1
     4    82    81    2
     5    76    75    1
     6    79    80    1
     7    79    78    1
     8    80    81    1
     9    75    78    1
    10    75    74    1
    11    72    73    1
    12    72    71    1
    13    68    67    2
    14    70    71    1
    15    70    69    1
    16    67    66    1
    17    69    66    1
    18    66    65    1
    19    14    13    1
    20    15    13    1
    21    13    10    1
    22    16    17    1
    23    16    11   am
    24    17    18    1
    25    10    11    1
    26    10     9    1
    27    11    12    2
    28    18    20   am
    29    18    19    2
    30    54    53    2
    31    56    55    1
    32    20    21    1
    33    23    22    2
    34    55    57    1
    35    55    52    1
    36    33    32    1
    37    60    59    1
    38    60    61    2
    39    53    58   am
    40    53    52    1
    41    59    58    1
    42    59    62    1
    43    22    21    1
    44    22    28   am
    45    21    24    1
    46    52    51    1
    47    63    62    1
    48    62    64    1
    49    51    46   am
    50    32    34    1
    51    32    29    1
    52    25    24    1
    53    25    26    1
    54    28    29    1
    55    29    30    1
    56    27    26    1
    57    46    45    1
    58    46    47    2
    59     8     7    1
    60    45    48    1
    61    45    44    1
    62    48    50    1
    63    48    49    1
    64    38    37    2
    65    30    31    2
    66    37    44   am
    67    37    36    1
    68     1     2    1
    69     5     6    1
    70     5     2    1
    71     6     7    1
    72     2     3    1
    73    42    41   ar
    74    39    36    1
    75    39    40    1
    76    36    35    1
    77    41    43   ar
    78    41    40    1
    79     3     4    2
