@<TRIPOS>MOLECULE
tmp/3ta0C01.pdb
 118 115 0 0 0
SMALL
GASTEIGER

@<TRIPOS>ATOM
      1  N        -41.5130    8.6030   -9.0070 N.3     7  VAL7       -0.1245
      2  CA       -42.8240    8.8690   -8.4140 C.3     7  VAL7        0.1561
      3  C        -42.6230   10.1480   -7.6140 C.2     7  VAL7        0.2260
      4  O        -41.8550   10.1610   -6.6440 O.2     7  VAL7       -0.2867
      5  CB       -43.3780    7.6870   -7.5680 C.3     7  VAL7        0.0252
      6  CG1      -44.7340    8.0350   -6.9550 C.3     7  VAL7        0.0019
      7  CG2      -43.4930    6.4220   -8.4120 C.3     7  VAL7        0.0019
      8  N        -51.0160    8.6430  -10.5620 N.3    33  VAL33      -0.1231
      9  CA       -51.0820    7.5070   -9.6500 C.3    33  VAL33       0.1692
     10  C        -51.4680    7.9440   -8.2340 C.2    33  VAL33       0.2592
     11  O        -51.6300    9.1380   -7.9580 O.2    33  VAL33      -0.2718
     12  CB       -49.7360    6.6970   -9.6530 C.3    33  VAL33       0.0266
     13  CG1      -49.4290    6.1050  -11.0280 C.3    33  VAL33       0.0020
     14  CG2      -48.5630    7.5400   -9.1400 C.3    33  VAL33       0.0020
     15  N        -51.5700    6.9660   -7.3370 N.am   34  LYS34      -0.1966
     16  CA       -51.7940    7.1550   -5.9100 C.3    34  LYS34       0.1731
     17  C        -50.7550    6.3290   -5.1710 C.2    34  LYS34       0.2656
     18  O        -50.2560    5.3430   -5.7120 O.2    34  LYS34      -0.2711
     19  CB       -53.2270    6.7810   -5.4970 C.3    34  LYS34       0.0312
     20  CG       -54.2350    7.8780   -5.8380 C.3    34  LYS34       0.0038
     21  CD       -55.6680    7.4310   -5.5760 C.3    34  LYS34       0.0206
     22  CE       -56.6800    8.5510   -5.7280 C.3    34  LYS34       0.1093
     23  NZ       -57.4670    8.4990   -7.0010 N.3    34  LYS34      -0.1314
     24  N        -50.4100    6.7340   -3.9660 N.am   35  GLY35      -0.1716
     25  CA       -49.4280    5.9910   -3.1930 C.2    35  GLY35       0.1480
     26  C        -49.3550    6.3090   -1.7180 C.2    35  GLY35       0.2820
     27  O        -50.0020    7.2400   -1.2270 O.2    35  GLY35      -0.2669
     28  N        -48.5400    5.5220   -1.0150 N.am   36  ARG36      -0.1929
     29  CA       -48.2170    5.6800    0.4010 C.3    36  ARG36       0.1732
     30  C        -46.8470    5.0880    0.6880 C.2    36  ARG36       0.2617
     31  O        -46.2910    4.3850   -0.1570 O.2    36  ARG36      -0.2715
     32  CB       -49.3180    5.1230    1.3410 C.3    36  ARG36       0.0348
     33  CG       -49.4920    3.6160    1.3400 C.3    36  ARG36       0.0492
     34  CD       -50.1760    3.1600    2.6100 C.3    36  ARG36       0.2205
     35  NE       -50.2700    1.6990    2.6910 N.pl3  36  ARG36      -0.0865
     36  CZ       -51.1330    1.0390    3.4590 C.cat  36  ARG36       0.5346
     37  NH1      -51.9980    1.7000    4.2210 N.pl3  36  ARG36       0.1354
     38  NH2      -51.1460   -0.2880    3.4620 N.pl3  36  ARG36       0.1354
     39  N        -46.3300    5.3790    1.8760 N.am   37  GLY37      -0.1940
     40  CA       -45.0520    4.8730    2.3550 C.3    37  GLY37       0.2014
     41  C        -44.8890    4.9960    3.8540 C.2    37  GLY37       0.2638
     42  O        -44.1160    4.2470    4.4530 O.2    37  GLY37      -0.2714
     43  N        -45.5920    5.9780    4.4690 N.am   38  GLU38      -0.1977
     44  CA       -45.5230    6.3000    5.9050 C.3    38  GLU38       0.1602
     45  C        -46.8610    6.8590    6.3990 C.2    38  GLU38       0.2287
     46  O        -47.0460    7.0820    7.5970 O.2    38  GLU38      -0.2864
     47  CB       -44.3860    7.3120    6.1900 C.3    38  GLU38       0.0415
     48  CG       -42.9780    6.7330    6.1990 C.3    38  GLU38       0.1163
     49  CD       -42.6960    5.6870    7.2620 C.2    38  GLU38       0.3649
     50  OE1      -42.5930    4.4900    6.9050 O.co2  38  GLU38      -0.2457
     51  OE2      -42.5730    6.0630    8.4510 O.co2  38  GLU38      -0.2457
     52  N        -50.1250   11.1310   -6.5280 N.3    44  LYS44      -0.1245
     53  CA       -48.7360   11.2520   -6.9350 C.3    44  LYS44       0.1561
     54  C        -48.6670   11.2480   -8.4510 C.2    44  LYS44       0.2260
     55  O        -49.6580   10.9540   -9.1170 O.2    44  LYS44      -0.2867
     56  CB       -47.8760   10.1060   -6.3500 C.3    44  LYS44       0.0271
     57  CG       -47.7300   10.0830   -4.8220 C.3    44  LYS44       0.0035
     58  CD       -46.7960   11.1790   -4.2730 C.3    44  LYS44       0.0206
     59  CE       -46.9940   11.3850   -2.7850 C.3    44  LYS44       0.1093
     60  NZ       -45.9400   12.2680   -2.1940 N.3    44  LYS44      -0.1314
     61  N        -38.7440   17.8720    2.4770 N.3    71  LYS71      -0.1231
     62  CA       -39.7760   17.2670    3.3170 C.3    71  LYS71       0.1693
     63  C        -40.0390   15.8000    2.9120 C.2    71  LYS71       0.2592
     64  O        -39.7670   15.4100    1.7710 O.2    71  LYS71      -0.2718
     65  CB       -41.0770   18.0790    3.2130 C.3    71  LYS71       0.0285
     66  CG       -41.6890   18.4520    4.5550 C.3    71  LYS71       0.0035
     67  CD       -41.2960   19.8560    4.9960 C.3    71  LYS71       0.0206
     68  CE       -42.2020   20.3660    6.0960 C.3    71  LYS71       0.1093
     69  NZ       -42.0600   19.6060    7.3720 N.3    71  LYS71      -0.1314
     70  N        -40.5760   14.9970    3.8570 N.am   72  PHE72      -0.1962
     71  CA       -40.9450   13.5990    3.6490 C.3    72  PHE72       0.1771
     72  C        -42.0860   13.5170    2.6230 C.2    72  PHE72       0.2620
     73  O        -43.0350   14.3040    2.6890 O.2    72  PHE72      -0.2715
     74  CB       -41.3690   12.9440    4.9760 C.3    72  PHE72       0.0574
     75  CG       -40.2940   12.8530    6.0400 C.ar   72  PHE72      -0.0200
     76  CD1      -40.3040   13.7070    7.1360 C.ar   72  PHE72      -0.0042
     77  CD2      -39.2990   11.8810    5.9700 C.ar   72  PHE72      -0.0042
     78  CE1      -39.3160   13.6200    8.1210 C.ar   72  PHE72      -0.0003
     79  CE2      -38.3190   11.7850    6.9640 C.ar   72  PHE72      -0.0003
     80  CZ       -38.3300   12.6590    8.0300 C.ar   72  PHE72      -0.0000
     81  N        -41.9560   12.6030    1.6660 N.am   73  GLY73      -0.1940
     82  CA       -42.9340   12.4230    0.5930 C.3    73  GLY73       0.2014
     83  C        -42.4770   12.9530   -0.7510 C.2    73  GLY73       0.2639
     84  O        -43.2830   13.0510   -1.6780 O.2    73  GLY73      -0.2714
     85  N        -41.1720   13.2940   -0.8700 N.am   74  ASP74      -0.1957
     86  CA       -40.5390   13.8000   -2.0950 C.3    74  ASP74       0.1840
     87  C        -40.5560   12.7980   -3.2490 C.2    74  ASP74       0.2623
     88  O        -40.6080   13.1960   -4.4170 O.2    74  ASP74      -0.2715
     89  CB       -39.1130   14.3080   -1.8270 C.3    74  ASP74       0.1450
     90  CG       -39.0290   15.7640   -1.3870 C.2    74  ASP74       0.3671
     91  OD1      -40.0930   16.4240   -1.2820 O.co2  74  ASP74      -0.2456
     92  OD2      -37.9050   16.2460   -1.1500 O.co2  74  ASP74      -0.2456
     93  N        -40.5130   11.5160   -2.9140 N.am   75  GLY75      -0.1940
     94  CA       -40.6010   10.4780   -3.9110 C.3    75  GLY75       0.2014
     95  C        -39.4200    9.5660   -4.0390 C.2    75  GLY75       0.2638
     96  O        -38.3910    9.7260   -3.3720 O.2    75  GLY75      -0.2714
     97  N        -39.6060    8.5710   -4.9030 N.am   76  ARG76      -0.1977
     98  CA       -38.6260    7.5340   -5.1870 C.3    76  ARG76       0.1597
     99  C        -38.3820    7.4610   -6.6800 C.2    76  ARG76       0.2287
    100  O        -39.2630    7.7980   -7.4840 O.2    76  ARG76      -0.2864
    101  CB       -39.1440    6.1530   -4.7210 C.3    76  ARG76       0.0334
    102  CG       -39.6650    6.0530   -3.2890 C.3    76  ARG76       0.0492
    103  CD       -38.5650    5.8510   -2.2740 C.3    76  ARG76       0.2205
    104  NE       -38.5280    4.4690   -1.8040 N.pl3  76  ARG76      -0.0865
    105  CZ       -38.9460    4.0560   -0.6130 C.cat  76  ARG76       0.5346
    106  NH1      -38.8890    2.7690   -0.2950 N.pl3  76  ARG76       0.1354
    107  NH2      -39.4220    4.9270    0.2720 N.pl3  76  ARG76       0.1354
    108  N        -37.0190    4.4930   -9.4170 N.3    78  PHE78      -0.1241
    109  CA       -36.6780    3.0790   -9.6310 C.3    78  PHE78       0.1605
    110  C        -36.0760    2.9010  -11.0290 C.2    78  PHE78       0.2264
    111  O        -36.6090    3.4280  -12.0040 O.2    78  PHE78      -0.2867
    112  CB       -37.9070    2.1690   -9.4060 C.3    78  PHE78       0.0534
    113  CG       -38.6480    2.4220   -8.0960 C.ar   78  PHE78      -0.0203
    114  CD1      -38.0160    2.2350   -6.8680 C.ar   78  PHE78      -0.0042
    115  CD2      -39.9820    2.8160   -8.0940 C.ar   78  PHE78      -0.0042
    116  CE1      -38.7050    2.4500   -5.6640 C.ar   78  PHE78      -0.0003
    117  CE2      -40.6730    3.0190   -6.8860 C.ar   78  PHE78      -0.0003
    118  CZ       -40.0300    2.8360   -5.6830 C.ar   78  PHE78      -0.0000
@<TRIPOS>BOND
     1   111   110    2
     2   110   109    1
     3    13    12    1
     4     8     9    1
     5    12     9    1
     6    12    14    1
     7     9    10    1
     8   109   108    1
     9   109   112    1
    10   112   113    1
    11    55    54    2
    12     1     2    1
    13    54    53    1
    14     2     3    1
    15     2     5    1
    16     7     5    1
    17    10    11    2
    18    10    15   am
    19   113   115   ar
    20   113   114   ar
    21   115   117   ar
    22     3     4    2
    23     5     6    1
    24   100    99    2
    25    15    16    1
    26    23    22    1
    27    53    52    1
    28    53    56    1
    29   117   118   ar
    30   114   116   ar
    31    99    98    1
    32    56    57    1
    33    16    19    1
    34    16    17    1
    35    20    21    1
    36    20    19    1
    37    22    21    1
    38    18    17    2
    39   118   116   ar
    40    98    97    1
    41    98   101    1
    42    17    24    1
    43    97    95   am
    44    57    58    1
    45   101   102    1
    46    88    87    2
    47    58    59    1
    48    95    94    1
    49    95    96    2
    50    24    25    2
    51    94    93    1
    52   102   103    1
    53    87    93   am
    54    87    86    1
    55    25    26    1
    56    59    60    1
    57   103   104    1
    58    86    89    1
    59    86    85    1
    60    89    90    1
    61   104   105    2
    62    26    27    2
    63    26    28   am
    64    84    83    2
    65    90    91   ar
    66    90    92   ar
    67    28    29    1
    68    85    83   am
    69    83    82    1
    70   105   106    1
    71   105   107    1
    72    31    30    2
    73    29    30    1
    74    29    32    1
    75    82    81    1
    76    30    39   am
    77    33    32    1
    78    33    34    1
    79    81    72   am
    80    64    63    2
    81    39    40    1
    82    40    41    1
    83    61    62    1
    84    34    35    1
    85    72    73    2
    86    72    71    1
    87    35    36    2
    88    63    62    1
    89    63    70   am
    90    65    62    1
    91    65    66    1
    92    36    38    1
    93    36    37    1
    94    71    70    1
    95    71    74    1
    96    41    42    2
    97    41    43   am
    98    43    44    1
    99    66    67    1
   100    74    75    1
   101    67    68    1
   102    44    47    1
   103    44    45    1
   104    77    75   ar
   105    77    79   ar
   106    75    76   ar
   107    68    69    1
   108    47    48    1
   109    48    49    1
   110    45    46    2
   111    50    49   ar
   112    79    80   ar
   113    76    78   ar
   114    49    51   ar
   115    80    78   ar
