@<TRIPOS>MOLECULE
tmp/3ta1D01.pdb
 127 124 0 0 0
SMALL
GASTEIGER

@<TRIPOS>ATOM
      1  N         20.4080    8.3630   -9.0850 N.3     7  VAL7       -0.1245
      2  CA        19.0850    8.6110   -8.4990 C.3     7  VAL7        0.1561
      3  C         19.2800    9.8720   -7.6670 C.2     7  VAL7        0.2260
      4  O         20.0660    9.8610   -6.7260 O.2     7  VAL7       -0.2867
      5  CB        18.4930    7.4100   -7.6950 C.3     7  VAL7        0.0252
      6  CG1       17.1090    7.7580   -7.1610 C.3     7  VAL7        0.0019
      7  CG2       18.4120    6.1510   -8.5680 C.3     7  VAL7        0.0019
      8  N         10.8600    8.5370  -10.6290 N.3    33  VAL33      -0.1231
      9  CA        10.8100    7.3880   -9.7310 C.3    33  VAL33       0.1692
     10  C         10.4860    7.8580   -8.3010 C.2    33  VAL33       0.2592
     11  O         10.3320    9.0520   -8.0490 O.2    33  VAL33      -0.2718
     12  CB        12.1610    6.5780   -9.7620 C.3    33  VAL33       0.0266
     13  CG1       12.5030    6.0730  -11.1680 C.3    33  VAL33       0.0020
     14  CG2       13.3300    7.3780   -9.1710 C.3    33  VAL33       0.0020
     15  N         10.4110    6.9060   -7.3760 N.am   34  LYS34      -0.1966
     16  CA        10.2330    7.1390   -5.9480 C.3    34  LYS34       0.1728
     17  C         11.2670    6.2920   -5.2360 C.2    34  LYS34       0.2617
     18  O         11.7840    5.3360   -5.8060 O.2    34  LYS34      -0.2715
     19  CB         8.8190    6.7540   -5.4870 C.3    34  LYS34       0.0311
     20  CG         7.7390    7.7230   -5.9580 C.3    34  LYS34       0.0038
     21  CD         6.3810    7.3460   -5.3740 C.3    34  LYS34       0.0206
     22  CE         5.2960    8.2350   -5.9290 C.3    34  LYS34       0.1093
     23  NZ         4.0460    8.1450   -5.1320 N.3    34  LYS34      -0.1314
     24  N         11.5750    6.6290   -4.0080 N.am   35  GLY35      -0.1940
     25  CA        12.5200    5.8370   -3.2390 C.3    35  GLY35       0.2014
     26  C         12.5540    6.2070   -1.7750 C.2    35  GLY35       0.2639
     27  O         11.8540    7.1190   -1.3360 O.2    35  GLY35      -0.2714
     28  N         13.4000    5.4970   -1.0270 N.am   36  ARG36      -0.1963
     29  CA        13.6820    5.7440    0.3860 C.3    36  ARG36       0.1729
     30  C         14.9770    5.0710    0.8030 C.2    36  ARG36       0.2617
     31  O         15.5680    4.3380    0.0100 O.2    36  ARG36      -0.2715
     32  CB        12.4900    5.4060    1.2990 C.3    36  ARG36       0.0348
     33  CG        12.0780    3.9660    1.2930 C.3    36  ARG36       0.0492
     34  CD        12.2660    3.4010    2.6650 C.3    36  ARG36       0.2205
     35  NE        12.2230    1.9510    2.5930 N.pl3  36  ARG36      -0.0865
     36  CZ        11.1340    1.2350    2.8120 C.cat  36  ARG36       0.5346
     37  NH1       10.0040    1.8280    3.1790 N.pl3  36  ARG36       0.1354
     38  NH2       11.1700   -0.0850    2.6990 N.pl3  36  ARG36       0.1354
     39  N         15.4380    5.3840    2.0120 N.am   37  GLY37      -0.1940
     40  CA        16.6700    4.8620    2.5950 C.3    37  GLY37       0.2014
     41  C         16.9380    5.5600    3.9100 C.2    37  GLY37       0.2639
     42  O         16.0490    5.6030    4.7650 O.2    37  GLY37      -0.2714
     43  N         18.1380    6.1770    4.0400 N.am   38  GLU38      -0.1963
     44  CA        18.5990    6.9500    5.2080 C.3    38  GLU38       0.1733
     45  C         17.6900    8.1450    5.4980 C.2    38  GLU38       0.2616
     46  O         17.3300    8.3670    6.6520 O.2    38  GLU38      -0.2715
     47  CB        20.0320    7.4610    4.9730 C.3    38  GLU38       0.0429
     48  CG        21.1100    6.6100    5.6110 C.3    38  GLU38       0.1163
     49  CD        22.3700    6.4590    4.7790 C.2    38  GLU38       0.3649
     50  OE1       22.8810    5.3190    4.6910 O.co2  38  GLU38      -0.2457
     51  OE2       22.8380    7.4670    4.2030 O.co2  38  GLU38      -0.2457
     52  N         17.3370    8.9160    4.4500 N.am   39  GLN39      -0.1977
     53  CA        16.4870   10.1060    4.5300 C.3    39  GLN39       0.1601
     54  C         15.0560    9.7710    4.9540 C.2    39  GLN39       0.2287
     55  O         14.4610    8.8070    4.4550 O.2    39  GLN39      -0.2864
     56  CB        16.4770   10.8320    3.1700 C.3    39  GLN39       0.0394
     57  CG        15.6290   12.1140    3.0980 C.3    39  GLN39       0.0908
     58  CD        15.2590   12.5420    1.6880 C.2    39  GLN39       0.2608
     59  OE1       15.2120   11.7400    0.7410 O.2    39  GLN39      -0.2717
     60  NE2       14.9350   13.8190    1.5280 N.am   39  GLN39      -0.0878
     61  N         11.8750   11.0600   -6.6200 N.3    58  LYS58      -0.1245
     62  CA        13.2730   11.1140   -7.0120 C.3    58  LYS58       0.1561
     63  C         13.3440   11.0990   -8.5280 C.2    58  LYS58       0.2260
     64  O         12.3470   10.8240   -9.1900 O.2    58  LYS58      -0.2867
     65  CB        14.0730    9.9180   -6.4250 C.3    58  LYS58       0.0271
     66  CG        14.1870    9.8280   -4.9000 C.3    58  LYS58       0.0035
     67  CD        15.0910   10.8890   -4.2670 C.3    58  LYS58       0.0206
     68  CE        14.8350   10.9550   -2.7710 C.3    58  LYS58       0.1093
     69  NZ        15.6350   12.0370   -2.1300 N.3    58  LYS58      -0.1314
     70  N         23.0590   17.0150    2.5260 N.3    85  LYS85      -0.1231
     71  CA        21.9880   16.5010    3.3760 C.3    85  LYS85       0.1693
     72  C         21.5880   15.0750    2.9760 C.2    85  LYS85       0.2592
     73  O         21.8190   14.6600    1.8360 O.2    85  LYS85      -0.2718
     74  CB        20.7710   17.4540    3.3270 C.3    85  LYS85       0.0285
     75  CG        20.3120   17.9490    4.7100 C.3    85  LYS85       0.0035
     76  CD        21.1360   19.1080    5.2660 C.3    85  LYS85       0.0206
     77  CE        20.7850   19.3820    6.7010 C.3    85  LYS85       0.1093
     78  NZ        21.6770   20.4100    7.2910 N.3    85  LYS85      -0.1314
     79  N         20.9840   14.3340    3.9210 N.am   86  PHE86      -0.1962
     80  CA        20.4980   12.9680    3.7180 C.3    86  PHE86       0.1771
     81  C         19.4190   13.0020    2.6280 C.2    86  PHE86       0.2620
     82  O         18.5280   13.8590    2.6700 O.2    86  PHE86      -0.2715
     83  CB        19.9190   12.3960    5.0340 C.3    86  PHE86       0.0574
     84  CG        20.8840   11.7160    5.9890 C.ar   86  PHE86      -0.0200
     85  CD1       22.1750   12.2060    6.1740 C.ar   86  PHE86      -0.0042
     86  CD2       20.4790   10.6280    6.7530 C.ar   86  PHE86      -0.0042
     87  CE1       23.0590   11.5870    7.0660 C.ar   86  PHE86      -0.0003
     88  CE2       21.3640   10.0120    7.6500 C.ar   86  PHE86      -0.0003
     89  CZ        22.6490   10.4940    7.7970 C.ar   86  PHE86      -0.0000
     90  N         19.5620   12.1340    1.6280 N.am   87  GLY87      -0.1940
     91  CA        18.6140   12.0540    0.5200 C.3    87  GLY87       0.2014
     92  C         19.1310   12.5140   -0.8220 C.2    87  GLY87       0.2639
     93  O         18.3690   12.5170   -1.7990 O.2    87  GLY87      -0.2714
     94  N         20.4260   12.8950   -0.8890 N.am   88  ASP88      -0.1957
     95  CA        21.0860   13.3380   -2.1280 C.3    88  ASP88       0.1840
     96  C         21.0500   12.2850   -3.2410 C.2    88  ASP88       0.2623
     97  O         21.0250   12.6340   -4.4270 O.2    88  ASP88      -0.2715
     98  CB        22.5260   13.7890   -1.8660 C.3    88  ASP88       0.1450
     99  CG        22.6570   15.1940   -1.2960 C.2    88  ASP88       0.3671
    100  OD1       21.6090   15.8660   -1.1060 O.co2  88  ASP88      -0.2456
    101  OD2       23.8030   15.6230   -1.0340 O.co2  88  ASP88      -0.2456
    102  N         21.0550   11.0180   -2.8470 N.am   89  GLY89      -0.1940
    103  CA        20.9390    9.9180   -3.7840 C.3    89  GLY89       0.2014
    104  C         22.1690    9.0750   -3.9570 C.2    89  GLY89       0.2638
    105  O         23.1440    9.1970   -3.2070 O.2    89  GLY89      -0.2714
    106  N         22.1010    8.1940   -4.9600 N.am   90  ARG90      -0.1977
    107  CA        23.1350    7.2160   -5.2660 C.3    90  ARG90       0.1597
    108  C         23.4590    7.1790   -6.7290 C.2    90  ARG90       0.2287
    109  O         22.6360    7.5630   -7.5650 O.2    90  ARG90      -0.2864
    110  CB        22.6700    5.8060   -4.8530 C.3    90  ARG90       0.0334
    111  CG        22.1270    5.6530   -3.4310 C.3    90  ARG90       0.0492
    112  CD        23.1830    5.9600   -2.3630 C.3    90  ARG90       0.2205
    113  NE        23.2960    4.8970   -1.3640 N.pl3  90  ARG90      -0.0865
    114  CZ        22.5960    4.8510   -0.2380 C.cat  90  ARG90       0.5346
    115  NH1       22.7540    3.8420    0.6070 N.pl3  90  ARG90       0.1354
    116  NH2       21.7270    5.8090    0.0520 N.pl3  90  ARG90       0.1354
    117  N         24.8860    4.2090   -9.3860 N.3    92  PHE92      -0.1241
    118  CA        25.2110    2.8000   -9.5950 C.3    92  PHE92       0.1605
    119  C         25.8070    2.6430  -10.9820 C.2    92  PHE92       0.2264
    120  O         25.2400    3.1520  -11.9590 O.2    92  PHE92      -0.2867
    121  CB        23.9610    1.9110   -9.4260 C.3    92  PHE92       0.0534
    122  CG        23.1960    2.1710   -8.1480 C.ar   92  PHE92      -0.0203
    123  CD1       23.8000    1.9930   -6.9050 C.ar   92  PHE92      -0.0042
    124  CD2       21.8520    2.5520   -8.1850 C.ar   92  PHE92      -0.0042
    125  CE1       23.0860    2.2070   -5.7270 C.ar   92  PHE92      -0.0003
    126  CE2       21.1360    2.7650   -7.0020 C.ar   92  PHE92      -0.0003
    127  CZ        21.7560    2.5840   -5.7810 C.ar   92  PHE92      -0.0000
@<TRIPOS>BOND
     1   120   119    2
     2    13    12    1
     3   119   118    1
     4     8     9    1
     5    12     9    1
     6    12    14    1
     7     9    10    1
     8   118   121    1
     9   118   117    1
    10   121   122    1
    11    64    63    2
    12     1     2    1
    13     7     5    1
    14    63    62    1
    15     2     5    1
    16     2     3    1
    17    10    11    2
    18    10    15   am
    19   124   122   ar
    20   124   126   ar
    21   122   123   ar
    22     5     6    1
    23     3     4    2
    24   109   108    2
    25    15    16    1
    26    62    61    1
    27    62    65    1
    28   126   127   ar
    29   123   125   ar
    30   108   107    1
    31    65    66    1
    32    20    19    1
    33    20    21    1
    34    16    19    1
    35    16    17    1
    36    22    21    1
    37    22    23    1
    38    18    17    2
    39   127   125   ar
    40   107   106    1
    41   107   110    1
    42    17    24   am
    43   106   104   am
    44    66    67    1
    45   110   111    1
    46    97    96    2
    47    67    68    1
    48    24    25    1
    49   104   103    1
    50   104   105    2
    51   103   102    1
    52   111   112    1
    53    96   102   am
    54    96    95    1
    55    25    26    1
    56    68    69    1
    57   112   113    1
    58    95    98    1
    59    95    94    1
    60    98    99    1
    61    93    92    2
    62    26    27    2
    63    26    28   am
    64   113   114    2
    65    99   100   ar
    66    99   101   ar
    67    28    29    1
    68    94    92   am
    69    92    91    1
    70   114   116    1
    71   114   115    1
    72    31    30    2
    73    29    30    1
    74    29    32    1
    75    91    90    1
    76    59    58    2
    77    30    39   am
    78    33    32    1
    79    33    34    1
    80    60    58   am
    81    90    81   am
    82    58    57    1
    83    73    72    2
    84    39    40    1
    85    70    71    1
    86    35    34    1
    87    35    36    2
    88    40    41    1
    89    81    82    2
    90    81    80    1
    91    38    36    1
    92    36    37    1
    93    72    71    1
    94    72    79   am
    95    57    56    1
    96    56    53    1
    97    74    71    1
    98    74    75    1
    99    80    79    1
   100    80    83    1
   101    41    43   am
   102    41    42    2
   103    43    44    1
   104    51    49   ar
   105    52    53    1
   106    52    45   am
   107    55    54    2
   108    53    54    1
   109    50    49   ar
   110    75    76    1
   111    49    48    1
   112    47    44    1
   113    47    48    1
   114    83    84    1
   115    44    45    1
   116    76    77    1
   117    45    46    2
   118    84    85   ar
   119    84    86   ar
   120    85    87   ar
   121    77    78    1
   122    86    88   ar
   123    87    89   ar
   124    88    89   ar
