@<TRIPOS>MOLECULE
tmp/3ta1D00.pdb
 78 74 0 0 0
SMALL
GASTEIGER

@<TRIPOS>ATOM
      1  N         26.7100    1.7200  -17.8740 N.3     3  MET3       -0.1245
      2  CA        25.5620    2.5860  -17.6810 C.3     3  MET3        0.1570
      3  C         25.7250    3.1920  -16.3020 C.2     3  MET3        0.2261
      4  O         25.7930    2.4700  -15.2970 O.2     3  MET3       -0.2867
      5  CB        24.2120    1.8520  -17.7820 C.3     3  MET3        0.0387
      6  CG        23.0250    2.8030  -17.6430 C.3     3  MET3        0.0595
      7  SD        21.4400    1.9350  -17.6610 S.3     3  MET3       -0.1393
      8  CE        21.2380    1.6920  -19.3780 C.3     3  MET3        0.0692
      9  N         23.8310   12.7950  -24.3810 N.3    27  GLY27      -0.1210
     10  CA        22.8600   11.7100  -24.3310 C.3    27  GLY27       0.1956
     11  C         22.5320   11.2580  -22.9190 C.2    27  GLY27       0.2612
     12  O         23.4400   11.0010  -22.1190 O.2    27  GLY27      -0.2717
     13  N         21.2280   11.1420  -22.6100 N.am   28  MET28      -0.1965
     14  CA        20.7560   10.6680  -21.3000 C.3    28  MET28       0.1736
     15  C         19.2980   10.2450  -21.3600 C.2    28  MET28       0.2617
     16  O         18.5400   10.7870  -22.1600 O.2    28  MET28      -0.2715
     17  CB        20.9470   11.7380  -20.1990 C.3    28  MET28       0.0427
     18  CG        20.0830   12.9790  -20.4010 C.3    28  MET28       0.0599
     19  SD        20.2850   14.2440  -19.1470 S.3    28  MET28      -0.1393
     20  CE        21.8500   14.8790  -19.6260 C.3    28  MET28       0.0692
     21  N         18.9040    9.3050  -20.4870 N.am   29  THR29      -0.1951
     22  CA        17.5160    8.8470  -20.3470 C.3    29  THR29       0.1897
     23  C         17.1040    9.1800  -18.9110 C.2    29  THR29       0.2313
     24  O         17.8410    8.8710  -17.9650 O.2    29  THR29      -0.2863
     25  CB        17.3610    7.3700  -20.7540 C.3    29  THR29       0.1794
     26  OG1       17.7050    7.2410  -22.1320 O.3    29  THR29      -0.2208
     27  CG2       15.9440    6.8470  -20.5500 C.3    29  THR29       0.0378
     28  N         20.0530    8.1490  -16.4570 N.3    62  GLU62      -0.1231
     29  CA        20.8940    7.0630  -16.9670 C.3    62  GLU62       0.1699
     30  C         21.7240    7.5580  -18.1340 C.2    62  GLU62       0.2592
     31  O         21.1910    8.1190  -19.0970 O.2    62  GLU62      -0.2718
     32  CB        20.0510    5.8610  -17.4080 C.3    62  GLU62       0.0402
     33  CG        19.2750    5.2290  -16.2690 C.3    62  GLU62       0.1161
     34  CD        18.2610    4.2160  -16.7390 C.2    62  GLU62       0.3649
     35  OE1       17.4330    4.5650  -17.6090 O.co2  62  GLU62      -0.2457
     36  OE2       18.3110    3.0630  -16.2640 O.co2  62  GLU62      -0.2457
     37  N         23.0280    7.3350  -18.0520 N.am   63  VAL63      -0.1966
     38  CA        23.9520    7.7390  -19.1040 C.3    63  VAL63       0.1727
     39  C         24.9390    6.6370  -19.4330 C.2    63  VAL63       0.2616
     40  O         25.6950    6.1790  -18.5700 O.2    63  VAL63      -0.2715
     41  CB        24.4960    9.2120  -18.9980 C.3    63  VAL63       0.0290
     42  CG1       24.3730    9.8090  -17.6030 C.3    63  VAL63       0.0023
     43  CG2       25.8920    9.3940  -19.5730 C.3    63  VAL63       0.0023
     44  N         24.8580    6.1410  -20.6640 N.am   64  VAL64      -0.1977
     45  CA        25.7180    5.0550  -21.1320 C.3    64  VAL64       0.1596
     46  C         26.9470    5.6840  -21.7720 C.2    64  VAL64       0.2287
     47  O         26.8110    6.5030  -22.6850 O.2    64  VAL64      -0.2864
     48  CB        24.9670    4.0700  -22.0650 C.3    64  VAL64       0.0276
     49  CG1       25.9200    3.0230  -22.6600 C.3    64  VAL64       0.0022
     50  CG2       23.8280    3.3890  -21.3070 C.3    64  VAL64       0.0022
     51  N         22.7910    1.8180  -31.9830 N.3   101  LYS101     -0.1231
     52  CA        22.1900    3.0680  -32.4300 C.3   101  LYS101      0.1693
     53  C         21.1380    2.6120  -33.4490 C.2   101  LYS101      0.2592
     54  O         21.4790    2.0760  -34.5070 O.2   101  LYS101     -0.2718
     55  CB        23.2290    4.0050  -33.0660 C.3   101  LYS101      0.0285
     56  CG        22.6990    5.4100  -33.3340 C.3   101  LYS101      0.0035
     57  CD        23.7910    6.3790  -33.7890 C.3   101  LYS101      0.0206
     58  CE        24.5690    7.0070  -32.6510 C.3   101  LYS101      0.1093
     59  NZ        25.4110    8.1380  -33.1220 N.3   101  LYS101     -0.1314
     60  N         19.8590    2.7210  -33.0630 N.am  102  ILE102     -0.1966
     61  CA        18.7350    2.2570  -33.8850 C.3   102  ILE102      0.1727
     62  C         18.7380    2.7720  -35.3380 C.2   102  ILE102      0.2616
     63  O         18.5610    1.9710  -36.2440 O.2   102  ILE102     -0.2715
     64  CB        17.3570    2.3760  -33.1600 C.3   102  ILE102      0.0290
     65  CG1       17.3040    1.4190  -31.9440 C.3   102  ILE102      0.0022
     66  CG2       16.1940    2.0580  -34.1380 C.3   102  ILE102      0.0023
     67  CD1       16.0870    1.5900  -30.9430 C.3   102  ILE102      0.0001
     68  N         18.9730    4.0770  -35.5530 N.am  103  ARG103     -0.1977
     69  CA        18.9520    4.6660  -36.8950 C.3   103  ARG103      0.1597
     70  C         19.9210    4.0830  -37.9120 C.2   103  ARG103      0.2287
     71  O         19.5710    3.9780  -39.0890 O.2   103  ARG103     -0.2864
     72  CB        18.9820    6.2080  -36.8800 C.3   103  ARG103      0.0334
     73  CG        20.2720    6.8440  -36.4340 C.3   103  ARG103      0.0492
     74  CD        20.1990    8.3570  -36.5560 C.3   103  ARG103      0.2205
     75  NE        21.3410    8.9090  -37.2930 N.pl3 103  ARG103     -0.0865
     76  CZ        22.5210    9.1910  -36.7520 C.cat 103  ARG103      0.5346
     77  NH1       22.7140    9.0410  -35.4500 N.pl3 103  ARG103      0.1354
     78  NH2       23.4960    9.6860  -37.4990 N.pl3 103  ARG103      0.1354
@<TRIPOS>BOND
     1    71    70    2
     2    70    69    1
     3    78    76    1
     4    75    76    2
     5    75    74    1
     6    69    72    1
     7    69    68    1
     8    72    73    1
     9    76    77    1
    10    74    73    1
    11    63    62    2
    12    68    62   am
    13    62    61    1
    14    54    53    2
    15    66    64    1
    16    61    64    1
    17    61    60    1
    18    57    56    1
    19    57    58    1
    20    53    60   am
    21    53    52    1
    22    56    55    1
    23    64    65    1
    24    59    58    1
    25    55    52    1
    26    52    51    1
    27    65    67    1
    28     9    10    1
    29    10    11    1
    30    11    13   am
    31    11    12    2
    32    47    46    2
    33    49    48    1
    34    13    14    1
    35    16    15    2
    36    26    25    1
    37    48    50    1
    38    48    45    1
    39    46    45    1
    40    15    14    1
    41    15    21   am
    42    14    17    1
    43    45    44    1
    44    25    27    1
    45    25    22    1
    46    44    39   am
    47    21    22    1
    48    18    17    1
    49    18    19    1
    50    22    23    1
    51    20    19    1
    52    43    41    1
    53    39    38    1
    54    39    40    2
    55     8     7    1
    56    38    41    1
    57    38    37    1
    58    31    30    2
    59    41    42    1
    60    23    24    2
    61    30    37   am
    62    30    29    1
    63     1     2    1
    64     5     2    1
    65     5     6    1
    66     2     3    1
    67     7     6    1
    68    35    34   ar
    69    32    29    1
    70    32    33    1
    71    29    28    1
    72    34    33    1
    73    34    36   ar
    74     3     4    2
