@<TRIPOS>MOLECULE
tmp/3ta2C00.pdb
 101 97 0 0 0
SMALL
GASTEIGER

@<TRIPOS>ATOM
      1  N         -5.8280   31.8570    2.6250 N.3     9  ARG9       -0.1245
      2  CA        -5.7130   31.5500    1.1950 C.3     9  ARG9        0.1563
      3  C         -6.5480   32.5910    0.4670 C.2     9  ARG9        0.2260
      4  O         -7.6830   32.8380    0.8820 O.2     9  ARG9       -0.2867
      5  CB        -6.2810   30.1650    0.8730 C.3     9  ARG9        0.0307
      6  CG        -5.5060   29.0320    1.5330 C.3     9  ARG9        0.0489
      7  CD        -6.1940   27.7070    1.2790 C.3     9  ARG9        0.2205
      8  NE        -5.5830   26.6480    2.0890 N.pl3   9  ARG9       -0.0865
      9  CZ        -4.4510   26.0190    1.7880 C.cat   9  ARG9        0.5346
     10  NH1       -3.7890   26.3190    0.6760 N.pl3   9  ARG9        0.1354
     11  NH2       -3.9690   25.0930    2.5990 N.pl3   9  ARG9        0.1354
     12  N          3.6540   35.1880    1.8540 N.3    35  GLY35      -0.1210
     13  CA         4.1810   34.6230    3.0780 C.3    35  GLY35       0.1956
     14  C          4.5390   33.1650    2.9710 C.2    35  GLY35       0.2612
     15  O          4.3220   32.5210    1.9430 O.2    35  GLY35      -0.2717
     16  N          5.0910   32.6400    4.0670 N.am   36  ARG36      -0.1965
     17  CA         5.3070   31.2310    4.2510 C.3    36  ARG36       0.1729
     18  C          5.2220   30.9610    5.7470 C.2    36  ARG36       0.2617
     19  O          5.3240   31.8960    6.5590 O.2    36  ARG36      -0.2715
     20  CB         6.6130   30.7180    3.5870 C.3    36  ARG36       0.0348
     21  CG         7.8820   30.8870    4.4190 C.3    36  ARG36       0.0492
     22  CD         8.4850   32.2710    4.3430 C.3    36  ARG36       0.2205
     23  NE         9.8550   32.2640    4.8760 N.pl3  36  ARG36      -0.0865
     24  CZ        10.9500   32.0220    4.1570 C.cat  36  ARG36       0.5346
     25  NH1       10.8570   31.7530    2.8600 N.pl3  36  ARG36       0.1354
     26  NH2       12.1460   32.0550    4.7260 N.pl3  36  ARG36       0.1354
     27  N          4.9750   29.7120    6.0870 N.am   37  GLY37      -0.1940
     28  CA         4.8570   29.2900    7.4730 C.3    37  GLY37       0.2014
     29  C          5.9180   28.2710    7.7910 C.2    37  GLY37       0.2639
     30  O          7.0100   28.3240    7.2230 O.2    37  GLY37      -0.2714
     31  N          5.5840   27.3180    8.6750 N.am   38  GLU38      -0.1963
     32  CA         6.5460   26.3070    9.1180 C.3    38  GLU38       0.1733
     33  C          7.0920   25.3620    8.0610 C.2    38  GLU38       0.2616
     34  O          8.2090   24.8630    8.2290 O.2    38  GLU38      -0.2715
     35  CB         6.0950   25.5910   10.3970 C.3    38  GLU38       0.0429
     36  CG         4.7620   24.8890   10.3440 C.3    38  GLU38       0.1163
     37  CD         4.5940   23.8200   11.4150 C.2    38  GLU38       0.3649
     38  OE1        5.3270   23.8490   12.4320 O.co2  38  GLU38      -0.2457
     39  OE2        3.7270   22.9360   11.2290 O.co2  38  GLU38      -0.2457
     40  N          6.3580   25.1670    6.9350 N.am   39  GLN39      -0.1963
     41  CA         6.8590   24.3080    5.8560 C.3    39  GLN39       0.1733
     42  C          7.7670   25.0330    4.8870 C.2    39  GLN39       0.2616
     43  O          8.3110   24.4040    3.9700 O.2    39  GLN39      -0.2715
     44  CB         5.7390   23.5390    5.1410 C.3    39  GLN39       0.0408
     45  CG         4.9430   22.6170    6.0690 C.3    39  GLN39       0.0908
     46  CD         3.9090   23.3400    6.9190 C.2    39  GLN39       0.2608
     47  OE1        3.4080   24.4260    6.5670 O.2    39  GLN39      -0.2717
     48  NE2        3.5500   22.7430    8.0480 N.am   39  GLN39      -0.0878
     49  N          7.9530   26.3700    5.1000 N.am   40  LYS40      -0.1963
     50  CA         8.8390   27.2170    4.2850 C.3    40  LYS40       0.1728
     51  C          8.4800   27.1420    2.7980 C.2    40  LYS40       0.2617
     52  O          9.3310   26.9160    1.9490 O.2    40  LYS40      -0.2715
     53  CB        10.3430   26.9220    4.5490 C.3    40  LYS40       0.0311
     54  CG        11.2580   28.1360    4.2810 C.3    40  LYS40       0.0038
     55  CD        12.1850   28.0380    3.0380 C.3    40  LYS40       0.0206
     56  CE        13.1740   26.9220    3.0950 C.3    40  LYS40       0.1093
     57  NZ        14.3670   27.2310    2.2740 N.3    40  LYS40      -0.1314
     58  N          7.2060   27.3060    2.5100 N.am   41  GLY41      -0.1940
     59  CA         6.7200   27.2890    1.1410 C.3    41  GLY41       0.2014
     60  C          6.4750   25.9020    0.6110 C.2    41  GLY41       0.2638
     61  O          6.1430   24.9860    1.3730 O.2    41  GLY41      -0.2714
     62  N          6.6250   25.7620   -0.7190 N.am   42  ILE42      -0.1977
     63  CA         6.3810   24.5020   -1.4210 C.3    42  ILE42       0.1596
     64  C          7.5560   24.1080   -2.2960 C.2    42  ILE42       0.2287
     65  O          8.3180   24.9720   -2.7630 O.2    42  ILE42      -0.2864
     66  CB         5.0470   24.5320   -2.2350 C.3    42  ILE42       0.0276
     67  CG1        5.1250   25.5430   -3.4220 C.3    42  ILE42       0.0022
     68  CG2        3.8080   24.7490   -1.3260 C.3    42  ILE42       0.0022
     69  CD1        3.9900   25.5370   -4.4520 C.3    42  ILE42       0.0001
     70  N          4.3770   32.4800   -0.8370 N.3    56  LEU56      -0.1245
     71  CA         3.1390   32.2640   -1.5690 C.3    56  LEU56       0.1561
     72  C          2.2100   33.4340   -1.4120 C.2    56  LEU56       0.2260
     73  O          2.2230   34.0840   -0.3750 O.2    56  LEU56      -0.2867
     74  CB         2.4140   31.0190   -1.0540 C.3    56  LEU56       0.0270
     75  CG         2.9820   29.6150   -1.3830 C.3    56  LEU56       0.0019
     76  CD1        3.5620   29.5120   -2.8070 C.3    56  LEU56       0.0001
     77  CD2        3.9280   29.1510   -0.3200 C.3    56  LEU56       0.0001
     78  N         -0.9380   35.3460   -0.4030 N.3    58  LYS58      -0.1245
     79  CA        -1.9140   35.1750    0.6620 C.3    58  LYS58       0.1561
     80  C         -2.7400   36.4520    0.7840 C.2    58  LYS58       0.2260
     81  O         -2.3920   37.4880    0.1980 O.2    58  LYS58      -0.2867
     82  CB        -1.2000   34.8720    1.9910 C.3    58  LYS58       0.0271
     83  CG        -0.4380   33.5390    2.0610 C.3    58  LYS58       0.0035
     84  CD        -1.3410   32.3070    2.0070 C.3    58  LYS58       0.0206
     85  CE        -0.5010   31.0610    1.9760 C.3    58  LYS58       0.1093
     86  NZ        -1.3620   29.8440    1.9390 N.3    58  LYS58      -0.1314
     87  N         -1.8210   22.1120    4.7080 N.3    86  PHE86      -0.1227
     88  CA        -0.8340   23.0950    5.1620 C.3    86  PHE86       0.1736
     89  C         -1.0790   24.3890    4.3800 C.2    86  PHE86       0.2596
     90  O         -1.3470   24.3290    3.1650 O.2    86  PHE86      -0.2718
     91  CB         0.6010   22.6180    4.8440 C.3    86  PHE86       0.0547
     92  CG         1.0840   21.3450    5.5090 C.ar   86  PHE86      -0.0202
     93  CD1        1.8980   20.4500    4.8220 C.ar   86  PHE86      -0.0042
     94  CD2        0.7640   21.0630    6.8320 C.ar   86  PHE86      -0.0042
     95  CE1        2.3690   19.2840    5.4420 C.ar   86  PHE86      -0.0003
     96  CE2        1.2250   19.8940    7.4500 C.ar   86  PHE86      -0.0003
     97  CZ         2.0260   19.0110    6.7530 C.ar   86  PHE86      -0.0000
     98  N         -1.0060   25.5200    5.0790 N.am   87  GLY87      -0.1957
     99  CA        -1.1670   26.8340    4.4690 C.3    87  GLY87       0.1869
    100  C         -2.5350   27.4640    4.6130 C.2    87  GLY87       0.2309
    101  O         -2.7820   28.5280    4.0240 O.2    87  GLY87      -0.2863
@<TRIPOS>BOND
     1    69    67    1
     2    67    66    1
     3    76    75    1
     4    65    64    2
     5    64    63    1
     6    66    63    1
     7    66    68    1
     8    71    72    1
     9    71    74    1
    10    71    70    1
    11    63    62    1
    12    72    73    2
    13    75    74    1
    14    75    77    1
    15    62    60   am
    16    78    79    1
    17    81    80    2
    18     3     4    2
    19     3     2    1
    20    60    59    1
    21    60    61    2
    22    79    80    1
    23    79    82    1
    24    10     9    1
    25     5     2    1
    26     5     6    1
    27    59    58    1
    28     2     1    1
    29     7     6    1
    30     7     8    1
    31     9     8    2
    32     9    11    1
    33    12    13    1
    34    86    85    1
    35    15    14    2
    36    52    51    2
    37    85    84    1
    38    82    83    1
    39    84    83    1
    40    57    56    1
    41    58    51   am
    42    51    50    1
    43    25    24    1
    44    14    13    1
    45    14    16   am
    46    55    56    1
    47    55    54    1
    48    90    89    2
    49    20    17    1
    50    20    21    1
    51    43    42    2
    52   101   100    2
    53    16    17    1
    54    24    26    1
    55    24    23    2
    56    17    18    1
    57    54    53    1
    58    50    53    1
    59    50    49    1
    60    22    21    1
    61    22    23    1
    62    89    98   am
    63    89    88    1
    64    99   100    1
    65    99    98    1
    66    87    88    1
    67    93    95   ar
    68    93    92   ar
    69    91    88    1
    70    91    92    1
    71    42    49   am
    72    42    41    1
    73    44    41    1
    74    44    45    1
    75    95    97   ar
    76    92    94   ar
    77    18    27   am
    78    18    19    2
    79    41    40    1
    80    45    46    1
    81    27    28    1
    82    47    46    2
    83    97    96   ar
    84    94    96   ar
    85    46    48   am
    86    40    33   am
    87    30    29    2
    88    28    29    1
    89    29    31   am
    90    33    34    2
    91    33    32    1
    92    31    32    1
    93    32    35    1
    94    36    35    1
    95    36    37    1
    96    39    37   ar
    97    37    38   ar
