@<TRIPOS>MOLECULE
tmp/3ta3A01.pdb
 114 113 0 0 0
SMALL
GASTEIGER

@<TRIPOS>ATOM
      1  N         28.9590    1.7750  -14.8430 N.3   106  SER106     -0.1202
      2  CA        29.7880    2.9830  -14.9610 C.3   106  SER106      0.2020
      3  C         29.4570    3.9860  -13.8510 C.2   106  SER106      0.2619
      4  O         28.3780    3.9310  -13.2460 O.2   106  SER106     -0.2717
      5  CB        29.6280    3.6400  -16.3320 C.3   106  SER106      0.2103
      6  OG        28.3320    4.1840  -16.4880 O.3   106  SER106     -0.2182
      7  N         30.3970    4.8960  -13.5970 N.am  107  GLU107     -0.1965
      8  CA        30.2640    5.9040  -12.5470 C.3   107  GLU107      0.1733
      9  C         30.8250    7.2380  -13.0280 C.2   107  GLU107      0.2617
     10  O         32.0060    7.3190  -13.3640 O.2   107  GLU107     -0.2715
     11  CB        30.9930    5.4370  -11.2890 C.3   107  GLU107      0.0429
     12  CG        31.0920    6.4840  -10.1960 C.3   107  GLU107      0.1163
     13  CD        31.5440    5.9140   -8.8520 C.2   107  GLU107      0.3649
     14  OE1       31.7860    4.6780   -8.7540 O.co2 107  GLU107     -0.2457
     15  OE2       31.6560    6.7210   -7.8920 O.co2 107  GLU107     -0.2457
     16  N         29.9780    8.2720  -13.0610 N.am  108  SER108     -0.1936
     17  CA        30.3490    9.5930  -13.5850 C.3   108  SER108      0.2055
     18  C         30.7540   10.5880  -12.4990 C.2   108  SER108      0.2643
     19  O         30.2730   10.5180  -11.3700 O.2   108  SER108     -0.2714
     20  CB        29.1890   10.1960  -14.3760 C.3   108  SER108      0.2130
     21  OG        28.9360    9.4770  -15.5600 O.3   108  SER108     -0.2179
     22  N         31.6040   11.5440  -12.8650 N.am  109  PHE109     -0.1973
     23  CA        32.0570   12.5780  -11.9420 C.3   109  PHE109      0.1639
     24  C         32.1520   13.9320  -12.6280 C.2   109  PHE109      0.2290
     25  O         32.2570   14.0150  -13.8520 O.2   109  PHE109     -0.2864
     26  CB        33.4300   12.2080  -11.3570 C.3   109  PHE109      0.0560
     27  CG        34.4650   11.9120  -12.3990 C.ar  109  PHE109     -0.0200
     28  CD1       34.6130   10.6220  -12.8990 C.ar  109  PHE109     -0.0042
     29  CD2       35.2760   12.9280  -12.9030 C.ar  109  PHE109     -0.0042
     30  CE1       35.5570   10.3490  -13.8800 C.ar  109  PHE109     -0.0003
     31  CE2       36.2240   12.6590  -13.8850 C.ar  109  PHE109     -0.0003
     32  CZ        36.3630   11.3670  -14.3740 C.ar  109  PHE109     -0.0000
     33  N         29.6320   18.3750   -9.0050 N.3   122  PHE122     -0.1227
     34  CA        28.2420   18.0660   -9.3030 C.3   122  PHE122      0.1736
     35  C         27.9580   16.6960   -8.7330 C.2   122  PHE122      0.2595
     36  O         28.7060   15.7640   -8.9910 O.2   122  PHE122     -0.2718
     37  CB        27.9470   18.0770  -10.8080 C.3   122  PHE122      0.0547
     38  CG        26.4850   18.1340  -11.1170 C.ar  122  PHE122     -0.0202
     39  CD1       25.8310   19.3640  -11.2110 C.ar  122  PHE122     -0.0042
     40  CD2       25.7520   16.9670  -11.2680 C.ar  122  PHE122     -0.0042
     41  CE1       24.4720   19.4370  -11.4640 C.ar  122  PHE122     -0.0003
     42  CE2       24.3840   17.0240  -11.5220 C.ar  122  PHE122     -0.0003
     43  CZ        23.7390   18.2670  -11.6230 C.ar  122  PHE122     -0.0000
     44  N         26.8840   16.5860   -7.9560 N.am  123  TRP123     -0.1962
     45  CA        26.4580   15.3070   -7.3690 C.3   123  TRP123      0.1771
     46  C         24.9360   15.2020   -7.3420 C.2   123  TRP123      0.2620
     47  O         24.2490   16.1050   -6.8820 O.2   123  TRP123     -0.2715
     48  CB        27.0260   15.1690   -5.9460 C.3   123  TRP123      0.0590
     49  CG        26.8570   13.8180   -5.3100 C.ar  123  TRP123      0.0006
     50  CD1       26.0670   13.5110   -4.2320 C.ar  123  TRP123      0.0946
     51  CD2       27.5060   12.5970   -5.6910 C.ar  123  TRP123      0.0152
     52  NE1       26.1780   12.1720   -3.9270 N.ar  123  TRP123     -0.2442
     53  CE2       27.0530   11.5870   -4.8070 C.ar  123  TRP123      0.0810
     54  CE3       28.4210   12.2550   -6.7010 C.ar  123  TRP123      0.0012
     55  CZ2       27.4870   10.2540   -4.8990 C.ar  123  TRP123      0.0191
     56  CZ3       28.8510   10.9260   -6.7980 C.ar  123  TRP123      0.0001
     57  CH2       28.3820    9.9440   -5.8980 C.ar  123  TRP123      0.0015
     58  N         24.4160   14.0970   -7.8460 N.am  124  GLY124     -0.1940
     59  CA        22.9840   13.8570   -7.8410 C.3   124  GLY124      0.2014
     60  C         22.2980   14.7570   -8.8320 C.2   124  GLY124      0.2639
     61  O         22.4130   14.5450  -10.0290 O.2   124  GLY124     -0.2714
     62  N         21.6010   15.7730   -8.3220 N.am  125  THR125     -0.1950
     63  CA        20.8640   16.7440   -9.1480 C.3   125  THR125      0.1897
     64  C         21.3030   18.1900   -8.9500 C.2   125  THR125      0.2313
     65  O         20.6580   19.1040   -9.4560 O.2   125  THR125     -0.2863
     66  CB        19.3590   16.7310   -8.8510 C.3   125  THR125      0.1794
     67  OG1       19.1430   17.2200   -7.5290 O.3   125  THR125     -0.2208
     68  CG2       18.7790   15.3360   -8.9730 C.3   125  THR125      0.0378
     69  N         19.5820   20.1090  -15.4980 N.3   152  ALA152     -0.1245
     70  CA        19.0790   19.0510  -16.3670 C.3   152  ALA152      0.1562
     71  C         20.1130   18.6330  -17.4210 C.2   152  ALA152      0.2260
     72  O         20.2970   17.4480  -17.6710 O.2   152  ALA152     -0.2867
     73  CB        17.7550   19.4790  -17.0270 C.3   152  ALA152      0.0290
     74  N         23.1380   16.8430  -15.6600 N.3   155  GLN155     -0.1231
     75  CA        22.5990   15.5130  -15.3460 C.3   155  GLN155      0.1698
     76  C         22.5650   14.6010  -16.5700 C.2   155  GLN155      0.2592
     77  O         22.9820   13.4490  -16.4810 O.2   155  GLN155     -0.2718
     78  CB        21.2160   15.6050  -14.7070 C.3   155  GLN155      0.0381
     79  CG        21.2380   16.0120  -13.2410 C.3   155  GLN155      0.0905
     80  CD        19.8450   16.2280  -12.6770 C.2   155  GLN155      0.2608
     81  OE1       19.0310   15.3020  -12.6550 O.2   155  GLN155     -0.2717
     82  NE2       19.5600   17.4590  -12.2220 N.am  155  GLN155     -0.0878
     83  N         22.0880   15.1180  -17.7030 N.am  156  MET156     -0.1979
     84  CA        22.0320   14.3450  -18.9440 C.3   156  MET156      0.1605
     85  C         23.4260   13.9570  -19.4370 C.2   156  MET156      0.2287
     86  O         23.6240   12.8340  -19.9010 O.2   156  MET156     -0.2864
     87  CB        21.2630   15.0920  -20.0450 C.3   156  MET156      0.0413
     88  CG        21.0280   14.2710  -21.3290 C.3   156  MET156      0.0598
     89  SD        20.6980   15.2090  -22.8520 S.3   156  MET156     -0.1393
     90  CE        22.0550   16.3970  -22.8820 C.3   156  MET156      0.0692
     91  N         26.1960   13.5390  -17.6390 N.3   158  LEU158     -0.1231
     92  CA        26.8820   12.6380  -16.7340 C.3   158  LEU158      0.1693
     93  C         26.2090   11.2710  -16.6980 C.2   158  LEU158      0.2592
     94  O         26.8910   10.2520  -16.7940 O.2   158  LEU158     -0.2718
     95  CB        26.9870   13.2320  -15.3200 C.3   158  LEU158      0.0284
     96  CG        27.5520   14.6320  -15.0480 C.3   158  LEU158      0.0019
     97  CD1       28.0240   14.7310  -13.6270 C.3   158  LEU158      0.0001
     98  CD2       28.6880   15.0120  -15.9790 C.3   158  LEU158      0.0001
     99  N         24.8840   11.2420  -16.5610 N.am  159  ASN159     -0.1960
    100  CA        24.1610    9.9660  -16.4750 C.3   159  ASN159      0.1819
    101  C         24.0780    9.2240  -17.8120 C.2   159  ASN159      0.2621
    102  O         24.2060    8.0020  -17.8500 O.2   159  ASN159     -0.2715
    103  CB        22.7350   10.1360  -15.9170 C.3   159  ASN159      0.1195
    104  CG        22.6950   10.7650  -14.5340 C.2   159  ASN159      0.2630
    105  OD1       23.6970   11.2790  -14.0300 O.2   159  ASN159     -0.2716
    106  ND2       21.5150   10.7330  -13.9180 N.am  159  ASN159     -0.0877
    107  N         23.8580    9.9650  -18.8990 N.am  160  ASP160     -0.1971
    108  CA        23.5540    9.3410  -20.1860 C.3   160  ASP160      0.1709
    109  C         24.6770    9.4670  -21.2170 C.2   160  ASP160      0.2293
    110  O         25.2310    8.4630  -21.6560 O.2   160  ASP160     -0.2864
    111  CB        22.2250    9.8650  -20.7490 C.3   160  ASP160      0.1436
    112  CG        21.0490    9.6150  -19.8120 C.2   160  ASP160      0.3671
    113  OD1       21.0030    8.5410  -19.1690 O.co2 160  ASP160     -0.2456
    114  OD2       20.1600   10.4960  -19.7210 O.co2 160  ASP160     -0.2456
@<TRIPOS>BOND
     1    90    89    1
     2    89    88    1
     3   110   109    2
     4    88    87    1
     5   109   108    1
     6   111   108    1
     7   111   112    1
     8   108   107    1
     9    87    84    1
    10    86    85    2
    11   112   114   ar
    12   112   113   ar
    13    85    84    1
    14    84    83    1
    15   107   101   am
    16   102   101    2
    17   101   100    1
    18    83    76   am
    19    72    71    2
    20    91    92    1
    21    71    70    1
    22    73    70    1
    23    94    93    2
    24    92    93    1
    25    92    95    1
    26    93    99   am
    27    76    77    2
    28    76    75    1
    29    99   100    1
    30     6     5    1
    31   100   103    1
    32    70    69    1
    33     5     2    1
    34    98    96    1
    35   103   104    1
    36    74    75    1
    37    21    20    1
    38    75    78    1
    39    95    96    1
    40    96    97    1
    41     2     1    1
    42     2     3    1
    43    78    79    1
    44   104   105    2
    45   104   106   am
    46    20    17    1
    47    32    31   ar
    48    32    30   ar
    49    31    29   ar
    50    30    28   ar
    51    25    24    2
    52     3     7   am
    53     3     4    2
    54     7     8    1
    55    17    16    1
    56    17    18    1
    57    10     9    2
    58    79    80    1
    59    16     9   am
    60     9     8    1
    61    29    27   ar
    62    28    27   ar
    63    22    18   am
    64    22    23    1
    65    80    81    2
    66    80    82   am
    67    24    23    1
    68     8    11    1
    69    18    19    2
    70    27    26    1
    71    23    26    1
    72    43    42   ar
    73    43    41   ar
    74    42    40   ar
    75    41    39   ar
    76    11    12    1
    77    40    38   ar
    78    39    38   ar
    79    38    37    1
    80    37    34    1
    81    12    13    1
    82    61    60    2
    83    65    64    2
    84    34    33    1
    85    34    35    1
    86    63    64    1
    87    63    66    1
    88    63    62    1
    89    36    35    2
    90    68    66    1
    91    13    14   ar
    92    13    15   ar
    93    66    67    1
    94    60    62   am
    95    60    59    1
    96    35    44   am
    97    44    45    1
    98    58    59    1
    99    58    46   am
   100    45    46    1
   101    45    48    1
   102    46    47    2
   103    56    54   ar
   104    56    57   ar
   105    54    51   ar
   106    48    49    1
   107    57    55   ar
   108    51    49   ar
   109    51    53   ar
   110    49    50   ar
   111    55    53   ar
   112    53    52   ar
   113    50    52   ar
