@<TRIPOS>MOLECULE
tmp/3tahB00.pdb
 102 99 0 0 0
SMALL
GASTEIGER

@<TRIPOS>ATOM
      1  N         29.6920   -3.2320  -58.1190 N.3    11  ASN11      -0.1226
      2  CA        30.5260   -3.1360  -59.2990 C.3    11  ASN11       0.1770
      3  C         29.7480   -2.5480  -60.4820 C.2    11  ASN11       0.2439
      4  O         28.5070   -2.6290  -60.5290 O.2    11  ASN11      -0.2733
      5  CB        31.0090   -4.5160  -59.7790 C.3    11  ASN11       0.1168
      6  CG        31.9130   -5.2760  -58.8010 C.2    11  ASN11       0.2627
      7  OD1       32.2250   -6.4390  -59.0900 O.2    11  ASN11      -0.2716
      8  ND2       32.3500   -4.6660  -57.6910 N.am   11  ASN11      -0.0877
      9  N         30.4750   -1.9700  -61.4560 N.am   12  PRO12      -0.2718
     10  CA        29.8790   -1.6650  -62.7480 C.3    12  PRO12       0.1535
     11  C         29.2440   -2.9310  -63.3260 C.2    12  PRO12       0.2598
     12  O         29.7570   -4.0260  -63.1060 O.2    12  PRO12      -0.2715
     13  CB        31.0840   -1.2100  -63.5860 C.3    12  PRO12       0.0310
     14  CG        32.0250   -0.6430  -62.5930 C.3    12  PRO12       0.0237
     15  CD        31.8790   -1.5230  -61.3920 C.3    12  PRO12       0.0939
     16  N         28.1250   -2.7760  -64.0310 N.am   13  ALA13      -0.1964
     17  CA        27.4200   -3.8990  -64.6570 C.3    13  ALA13       0.1728
     18  C         26.8400   -4.9480  -63.6830 C.2    13  ALA13       0.2617
     19  O         26.5530   -6.0610  -64.0900 O.2    13  ALA13      -0.2715
     20  CB        28.3310   -4.5690  -65.6930 C.3    13  ALA13       0.0334
     21  N         26.6410   -4.6020  -62.4100 N.am   14  SER14      -0.1936
     22  CA        26.0220   -5.5120  -61.4370 C.3    14  SER14       0.2055
     23  C         24.4870   -5.4070  -61.3980 C.2    14  SER14       0.2644
     24  O         23.8210   -6.2150  -60.7430 O.2    14  SER14      -0.2714
     25  CB        26.5800   -5.2480  -60.0370 C.3    14  SER14       0.2130
     26  OG        26.2860   -3.9180  -59.6260 O.3    14  SER14      -0.2179
     27  N         23.9240   -4.4350  -62.1080 N.am   15  GLY15      -0.1939
     28  CA        22.4880   -4.1850  -62.0780 C.3    15  GLY15       0.2014
     29  C         22.0950   -3.0870  -61.0960 C.2    15  GLY15       0.2639
     30  O         20.9190   -2.9120  -60.8020 O.2    15  GLY15      -0.2714
     31  N         23.0790   -2.3430  -60.5960 N.am   16  LYS16      -0.1963
     32  CA        22.8370   -1.2870  -59.6090 C.3    16  LYS16       0.1728
     33  C         21.8540   -0.2370  -60.1320 C.2    16  LYS16       0.2617
     34  O         20.8980    0.0800  -59.4310 O.2    16  LYS16      -0.2715
     35  CB        24.1610   -0.6420  -59.1520 C.3    16  LYS16       0.0311
     36  CG        23.9930    0.5170  -58.1580 C.3    16  LYS16       0.0038
     37  CD        25.3110    0.9630  -57.5380 C.3    16  LYS16       0.0206
     38  CE        26.1940    1.6580  -58.5350 C.3    16  LYS16       0.1093
     39  NZ        25.6000    2.9100  -59.0430 N.3    16  LYS16      -0.1314
     40  N         22.0730    0.2910  -61.3410 N.am   17  THR17      -0.1937
     41  CA        21.1740    1.3110  -61.8980 C.3    17  THR17       0.2028
     42  C         19.7850    0.7420  -62.1110 C.2    17  THR17       0.2642
     43  O         18.7920    1.4010  -61.7990 O.2    17  THR17      -0.2714
     44  CB        21.6940    1.8980  -63.2430 C.3    17  THR17       0.1808
     45  OG1       22.9750    2.4800  -63.0220 O.3    17  THR17      -0.2208
     46  CG2       20.7670    2.9560  -63.7920 C.3    17  THR17       0.0379
     47  N         19.7130   -0.4800  -62.6440 N.am   18  SER18      -0.1949
     48  CA        18.4090   -1.1250  -62.8380 C.3    18  SER18       0.1924
     49  C         17.6450   -1.2240  -61.5090 C.2    18  SER18       0.2314
     50  O         16.4400   -0.9350  -61.4460 O.2    18  SER18      -0.2863
     51  CB        18.5500   -2.5070  -63.4780 C.3    18  SER18       0.2116
     52  OG        19.2200   -2.4420  -64.7320 O.3    18  SER18      -0.2180
     53  N         21.9980  -10.0190  -57.0000 N.3   115  ASN115     -0.1225
     54  CA        21.2770   -9.6690  -58.2430 C.3   115  ASN115      0.1785
     55  C         21.6280  -10.5970  -59.4150 C.2   115  ASN115      0.2597
     56  O         22.5530  -11.4030  -59.3010 O.2   115  ASN115     -0.2718
     57  CB        21.4700   -8.1750  -58.5720 C.3   115  ASN115      0.1169
     58  CG        20.4330   -7.6400  -59.5690 C.2   115  ASN115      0.2627
     59  OD1       19.2290   -7.8210  -59.3920 O.2   115  ASN115     -0.2716
     60  ND2       20.9120   -7.0160  -60.6480 N.am  115  ASN115     -0.0877
     61  N         20.8600  -10.4710  -60.5010 N.am  116  MET116     -0.1979
     62  CA        20.9610  -11.3210  -61.6970 C.3   116  MET116      0.1605
     63  C         20.7670  -12.7980  -61.3400 C.2   116  MET116      0.2287
     64  O         21.3980  -13.6760  -61.9310 O.2   116  MET116     -0.2864
     65  CB        22.2770  -11.0650  -62.4410 C.3   116  MET116      0.0413
     66  CG        22.3420   -9.6630  -63.0740 C.3   116  MET116      0.0598
     67  SD        24.0000   -9.1020  -63.5420 S.3   116  MET116     -0.1393
     68  CE        23.6780   -7.4120  -64.0220 C.3   116  MET116      0.0692
     69  N         18.0770  -14.5960  -61.8330 N.3   118  ASP118     -0.1225
     70  CA        17.4210  -15.2450  -62.9780 C.3   118  ASP118      0.1805
     71  C         18.4000  -15.8200  -64.0130 C.2   118  ASP118      0.2597
     72  O         18.0910  -16.8090  -64.6830 O.2   118  ASP118     -0.2718
     73  CB        16.4660  -14.2760  -63.6600 C.3   118  ASP118      0.1424
     74  CG        17.1860  -13.0720  -64.2370 C.2   118  ASP118      0.3668
     75  OD1       17.6930  -12.2700  -63.4230 O.co2 118  ASP118     -0.2456
     76  OD2       17.2470  -12.9230  -65.4830 O.co2 118  ASP118     -0.2456
     77  N         19.5670  -15.1990  -64.1420 N.am  119  VAL119     -0.1980
     78  CA        20.6060  -15.6450  -65.0730 C.3   119  VAL119      0.1595
     79  C         21.3110  -16.9130  -64.5620 C.2   119  VAL119      0.2287
     80  O         21.7610  -17.7370  -65.3650 O.2   119  VAL119     -0.2864
     81  CB        21.6540  -14.5250  -65.3360 C.3   119  VAL119      0.0276
     82  CG1       22.6440  -14.9330  -66.4170 C.3   119  VAL119      0.0022
     83  CG2       20.9700  -13.2150  -65.7220 C.3   119  VAL119      0.0022
     84  N         16.1790   -9.9790  -58.7940 N.3   144  SER144     -0.1202
     85  CA        16.3040   -9.8990  -60.2410 C.3   144  SER144      0.2020
     86  C         15.6950   -8.5780  -60.6450 C.2   144  SER144      0.2619
     87  O         14.4920   -8.3710  -60.4520 O.2   144  SER144     -0.2717
     88  CB        15.5960  -11.0400  -60.9670 C.3   144  SER144      0.2103
     89  OG        15.6810  -10.8300  -62.3770 O.3   144  SER144     -0.2182
     90  N         16.5110   -7.6770  -61.1820 N.am  145  ALA145     -0.1965
     91  CA        15.9840   -6.4120  -61.7140 C.3   145  ALA145      0.1728
     92  C         15.1220   -6.6820  -62.9550 C.2   145  ALA145      0.2616
     93  O         14.1530   -5.9630  -63.1880 O.2   145  ALA145     -0.2715
     94  CB        17.1040   -5.4290  -62.0320 C.3   145  ALA145      0.0334
     95  N         15.4580   -7.7200  -63.7290 N.am  146  LEU146     -0.1977
     96  CA        14.6940   -8.0760  -64.9510 C.3   146  LEU146      0.1596
     97  C         13.3110   -8.6210  -64.6230 C.2   146  LEU146      0.2287
     98  O         12.3060   -8.1230  -65.1270 O.2   146  LEU146     -0.2864
     99  CB        15.4530   -9.1110  -65.8040 C.3   146  LEU146      0.0297
    100  CG        14.7440   -9.6050  -67.0790 C.3   146  LEU146      0.0022
    101  CD1       14.4910   -8.4470  -68.0170 C.3   146  LEU146      0.0001
    102  CD2       15.5300  -10.7010  -67.7870 C.3   146  LEU146      0.0001
@<TRIPOS>BOND
     1   101   100    1
     2   102   100    1
     3   100    99    1
     4    82    81    1
     5    99    96    1
     6    83    81    1
     7    20    17    1
     8    76    74   ar
     9    80    79    2
    10    81    78    1
    11    98    97    2
    12    78    79    1
    13    78    77    1
    14    96    97    1
    15    96    95    1
    16    52    51    1
    17    72    71    2
    18    17    16    1
    19    17    18    1
    20    74    73    1
    21    74    75   ar
    22    77    71   am
    23    19    18    2
    24    16    11   am
    25    68    67    1
    26    71    70    1
    27    46    44    1
    28    95    92   am
    29    18    21   am
    30    73    70    1
    31    13    10    1
    32    13    14    1
    33    67    66    1
    34    51    48    1
    35    11    12    2
    36    11    10    1
    37    44    45    1
    38    44    41    1
    39    93    92    2
    40    66    65    1
    41    70    69    1
    42    92    91    1
    43    48    47    1
    44    48    49    1
    45    10     9    1
    46    47    42   am
    47    14    15    1
    48    65    62    1
    49    21    22    1
    50    89    88    1
    51    42    41    1
    52    42    43    2
    53    27    28    1
    54    27    23   am
    55    28    29    1
    56    94    91    1
    57    64    63    2
    58    41    40    1
    59    91    90    1
    60    62    63    1
    61    62    61    1
    62    49    50    2
    63     9    15    1
    64     9     3   am
    65    22    23    1
    66    22    25    1
    67    23    24    2
    68    40    33   am
    69    90    86   am
    70    29    30    2
    71    29    31   am
    72    88    85    1
    73    60    58   am
    74    86    87    2
    75    86    85    1
    76    31    32    1
    77     4     3    2
    78    61    55   am
    79     3     2    1
    80    85    84    1
    81    33    32    1
    82    33    34    2
    83    25    26    1
    84     5     2    1
    85     5     6    1
    86    32    35    1
    87    58    59    2
    88    58    57    1
    89    55    56    2
    90    55    54    1
    91     2     1    1
    92    35    36    1
    93     7     6    2
    94    39    38    1
    95     6     8   am
    96    57    54    1
    97    38    37    1
    98    54    53    1
    99    36    37    1
