@<TRIPOS>MOLECULE
tmp/3tajA00.pdb
 112 111 0 0 0
SMALL
GASTEIGER

@<TRIPOS>ATOM
      1  N         18.0770   16.2190   10.6480 N.3    89  THR89      -0.1203
      2  CA        17.5600   14.8820   10.3750 C.3    89  THR89       0.1994
      3  C         16.0750   14.9510   10.0010 C.2    89  THR89       0.2618
      4  O         15.3670   15.8590   10.4410 O.2    89  THR89      -0.2717
      5  CB        17.7500   13.9810   11.6000 C.3    89  THR89       0.1784
      6  OG1       17.1310   14.5930   12.7390 O.3    89  THR89      -0.2211
      7  CG2       19.2330   13.7820   11.8950 C.3    89  THR89       0.0376
      8  N         15.6360   14.0330    9.1460 N.am   90  GLU90      -0.1965
      9  CA        14.2720   13.9980    8.6510 C.3    90  GLU90       0.1733
     10  C         13.4090   12.8000    9.0890 C.2    90  GLU90       0.2616
     11  O         12.3700   12.5560    8.5400 O.2    90  GLU90      -0.2715
     12  CB        14.2800   14.0470    7.1270 C.3    90  GLU90       0.0429
     13  CG        14.6320   15.4070    6.5160 C.3    90  GLU90       0.1163
     14  CD        15.2900   15.2710    5.1530 C.2    90  GLU90       0.3649
     15  OE1       16.4840   15.6250    5.0500 O.co2  90  GLU90      -0.2457
     16  OE2       14.6360   14.7880    4.2010 O.co2  90  GLU90      -0.2457
     17  N         13.8540   12.0660   10.0470 N.am   91  GLY91      -0.1955
     18  CA        13.1320   10.8960   10.5410 C.3    91  GLY91       0.1869
     19  C         13.0750    9.7920    9.5070 C.2    91  GLY91       0.2309
     20  O         13.3740   10.0180    8.3370 O.2    91  GLY91      -0.2863
     21  N          6.2480    8.7030   11.0020 N.3   250  VAL250     -0.1231
     22  CA         7.6300    9.1430   10.8790 C.3   250  VAL250      0.1692
     23  C          8.3000    8.9700   12.2430 C.2   250  VAL250      0.2592
     24  O          7.8420    9.5150   13.2520 O.2   250  VAL250     -0.2718
     25  CB         7.7510   10.6130   10.3730 C.3   250  VAL250      0.0266
     26  CG1        7.0120   11.5920   11.2890 C.3   250  VAL250      0.0020
     27  CG2        9.2130   11.0150   10.2180 C.3   250  VAL250      0.0020
     28  N          9.3710    8.1880   12.2650 N.am  251  ALA251     -0.1966
     29  CA        10.1000    7.9120   13.4940 C.3   251  ALA251      0.1713
     30  C         11.2710    8.8710   13.6560 C.2   251  ALA251      0.2458
     31  O         11.9320    9.1990   12.6710 O.2   251  ALA251     -0.2730
     32  CB        10.6000    6.4950   13.4710 C.3   251  ALA251      0.0333
     33  N         11.5520    9.3080   14.9000 N.am  252  PRO252     -0.2716
     34  CA        12.7730   10.0870   15.1060 C.3   252  PRO252      0.1536
     35  C         14.0100    9.2130   14.8980 C.2   252  PRO252      0.2598
     36  O         14.0170    8.0520   15.3220 O.2   252  PRO252     -0.2715
     37  CB        12.6630   10.5380   16.5670 C.3   252  PRO252      0.0310
     38  CG        11.7710    9.5430   17.2140 C.3   252  PRO252      0.0237
     39  CD        10.8040    9.0960   16.1530 C.3   252  PRO252      0.0939
     40  N         15.0330    9.7480   14.2350 N.am  253  ASN253     -0.1973
     41  CA        16.2520    8.9860   13.9640 C.3   253  ASN253      0.1688
     42  C         16.8730    8.4140   15.2270 C.2   253  ASN253      0.2292
     43  O         16.7900    9.0110   16.3050 O.2   253  ASN253     -0.2864
     44  CB        17.2960    9.8320   13.2240 C.3   253  ASN253      0.1181
     45  CG        16.9680   10.0160   11.7530 C.2   253  ASN253      0.2629
     46  OD1       15.9890    9.4690   11.2450 O.2   253  ASN253     -0.2716
     47  ND2       17.7950   10.7850   11.0580 N.am  253  ASN253     -0.0877
     48  N         18.2260   19.8410   22.3700 N.3   314  PRO314     -0.2116
     49  CA        16.9570   19.2780   22.7640 C.3   314  PRO314      0.1372
     50  C         17.0130   18.3170   23.9280 C.2   314  PRO314      0.2244
     51  O         17.8990   17.5380   24.0310 O.2   314  PRO314     -0.2868
     52  CB        16.5250   18.5080   21.5240 C.3   314  PRO314      0.0268
     53  CG        17.7040   18.1610   20.8870 C.3   314  PRO314      0.0207
     54  CD        18.7450   19.1960   21.1740 C.3   314  PRO314      0.0892
     55  N         12.5840   14.6270   25.2130 N.3   317  GLU317     -0.1231
     56  CA        11.1860   14.8430   24.8340 C.3   317  GLU317      0.1699
     57  C         11.0680   15.7150   23.5870 C.2   317  GLU317      0.2592
     58  O         10.2190   15.4660   22.7250 O.2   317  GLU317     -0.2718
     59  CB        10.3830   15.4330   25.9980 C.3   317  GLU317      0.0402
     60  CG        10.0640   14.4210   27.0970 C.3   317  GLU317      0.1161
     61  CD         9.3290   15.0310   28.2750 C.2   317  GLU317      0.3649
     62  OE1        9.9830   15.6300   29.1580 O.co2 317  GLU317     -0.2457
     63  OE2        8.0890   14.8930   28.3280 O.co2 317  GLU317     -0.2457
     64  N         11.9340   16.7220   23.4890 N.am  318  GLU318     -0.1966
     65  CA        12.0060   17.5650   22.2990 C.3   318  GLU318      0.1733
     66  C         12.5400   16.7900   21.1010 C.2   318  GLU318      0.2616
     67  O         12.0410   16.9510   19.9820 O.2   318  GLU318     -0.2715
     68  CB        12.8810   18.7900   22.5530 C.3   318  GLU318      0.0429
     69  CG        12.2770   19.7850   23.5130 C.3   318  GLU318      0.1163
     70  CD        13.2100   20.9370   23.7950 C.2   318  GLU318      0.3649
     71  OE1       14.3880   20.6910   24.1340 O.co2 318  GLU318     -0.2457
     72  OE2       12.7690   22.1010   23.6720 O.co2 318  GLU318     -0.2457
     73  N         13.5480   15.9490   21.3390 N.am  319  TYR319     -0.1960
     74  CA        14.1440   15.1560   20.2690 C.3   319  TYR319      0.1771
     75  C         13.1530   14.1530   19.6800 C.2   319  TYR319      0.2619
     76  O         13.0590   14.0140   18.4570 O.2   319  TYR319     -0.2715
     77  CB        15.4220   14.4320   20.7160 C.3   319  TYR319      0.0574
     78  CG        16.0060   13.6330   19.5790 C.ar  319  TYR319     -0.0198
     79  CD1       16.7790   14.2500   18.6000 C.ar  319  TYR319     -0.0009
     80  CD2       15.7300   12.2710   19.4420 C.ar  319  TYR319     -0.0009
     81  CE1       17.2890   13.5340   17.5300 C.ar  319  TYR319      0.0417
     82  CE2       16.2340   11.5440   18.3720 C.ar  319  TYR319      0.0417
     83  CZ        17.0110   12.1830   17.4210 C.ar  319  TYR319      0.1957
     84  OH        17.5190   11.4770   16.3570 O.3   319  TYR319     -0.2866
     85  N         12.4310   13.4540   20.5520 N.am  320  LEU320     -0.1963
     86  CA        11.4440   12.4620   20.1230 C.3   320  LEU320      0.1728
     87  C         10.1890   13.1050   19.5420 C.2   320  LEU320      0.2617
     88  O          9.5280   12.5180   18.6820 O.2   320  LEU320     -0.2715
     89  CB        11.0710   11.5290   21.2780 C.3   320  LEU320      0.0311
     90  CG        12.1820   10.6200   21.8140 C.3   320  LEU320      0.0022
     91  CD1       11.6800    9.8140   22.9990 C.3   320  LEU320      0.0001
     92  CD2       12.7310    9.6980   20.7290 C.3   320  LEU320      0.0001
     93  N          9.8710   14.3090   20.0130 N.am  321  GLY321     -0.1940
     94  CA         8.6570   15.0070   19.5980 C.3   321  GLY321      0.2014
     95  C          7.4900   14.6700   20.5020 C.2   321  GLY321      0.2640
     96  O          7.3050   13.5110   20.8890 O.2   321  GLY321     -0.2714
     97  N          6.6960   15.6880   20.8300 N.am  322  THR322     -0.1936
     98  CA         5.6100   15.5670   21.8080 C.3   322  THR322      0.2028
     99  C          4.6060   14.4640   21.4850 C.2   322  THR322      0.2642
    100  O          4.1900   13.7240   22.3800 O.2   322  THR322     -0.2714
    101  CB         4.8450   16.8980   21.9830 C.3   322  THR322      0.1808
    102  OG1        4.4100   17.3740   20.7030 O.3   322  THR322     -0.2208
    103  CG2        5.7340   17.9460   22.6360 C.3   322  THR322      0.0379
    104  N          4.2240   14.3530   20.2150 N.am  323  GLU323     -0.1976
    105  CA         3.2460   13.3480   19.7980 C.3   323  GLU323      0.1602
    106  C          3.7540   11.9170   19.9810 C.2   323  GLU323      0.2287
    107  O          3.0020   11.0490   20.4210 O.2   323  GLU323     -0.2864
    108  CB         2.7560   13.5890   18.3630 C.3   323  GLU323      0.0415
    109  CG         3.8470   13.6890   17.3010 C.3   323  GLU323      0.1163
    110  CD         3.2980   13.8690   15.8950 C.2   323  GLU323      0.3649
    111  OE1        4.0700   13.6780   14.9300 O.co2 323  GLU323     -0.2457
    112  OE2        2.1000   14.2010   15.7460 O.co2 323  GLU323     -0.2457
@<TRIPOS>BOND
     1    16    14   ar
     2    15    14   ar
     3    14    13    1
     4    13    12    1
     5    12     9    1
     6    20    19    2
     7    11    10    2
     8     9    10    1
     9     9     8    1
    10    10    17   am
    11     8     3   am
    12    19    18    1
    13     3     2    1
    14     3     4    2
    15    17    18    1
    16    27    25    1
    17    25    22    1
    18    25    26    1
    19     2     1    1
    20     2     5    1
    21    22    21    1
    22    22    23    1
    23    47    45   am
    24    46    45    2
    25     5     7    1
    26     5     6    1
    27    45    44    1
    28    23    28   am
    29    23    24    2
    30    28    29    1
    31    31    30    2
    32    44    41    1
    33    32    29    1
    34    29    30    1
    35    30    33   am
    36    41    40    1
    37    41    42    1
    38    40    35   am
    39    35    34    1
    40    35    36    2
    41    33    34    1
    42    33    39    1
    43   111   110   ar
    44    34    37    1
    45    42    43    2
    46   112   110   ar
    47   110   109    1
    48    39    38    1
    49    84    83    1
    50    37    38    1
    51   109   108    1
    52    83    81   ar
    53    83    82   ar
    54    81    79   ar
    55   108   105    1
    56    82    80   ar
    57    76    75    2
    58    79    78   ar
    59    88    87    2
    60    80    78   ar
    61    87    93   am
    62    87    86    1
    63    78    77    1
    64    94    93    1
    65    94    95    1
    66    75    74    1
    67    75    85   am
    68   105   106    1
    69   105   104    1
    70   106   107    2
    71    67    66    2
    72    86    85    1
    73    86    89    1
    74   104    99   am
    75    74    77    1
    76    74    73    1
    77    95    97   am
    78    95    96    2
    79   102   101    1
    80    92    90    1
    81    97    98    1
    82    53    54    1
    83    53    52    1
    84    66    73   am
    85    66    65    1
    86    54    48    1
    87    89    90    1
    88    99    98    1
    89    99   100    2
    90    52    49    1
    91    98   101    1
    92    90    91    1
    93   101   103    1
    94    65    68    1
    95    65    64    1
    96    48    49    1
    97    68    69    1
    98    58    57    2
    99    49    50    1
   100    64    57   am
   101    69    70    1
   102    57    56    1
   103    72    70   ar
   104    70    71   ar
   105    50    51    2
   106    56    55    1
   107    56    59    1
   108    59    60    1
   109    60    61    1
   110    61    63   ar
   111    61    62   ar
