@<TRIPOS>MOLECULE
tmp/3tamA00.pdb
 203 204 0 0 0
SMALL
GASTEIGER

@<TRIPOS>ATOM
      1  N         11.4270   21.2140   22.0330 N.3    91  PRO91      -0.2116
      2  CA        10.6880   20.8840   20.8030 C.3    91  PRO91       0.1372
      3  C          9.1800   20.8700   20.9750 C.2    91  PRO91       0.2244
      4  O          8.6730   20.3160   21.9530 O.2    91  PRO91      -0.2868
      5  CB        11.2160   19.4880   20.4340 C.3    91  PRO91       0.0268
      6  CG        12.5180   19.3800   21.1040 C.3    91  PRO91       0.0207
      7  CD        12.3730   20.1340   22.3840 C.3    91  PRO91       0.0892
      8  N          5.7280   19.4570   19.5620 N.3    93  PRO93      -0.2116
      9  CA         5.2760   18.3710   18.6740 C.3    93  PRO93       0.1372
     10  C          4.8140   18.8020   17.2730 C.2    93  PRO93       0.2244
     11  O          5.1180   18.1170   16.2950 O.2    93  PRO93      -0.2868
     12  CB         4.1350   17.7390   19.4650 C.3    93  PRO93       0.0268
     13  CG         4.4230   18.0650   20.8800 C.3    93  PRO93       0.0207
     14  CD         5.1020   19.3670   20.9030 C.3    93  PRO93       0.0892
     15  N          7.3350   18.9190   14.5370 N.3    96  LEU96      -0.1231
     16  CA         7.8570   17.6110   14.1300 C.3    96  LEU96       0.1693
     17  C          7.2720   17.2340   12.7880 C.2    96  LEU96       0.2592
     18  O          6.0570   17.3470   12.6000 O.2    96  LEU96      -0.2718
     19  CB         7.5030   16.4800   15.1310 C.3    96  LEU96       0.0284
     20  CG         8.1310   16.5280   16.5070 C.3    96  LEU96       0.0019
     21  CD1        7.4230   15.5800   17.4380 C.3    96  LEU96       0.0001
     22  CD2        9.5930   16.2680   16.4500 C.3    96  LEU96       0.0001
     23  N          8.1310   16.7770   11.8590 N.am   97  LYS97      -0.1966
     24  CA         7.6720   16.2720   10.5650 C.3    97  LYS97       0.1728
     25  C          7.2260   14.8250   10.8240 C.2    97  LYS97       0.2616
     26  O          7.7430   14.1820   11.7430 O.2    97  LYS97      -0.2715
     27  CB         8.7770   16.3400    9.4950 C.3    97  LYS97       0.0311
     28  CG         9.4300   17.7270    9.3480 C.3    97  LYS97       0.0038
     29  CD        10.6680   17.6870    8.4420 C.3    97  LYS97       0.0206
     30  CE        11.7230   18.7170    8.8110 C.3    97  LYS97       0.1093
     31  NZ        12.8830   18.1170    9.5540 N.3    97  LYS97      -0.1314
     32  N          6.2070   14.3470   10.1070 N.am   98  LYS98      -0.1963
     33  CA         5.7660   12.9570   10.2350 C.3    98  LYS98       0.1728
     34  C          6.8580   12.0860    9.5640 C.2    98  LYS98       0.2616
     35  O          7.1260   12.2500    8.3610 O.2    98  LYS98      -0.2715
     36  CB         4.4060   12.7540    9.5440 C.3    98  LYS98       0.0311
     37  CG         3.5450   11.6690   10.1680 C.3    98  LYS98       0.0038
     38  CD         3.1710   10.6020    9.1680 C.3    98  LYS98       0.0206
     39  CE         1.7720   10.7220    8.6350 C.3    98  LYS98       0.1093
     40  NZ         1.2490    9.3840    8.2470 N.3    98  LYS98      -0.1314
     41  N          7.5630   11.2540   10.3720 N.am   99  ASN99      -0.1958
     42  CA         8.6270   10.3550    9.8940 C.3    99  ASN99       0.1819
     43  C          8.1210    8.8970    9.7660 C.2    99  ASN99       0.2621
     44  O          7.2930    8.4530   10.5800 O.2    99  ASN99      -0.2715
     45  CB         9.8490   10.4520   10.7910 C.3    99  ASN99       0.1195
     46  CG        10.7200   11.6650   10.5260 C.2    99  ASN99       0.2630
     47  OD1       11.5570   11.6650    9.6230 O.2    99  ASN99      -0.2716
     48  ND2       10.5370   12.7400   11.2880 N.am   99  ASN99      -0.0877
     49  N          8.5770    8.1680    8.7170 N.am  100  LYS100     -0.1963
     50  CA         8.1730    6.7670    8.4850 C.3   100  LYS100      0.1728
     51  C          8.3880    5.9660    9.7650 C.2   100  LYS100      0.2617
     52  O          7.4340    5.4370   10.3560 O.2   100  LYS100     -0.2715
     53  CB         8.9800    6.1370    7.3280 C.3   100  LYS100      0.0311
     54  CG         8.3690    6.3320    5.9440 C.3   100  LYS100      0.0038
     55  CD         7.5110    5.1390    5.4990 C.3   100  LYS100      0.0206
     56  CE         6.8900    5.3580    4.1360 C.3   100  LYS100      0.1093
     57  NZ         7.9030    5.3470    3.0400 N.3   100  LYS100     -0.1314
     58  N          9.6300    5.9650   10.2410 N.am  101  SER101     -0.1936
     59  CA         9.9610    5.2650   11.4700 C.3   101  SER101      0.2055
     60  C         10.7600    6.1380   12.4040 C.2   101  SER101      0.2643
     61  O         11.6220    6.9140   11.9630 O.2   101  SER101     -0.2714
     62  CB        10.6530    3.9280   11.1870 C.3   101  SER101      0.2130
     63  OG        11.5300    3.9740   10.0700 O.3   101  SER101     -0.2179
     64  N         10.4010    6.0810   13.6960 N.am  102  VAL102     -0.1963
     65  CA        11.0930    6.8390   14.7500 C.3   102  VAL102      0.1727
     66  C         11.4300    5.9630   15.9670 C.2   102  VAL102      0.2617
     67  O         10.6040    5.1430   16.4140 O.2   102  VAL102     -0.2715
     68  CB        10.5100    8.2600   15.1290 C.3   102  VAL102      0.0290
     69  CG1        9.9090    8.9990   13.9290 C.3   102  VAL102      0.0023
     70  CG2        9.5170    8.2170   16.2890 C.3   102  VAL102      0.0023
     71  N         12.6540    6.1110   16.4830 N.am  103  THR103     -0.1937
     72  CA        13.0210    5.3820   17.7010 C.3   103  THR103      0.2028
     73  C         13.5330    6.3140   18.7870 C.2   103  THR103      0.2642
     74  O         14.2150    7.3040   18.4930 O.2   103  THR103     -0.2714
     75  CB        13.9450    4.1510   17.4670 C.3   103  THR103      0.1808
     76  OG1       15.1550    4.5640   16.8450 O.3   103  THR103     -0.2208
     77  CG2       13.2620    2.9940   16.7010 C.3   103  THR103      0.0379
     78  N         13.1990    5.9930   20.0460 N.am  104  VAL104     -0.1977
     79  CA        13.7300    6.7560   21.1680 C.3   104  VAL104      0.1596
     80  C         14.9010    5.9850   21.8470 C.2   104  VAL104      0.2287
     81  O         14.7550    4.8080   22.2250 O.2   104  VAL104     -0.2864
     82  CB        12.6790    7.4050   22.1400 C.3   104  VAL104      0.0276
     83  CG1       11.4610    7.9660   21.3940 C.3   104  VAL104      0.0022
     84  CG2       12.2340    6.4570   23.2090 C.3   104  VAL104      0.0022
     85  N         16.8940   12.5850   11.2220 N.3   175  VAL175     -0.1245
     86  CA        16.7230   13.6110   12.2310 C.3   175  VAL175      0.1561
     87  C         17.0670   13.0460   13.5810 C.2   175  VAL175      0.2260
     88  O         16.6420   11.9390   13.9350 O.2   175  VAL175     -0.2867
     89  CB        15.3540   14.3790   12.2230 C.3   175  VAL175      0.0252
     90  CG1       15.1930   15.2180   10.9610 C.3   175  VAL175      0.0019
     91  CG2       14.1600   13.4530   12.3970 C.3   175  VAL175      0.0019
     92  N         16.8160   14.3680   17.4120 N.3   177  TYR177     -0.1241
     93  CA        16.4420   15.3880   18.3790 C.3   177  TYR177      0.1605
     94  C         17.2530   15.1020   19.6590 C.2   177  TYR177      0.2264
     95  O         17.2670   13.9590   20.1460 O.2   177  TYR177     -0.2867
     96  CB        14.9150   15.3970   18.6330 C.3   177  TYR177      0.0534
     97  CG        14.1280   16.2550   17.6600 C.ar  177  TYR177     -0.0201
     98  CD1       13.7890   17.5680   17.9740 C.ar  177  TYR177     -0.0009
     99  CD2       13.7200   15.7550   16.4280 C.ar  177  TYR177     -0.0009
    100  CE1       13.0440   18.3590   17.0920 C.ar  177  TYR177      0.0417
    101  CE2       12.9960   16.5430   15.5260 C.ar  177  TYR177      0.0417
    102  CZ        12.6550   17.8450   15.8650 C.ar  177  TYR177      0.1957
    103  OH        11.9230   18.6270   14.9880 O.3   177  TYR177     -0.2866
    104  N         16.1760   11.4440   19.9590 N.3   184  TYR184     -0.1227
    105  CA        14.9600   11.0520   19.2280 C.3   184  TYR184      0.1736
    106  C         15.3440   11.0470   17.8020 C.2   184  TYR184      0.2595
    107  O         15.7300   12.0820   17.2560 O.2   184  TYR184     -0.2718
    108  CB        13.7610   11.9740   19.4980 C.3   184  TYR184      0.0548
    109  CG        13.5620   12.2810   20.9590 C.ar  184  TYR184     -0.0200
    110  CD1       13.4510   13.5940   21.4040 C.ar  184  TYR184     -0.0009
    111  CD2       13.5430   11.2620   21.9110 C.ar  184  TYR184     -0.0009
    112  CE1       13.2880   13.8880   22.7520 C.ar  184  TYR184      0.0417
    113  CE2       13.3890   11.5450   23.2660 C.ar  184  TYR184      0.0417
    114  CZ        13.2660   12.8620   23.6810 C.ar  184  TYR184      0.1957
    115  OH        13.0950   13.1480   25.0080 O.3   184  TYR184     -0.2866
    116  N         15.3520    9.8470   17.2360 N.am  185  VAL185     -0.1966
    117  CA        15.8220    9.5720   15.8860 C.3   185  VAL185      0.1727
    118  C         14.6950    9.1900   14.9550 C.2   185  VAL185      0.2616
    119  O         13.9720    8.2190   15.2140 O.2   185  VAL185     -0.2715
    120  CB        16.9680    8.5370   15.8640 C.3   185  VAL185      0.0290
    121  CG1       17.8010    8.7040   14.6070 C.3   185  VAL185      0.0023
    122  CG2       17.8490    8.6530   17.1070 C.3   185  VAL185      0.0023
    123  N         14.5520    9.9750   13.8940 N.am  186  GLY186     -0.1955
    124  CA        13.5300    9.7510   12.8890 C.3   186  GLY186      0.1869
    125  C         14.1020    9.7040   11.4880 C.2   186  GLY186      0.2309
    126  O         15.0070   10.4820   11.1460 O.2   186  GLY186     -0.2863
    127  N          5.6890    3.3260   19.9400 N.3   221  PRO221     -0.2116
    128  CA         4.6430    4.3620   19.9090 C.3   221  PRO221      0.1372
    129  C          3.3310    3.8870   20.5150 C.2   221  PRO221      0.2244
    130  O          3.0350    2.7010   20.4030 O.2   221  PRO221     -0.2868
    131  CB         4.4660    4.6240   18.4170 C.3   221  PRO221      0.0268
    132  CG         5.7360    4.2400   17.8230 C.3   221  PRO221      0.0207
    133  CD         6.1700    3.0430   18.5770 C.3   221  PRO221      0.0892
    134  N          4.5650    7.5600   22.2480 N.3   223  PHE223     -0.1227
    135  CA         5.5000    8.1660   23.2050 C.3   223  PHE223      0.1736
    136  C          4.8350    9.1940   24.0930 C.2   223  PHE223      0.2595
    137  O          4.2200   10.1440   23.6040 O.2   223  PHE223     -0.2718
    138  CB         6.6780    8.8070   22.4730 C.3   223  PHE223      0.0547
    139  CG         7.3500    7.8710   21.5060 C.ar  223  PHE223     -0.0202
    140  CD1        7.7950    6.6130   21.9190 C.ar  223  PHE223     -0.0042
    141  CD2        7.5190    8.2280   20.1760 C.ar  223  PHE223     -0.0042
    142  CE1        8.4030    5.7390   21.0210 C.ar  223  PHE223     -0.0003
    143  CE2        8.1460    7.3520   19.2790 C.ar  223  PHE223     -0.0003
    144  CZ         8.5910    6.1180   19.7120 C.ar  223  PHE223     -0.0000
    145  N          4.9540    8.9850   25.4100 N.am  224  LEU224     -0.1966
    146  CA         4.4000    9.8480   26.4500 C.3   224  LEU224      0.1728
    147  C          5.5320   10.7440   26.8920 C.2   224  LEU224      0.2616
    148  O          6.3230   10.3830   27.7660 O.2   224  LEU224     -0.2715
    149  CB         3.8180    8.9920   27.5970 C.3   224  LEU224      0.0311
    150  CG         2.3200    8.6300   27.4630 C.3   224  LEU224      0.0022
    151  CD1        2.0100    7.9060   26.1510 C.3   224  LEU224      0.0001
    152  CD2        1.8510    7.7890   28.6310 C.3   224  LEU224      0.0001
    153  N          5.6610   11.8820   26.2150 N.am  225  TRP225     -0.1974
    154  CA         6.7660   12.8050   26.3910 C.3   225  TRP225      0.1640
    155  C          6.3280   14.2300   26.7570 C.2   225  TRP225      0.2290
    156  O          5.5200   14.8120   26.0430 O.2   225  TRP225     -0.2864
    157  CB         7.5990   12.7680   25.1020 C.3   225  TRP225      0.0576
    158  CG         8.7540   13.7130   25.0800 C.ar  225  TRP225      0.0006
    159  CD1       10.0080   13.4890   25.5660 C.ar  225  TRP225      0.0946
    160  CD2        8.7650   15.0350   24.5300 C.ar  225  TRP225      0.0152
    161  NE1       10.7880   14.5980   25.3920 N.ar  225  TRP225     -0.2442
    162  CE2       10.0620   15.5600   24.7360 C.ar  225  TRP225      0.0810
    163  CE3        7.7950   15.8380   23.8830 C.ar  225  TRP225      0.0012
    164  CZ2       10.4220   16.8540   24.3270 C.ar  225  TRP225      0.0191
    165  CZ3        8.1540   17.1210   23.4810 C.ar  225  TRP225      0.0001
    166  CH2        9.4470   17.6260   23.7280 C.ar  225  TRP225      0.0015
    167  N          2.6960   11.3260   21.4260 N.3   230  LEU230     -0.1231
    168  CA         3.2020   11.3730   20.0620 C.3   230  LEU230      0.1693
    169  C          2.8830   10.0540   19.4310 C.2   230  LEU230      0.2592
    170  O          3.4220    9.0350   19.8460 O.2   230  LEU230     -0.2718
    171  CB         4.7070   11.6690   20.0170 C.3   230  LEU230      0.0284
    172  CG         5.1600   12.8880   20.8220 C.3   230  LEU230      0.0019
    173  CD1        6.6040   12.8230   21.1340 C.3   230  LEU230      0.0001
    174  CD2        4.8200   14.1830   20.1110 C.3   230  LEU230      0.0001
    175  N          1.8960   10.0590   18.5220 N.am  231  HIS231     -0.1962
    176  CA         1.3820    8.9070   17.7740 C.3   231  HIS231      0.1772
    177  C          1.9960    8.9210   16.3760 C.2   231  HIS231      0.2462
    178  O          2.5920    9.9270   15.9930 O.2   231  HIS231     -0.2730
    179  CB        -0.1440    8.9930   17.6690 C.3   231  HIS231      0.0785
    180  CG        -0.8750    8.8620   18.9650 C.ar  231  HIS231      0.0821
    181  ND1       -0.9070    9.8950   19.8810 N.ar  231  HIS231     -0.2267
    182  CD2       -1.6480    7.8470   19.4200 C.ar  231  HIS231      0.1154
    183  CE1       -1.6660    9.4650   20.8790 C.ar  231  HIS231      0.1986
    184  NE2       -2.1400    8.2400   20.6430 N.ar  231  HIS231     -0.2212
    185  N          1.8500    7.8450   15.5740 N.am  232  PRO232     -0.2727
    186  CA         2.5020    7.8300   14.2460 C.3   232  PRO232      0.1402
    187  C          2.0460    8.8480   13.1900 C.2   232  PRO232      0.2269
    188  O          2.7940    9.1020   12.2430 O.2   232  PRO232     -0.2865
    189  CB         2.3290    6.3790   13.7780 C.3   232  PRO232      0.0296
    190  CG         1.9800    5.5980   15.0010 C.3   232  PRO232      0.0237
    191  CD         1.2220    6.5380   15.8700 C.3   232  PRO232      0.0939
    192  N          1.1490   16.6110   12.2770 N.3   314  TYR314     -0.1241
    193  CA         2.5640   16.9640   12.1950 C.3   314  TYR314      0.1605
    194  C          2.8240   17.9720   11.0560 C.2   314  TYR314      0.2264
    195  O          1.8960   18.3460   10.3330 O.2   314  TYR314     -0.2867
    196  CB         3.4670   15.7140   12.1060 C.3   314  TYR314      0.0534
    197  CG         3.4360   14.8200   13.3330 C.ar  314  TYR314     -0.0201
    198  CD1        3.8080   15.3040   14.5850 C.ar  314  TYR314     -0.0009
    199  CD2        3.1240   13.4710   13.2250 C.ar  314  TYR314     -0.0009
    200  CE1        3.8170   14.4770   15.7070 C.ar  314  TYR314      0.0417
    201  CE2        3.1350   12.6340   14.3370 C.ar  314  TYR314      0.0417
    202  CZ         3.4750   13.1400   15.5790 C.ar  314  TYR314      0.1957
    203  OH         3.4480   12.3050   16.6750 O.3   314  TYR314     -0.2866
@<TRIPOS>BOND
     1    57    56    1
     2    56    55    1
     3    55    54    1
     4    54    53    1
     5    53    50    1
     6    40    39    1
     7    35    34    2
     8    29    30    1
     9    29    28    1
    10    50    49    1
    11    50    51    1
    12    39    38    1
    13    49    43   am
    14    30    31    1
    15    38    37    1
    16    28    27    1
    17    27    24    1
    18    36    37    1
    19    36    33    1
    20    34    33    1
    21    34    41   am
    22    47    46    2
    23    51    58   am
    24    51    52    2
    25    43    42    1
    26    43    44    2
    27    42    41    1
    28    42    45    1
    29    63    62    1
    30    32    33    1
    31    32    25   am
    32    58    59    1
    33   195   194    2
    34    46    45    1
    35    46    48   am
    36    24    25    1
    37    24    23    1
    38    25    26    2
    39    90    89    1
    40   194   193    1
    41   126   125    2
    42    62    59    1
    43    85    86    1
    44    59    60    1
    45   125   124    1
    46    23    17   am
    47    61    60    2
    48   196   193    1
    49   196   197    1
    50   193   192    1
    51    89    86    1
    52    89    91    1
    53    86    87    1
    54   188   187    2
    55    60    64   am
    56    18    17    2
    57    17    16    1
    58   124   123    1
    59   187   186    1
    60   199   197   ar
    61   199   201   ar
    62   197   198   ar
    63    87    88    2
    64    64    65    1
    65   189   186    1
    66   189   190    1
    67   123   118   am
    68    69    68    1
    69    16    15    1
    70    16    19    1
    71   186   185    1
    72   201   202   ar
    73   198   200   ar
    74   121   120    1
    75    65    68    1
    76    65    66    1
    77   118   119    2
    78   118   117    1
    79   103   102    1
    80   190   191    1
    81    68    70    1
    82    19    20    1
    83   101   102   ar
    84   101    99   ar
    85   185   191    1
    86   185   177   am
    87   202   200   ar
    88   202   203    1
    89   120   117    1
    90   120   122    1
    91   102   100   ar
    92   117   116    1
    93    66    67    2
    94    66    71   am
    95   178   177    2
    96    11    10    2
    97   177   176    1
    98    99    97   ar
    99    22    20    1
   100    71    72    1
   101    20    21    1
   102    77    75    1
   103    76    75    1
   104   100    98   ar
   105   116   106   am
   106   107   106    2
   107    10     9    1
   108    92    93    1
   109    75    72    1
   110    97    98   ar
   111    97    96    1
   112   179   176    1
   113   179   180    1
   114    72    73    1
   115   176   175    1
   116   106   105    1
   117   132   131    1
   118   132   133    1
   119    93    96    1
   120    93    94    1
   121   131   128    1
   122    74    73    2
   123   175   169   am
   124   133   127    1
   125     9    12    1
   126     9     8    1
   127    73    78   am
   128   180   182   ar
   129   180   181   ar
   130   105   108    1
   131   105   104    1
   132   143   144   ar
   133   143   141   ar
   134   182   184   ar
   135   169   170    2
   136   169   168    1
   137    12    13    1
   138   108   109    1
   139     8    14    1
   140    94    95    2
   141   144   142   ar
   142   181   183   ar
   143   128   127    1
   144   128   129    1
   145   171   168    1
   146   171   172    1
   147    78    79    1
   148   168   167    1
   149   174   172    1
   150   141   139   ar
   151   130   129    2
   152     5     2    1
   153     5     6    1
   154   184   183   ar
   155     2     3    1
   156     2     1    1
   157   172   173    1
   158    13    14    1
   159   109   110   ar
   160   109   111   ar
   161     3     4    2
   162   142   140   ar
   163     6     7    1
   164    79    80    1
   165    79    82    1
   166    83    82    1
   167   110   112   ar
   168   139   140   ar
   169   139   138    1
   170    80    81    2
   171   111   113   ar
   172     1     7    1
   173    82    84    1
   174   134   135    1
   175   138   135    1
   176   112   114   ar
   177   135   136    1
   178   113   114   ar
   179   165   166   ar
   180   165   163   ar
   181   137   136    2
   182   114   115    1
   183   166   164   ar
   184   163   160   ar
   185   136   145   am
   186   164   162   ar
   187   160   162   ar
   188   160   158   ar
   189   162   161   ar
   190   158   157    1
   191   158   159   ar
   192   157   154    1
   193   161   159   ar
   194   145   146    1
   195   156   155    2
   196   151   150    1
   197   153   154    1
   198   153   147   am
   199   154   155    1
   200   146   147    1
   201   146   149    1
   202   147   148    2
   203   150   149    1
   204   150   152    1
