@<TRIPOS>MOLECULE
tmp/3taoA00.pdb
 102 96 0 0 0
SMALL
GASTEIGER

@<TRIPOS>ATOM
      1  N        -20.3230    5.7780   18.3920 N.3     9  ASN9       -0.1240
      2  CA       -19.3040    6.6690   17.8510 C.3     9  ASN9        0.1653
      3  C        -19.5600    8.0930   18.3130 C.2     9  ASN9        0.2266
      4  O        -20.4270    8.8090   17.7830 O.2     9  ASN9       -0.2867
      5  CB       -19.2800    6.5870   16.3270 C.3     9  ASN9        0.1155
      6  CG       -18.2510    7.5090   15.7090 C.2     9  ASN9        0.2627
      7  OD1      -17.3760    8.0430   16.3820 O.2     9  ASN9       -0.2716
      8  ND2      -18.3060    7.6390   14.3870 N.am    9  ASN9       -0.0877
      9  N        -17.7370   10.6130   17.8670 N.3    11  LYS11      -0.1245
     10  CA       -17.1090   11.5820   16.9590 C.3    11  LYS11       0.1561
     11  C        -16.2970   12.5970   17.7770 C.2    11  LYS11       0.2260
     12  O        -15.7610   12.2200   18.8230 O.2    11  LYS11      -0.2867
     13  CB       -18.1230   12.2050   15.9870 C.3    11  LYS11       0.0271
     14  CG       -18.9640   11.1340   15.2820 C.3    11  LYS11       0.0035
     15  CD       -19.8180   11.7250   14.1750 C.3    11  LYS11       0.0206
     16  CE       -20.5610   10.5710   13.5380 C.3    11  LYS11       0.1093
     17  NZ       -21.3720   11.0250   12.3620 N.3    11  LYS11      -0.1314
     18  N        -14.2950    5.3370    8.3630 N.3    99  HIS99      -0.1241
     19  CA       -15.5120    6.1120    8.5390 C.3    99  HIS99       0.1621
     20  C        -15.6420    7.0970    7.3760 C.2    99  HIS99       0.2264
     21  O        -14.6310    7.6650    6.9270 O.2    99  HIS99      -0.2867
     22  CB       -15.4930    6.8800    9.8630 C.3    99  HIS99       0.0745
     23  CG       -16.8330    7.4150   10.2240 C.ar   99  HIS99       0.0817
     24  ND1      -17.3290    8.5850    9.6900 N.ar   99  HIS99      -0.2268
     25  CD2      -17.8150    6.9130   11.0110 C.ar   99  HIS99       0.1154
     26  CE1      -18.5570    8.7850   10.1370 C.ar   99  HIS99       0.1986
     27  NE2      -18.8710    7.7910   10.9440 N.ar   99  HIS99      -0.2212
     28  N        -22.7730    2.1300    6.4920 N.3   171  GLU171     -0.1245
     29  CA       -23.0550    3.5280    6.7940 C.3   171  GLU171      0.1567
     30  C        -23.6120    4.1950    5.5600 C.2   171  GLU171      0.2260
     31  O        -22.8030    4.8360    4.8970 O.2   171  GLU171     -0.2867
     32  CB       -21.6830    4.2310    6.9250 C.3   171  GLU171      0.0388
     33  CG       -21.1460    4.7430    8.2490 C.3   171  GLU171      0.1160
     34  CD       -20.0400    5.8110    8.0320 C.2   171  GLU171      0.3649
     35  OE1      -18.9180    5.4780    7.6200 O.co2 171  GLU171     -0.2457
     36  OE2      -20.3030    7.0070    8.2410 O.co2 171  GLU171     -0.2457
     37  N        -27.5870    8.7270    5.1730 N.3   175  ALA175     -0.1231
     38  CA       -28.2420    8.4610    6.4510 C.3   175  ALA175      0.1694
     39  C        -27.4700    8.9930    7.6480 C.2   175  ALA175      0.2592
     40  O        -27.9910    9.0040    8.7580 O.2   175  ALA175     -0.2718
     41  CB       -28.4880    6.9660    6.6160 C.3   175  ALA175      0.0304
     42  N        -26.2350    9.4250    7.4200 N.am  176  ILE176     -0.1966
     43  CA       -25.3680    9.8500    8.5180 C.3   176  ILE176      0.1727
     44  C        -25.6750   11.2800    8.9240 C.2   176  ILE176      0.2616
     45  O        -25.4250   12.2280    8.1600 O.2   176  ILE176     -0.2715
     46  CB       -23.8810    9.6720    8.1680 C.3   176  ILE176      0.0290
     47  CG1      -23.6170    8.2050    7.8410 C.3   176  ILE176      0.0022
     48  CG2      -22.9950   10.1470    9.3290 C.3   176  ILE176      0.0023
     49  CD1      -22.3370    8.0020    7.1240 C.3   176  ILE176      0.0001
     50  N        -26.2340   11.4220   10.1260 N.am  177  GLY177     -0.1955
     51  CA       -26.5280   12.7180   10.7290 C.3   177  GLY177      0.1869
     52  C        -27.6850   13.4920   10.1160 C.2   177  GLY177      0.2309
     53  O        -27.9410   14.6380   10.5040 O.2   177  GLY177     -0.2863
     54  N        -25.2900    1.6260   10.3290 N.3   215  GLY215     -0.1210
     55  CA       -25.2000    2.9670   10.9020 C.3   215  GLY215      0.1956
     56  C        -25.9180    3.9780   10.0540 C.2   215  GLY215      0.2612
     57  O        -25.9850    3.8250    8.8480 O.2   215  GLY215     -0.2717
     58  N        -26.4280    5.0230   10.6910 N.am  216  GLY216     -0.1942
     59  CA       -27.0670    6.1200    9.9810 C.3   216  GLY216      0.2014
     60  C        -28.4340    6.4230   10.5460 C.2   216  GLY216      0.2640
     61  O        -29.4290    5.8200   10.1390 O.2   216  GLY216     -0.2714
     62  N        -28.4690    7.3660   11.4830 N.am  217  SER217     -0.1935
     63  CA       -29.7000    7.8710   12.0990 C.3   217  SER217      0.2055
     64  C        -30.4880    6.8420   12.9280 C.2   217  SER217      0.2642
     65  O        -31.7140    6.9090   12.9820 O.2   217  SER217     -0.2714
     66  CB       -30.5960    8.5660   11.0580 C.3   217  SER217      0.2130
     67  OG       -29.9000    9.6250   10.4110 O.3   217  SER217     -0.2179
     68  N        -29.7800    5.9280   13.5980 N.am  218  VAL218     -0.1977
     69  CA       -30.3800    4.9500   14.5150 C.3   218  VAL218      0.1596
     70  C        -30.9630    5.6650   15.7470 C.2   218  VAL218      0.2287
     71  O        -30.2840    6.4930   16.3640 O.2   218  VAL218     -0.2864
     72  CB       -29.3220    3.8780   14.9200 C.3   218  VAL218      0.0276
     73  CG1      -29.8560    2.9290   15.9860 C.3   218  VAL218      0.0022
     74  CG2      -28.8700    3.0880   13.7070 C.3   218  VAL218      0.0022
     75  N        -23.8850    1.0100   14.6420 N.3   236  LEU236     -0.1231
     76  CA       -22.8110    1.9720   14.9240 C.3   236  LEU236      0.1693
     77  C        -23.5450    3.2920   15.0060 C.2   236  LEU236      0.2592
     78  O        -23.9780    3.8490   14.0010 O.2   236  LEU236     -0.2718
     79  CB       -21.7590    1.9780   13.8100 C.3   236  LEU236      0.0284
     80  CG       -20.5300    2.8780   14.0600 C.3   236  LEU236      0.0019
     81  CD1      -19.7890    2.5200   15.3680 C.3   236  LEU236      0.0001
     82  CD2      -19.5340    2.8340   12.8810 C.3   236  LEU236      0.0001
     83  N        -23.7160    3.7770   16.2340 N.am  237  VAL237     -0.1966
     84  CA       -24.6410    4.8650   16.5390 C.3   237  VAL237      0.1727
     85  C        -23.8650    6.1600   16.6450 C.2   237  VAL237      0.2617
     86  O        -22.8650    6.2180   17.3580 O.2   237  VAL237     -0.2715
     87  CB       -25.3580    4.5470   17.8850 C.3   237  VAL237      0.0290
     88  CG1      -26.3410    5.6370   18.2810 C.3   237  VAL237      0.0023
     89  CG2      -26.0660    3.1830   17.8000 C.3   237  VAL237      0.0023
     90  N        -24.3190    7.1990   15.9670 N.am  238  GLY238     -0.1940
     91  CA       -23.6780    8.5150   16.0620 C.3   238  GLY238      0.2014
     92  C        -24.2950    9.3900   17.1360 C.2   238  GLY238      0.2639
     93  O        -24.0360    9.2070   18.3280 O.2   238  GLY238     -0.2714
     94  N        -25.1520   10.3210   16.7280 N.am  239  GLY239     -0.1939
     95  CA       -25.7060   11.3310   17.6400 C.3   239  GLY239      0.2014
     96  C        -26.3610   10.8130   18.8970 C.2   239  GLY239      0.2638
     97  O        -26.1450   11.3750   19.9850 O.2   239  GLY239     -0.2714
     98  N        -27.1390    9.7400   18.7700 N.am  240  ALA240     -0.1977
     99  CA       -27.8180    9.1450   19.9320 C.3   240  ALA240      0.1597
    100  C        -26.8600    8.5630   20.9850 C.2   240  ALA240      0.2287
    101  O        -27.2760    8.3040   22.1280 O.2   240  ALA240     -0.2864
    102  CB       -28.8540    8.0910   19.4900 C.3   240  ALA240      0.0319
@<TRIPOS>BOND
     1    31    30    2
     2    37    38    1
     3    30    29    1
     4    38    41    1
     5    38    39    1
     6    28    29    1
     7    29    32    1
     8    32    33    1
     9    21    20    2
    10    49    47    1
    11    20    19    1
    12    42    39   am
    13    42    43    1
    14    35    34   ar
    15    39    40    2
    16    47    46    1
    17    34    36   ar
    18    34    33    1
    19    45    44    2
    20    46    43    1
    21    46    48    1
    22    18    19    1
    23    43    44    1
    24    19    22    1
    25    57    56    2
    26    44    50   am
    27    24    26   ar
    28    24    23   ar
    29    22    23    1
    30    59    60    1
    31    59    58    1
    32    56    58   am
    33    56    55    1
    34    52    53    2
    35    52    51    1
    36    50    51    1
    37    26    27   ar
    38    61    60    2
    39    23    25   ar
    40    54    55    1
    41    67    66    1
    42    60    62   am
    43    27    25   ar
    44    66    63    1
    45    62    63    1
    46    63    64    1
    47    17    16    1
    48    82    80    1
    49    64    65    2
    50    64    68   am
    51    16    15    1
    52    68    69    1
    53    74    72    1
    54    79    80    1
    55    79    76    1
    56    78    77    2
    57    80    81    1
    58    15    14    1
    59     8     6   am
    60    69    72    1
    61    69    70    1
    62    75    76    1
    63    72    73    1
    64    76    77    1
    65    77    83   am
    66    14    13    1
    67     6     5    1
    68     6     7    2
    69    70    71    2
    70    90    91    1
    71    90    85   am
    72    13    10    1
    73    91    92    1
    74    83    84    1
    75     5     2    1
    76    84    85    1
    77    84    87    1
    78    85    86    2
    79    94    92   am
    80    94    95    1
    81    10    11    1
    82    10     9    1
    83    92    93    2
    84    95    96    1
    85    11    12    2
    86     4     3    2
    87    89    87    1
    88     2     3    1
    89     2     1    1
    90    87    88    1
    91    98    96   am
    92    98    99    1
    93    96    97    2
    94   102    99    1
    95    99   100    1
    96   100   101    2
