@<TRIPOS>MOLECULE
tmp/3tasA01.pdb
 81 77 0 0 0
SMALL
GASTEIGER

@<TRIPOS>ATOM
      1  N        -25.9660    3.5460   55.2520 N.3    23  GLY23      -0.1210
      2  CA       -24.6220    4.0000   54.9420 C.3    23  GLY23       0.1956
      3  C        -24.1500    3.7380   53.5270 C.2    23  GLY23       0.2612
      4  O        -22.9580    3.5160   53.2960 O.2    23  GLY23      -0.2717
      5  N        -25.0740    3.7720   52.5750 N.am   24  GLY24      -0.1942
      6  CA       -24.7350    3.5140   51.1870 C.3    24  GLY24       0.2014
      7  C        -24.7080    2.0370   50.8570 C.2    24  GLY24       0.2638
      8  O        -24.4520    1.6420   49.7240 O.2    24  GLY24      -0.2714
      9  N        -24.9480    1.2150   51.8690 N.am   25  GLN25      -0.1977
     10  CA       -24.8770   -0.2370   51.7160 C.3    25  GLN25       0.1601
     11  C        -26.1480   -0.8820   51.1520 C.2    25  GLN25       0.2287
     12  O        -27.2360   -0.2960   51.2140 O.2    25  GLN25      -0.2864
     13  CB       -24.4310   -0.8710   53.0220 C.3    25  GLN25       0.0394
     14  CG       -23.0460   -0.3750   53.4280 C.3    25  GLN25       0.0908
     15  CD       -22.4300   -1.2150   54.5170 C.2    25  GLN25       0.2608
     16  OE1      -21.3270   -1.7350   54.3600 O.2    25  GLN25      -0.2717
     17  NE2      -23.1390   -1.3570   55.6310 N.am   25  GLN25      -0.0878
     18  N        -19.1710   -3.8410   46.2140 N.3   133  ARG133     -0.1231
     19  CA       -18.6110   -2.9520   47.2160 C.3   133  ARG133      0.1694
     20  C        -19.6780   -2.6690   48.2750 C.2   133  ARG133      0.2592
     21  O        -19.3660   -2.5910   49.4620 O.2   133  ARG133     -0.2718
     22  CB       -18.0980   -1.6520   46.5930 C.3   133  ARG133      0.0321
     23  CG       -17.5110   -0.6850   47.6100 C.3   133  ARG133      0.0489
     24  CD       -17.2480    0.6840   47.0100 C.3   133  ARG133      0.2205
     25  NE       -16.4330    0.6000   45.8040 N.pl3 133  ARG133     -0.0865
     26  CZ       -16.7890    1.1080   44.6270 C.cat 133  ARG133      0.5346
     27  NH1      -17.9480    1.7470   44.4950 N.pl3 133  ARG133      0.1354
     28  NH2      -15.9830    0.9810   43.5810 N.pl3 133  ARG133      0.1354
     29  N        -20.9350   -2.5420   47.8400 N.am  134  ASN134     -0.1974
     30  CA       -22.0340   -2.1370   48.7370 C.3   134  ASN134      0.1688
     31  C        -22.5290   -3.2390   49.6690 C.2   134  ASN134      0.2292
     32  O        -23.2360   -2.9590   50.6490 O.2   134  ASN134     -0.2864
     33  CB       -23.2230   -1.5650   47.9470 C.3   134  ASN134      0.1181
     34  CG       -22.9340   -0.1880   47.3580 C.2   134  ASN134      0.2629
     35  OD1      -21.9490    0.4600   47.7200 O.2   134  ASN134     -0.2716
     36  ND2      -23.7970    0.2630   46.4450 N.am  134  ASN134     -0.0877
     37  N        -12.5840   -6.0290   49.8040 N.3   160  ASP160     -0.1225
     38  CA       -11.5320   -5.0260   49.8480 C.3   160  ASP160      0.1805
     39  C        -10.8120   -5.1690   51.1890 C.2   160  ASP160      0.2597
     40  O        -10.2770   -6.2330   51.4920 O.2   160  ASP160     -0.2718
     41  CB       -12.0900   -3.6080   49.6370 C.3   160  ASP160      0.1424
     42  CG       -12.6010   -3.3790   48.2030 C.2   160  ASP160      0.3668
     43  OD1      -11.9500   -3.8470   47.2360 O.co2 160  ASP160     -0.2456
     44  OD2      -13.6650   -2.7410   48.0360 O.co2 160  ASP160     -0.2456
     45  N        -10.8320   -4.1020   51.9860 N.am  161  MET161     -0.1979
     46  CA       -10.1410   -4.0360   53.2790 C.3   161  MET161      0.1605
     47  C        -10.9990   -4.3880   54.4930 C.2   161  MET161      0.2287
     48  O        -10.5880   -4.1310   55.6210 O.2   161  MET161     -0.2864
     49  CB        -9.4970   -2.6550   53.4940 C.3   161  MET161      0.0413
     50  CG        -8.3920   -2.3360   52.5040 C.3   161  MET161      0.0598
     51  SD        -7.0100   -3.4830   52.6690 S.3   161  MET161     -0.1393
     52  CE        -6.3640   -2.9990   54.2740 C.3   161  MET161      0.0692
     53  N        -17.9400   -6.3350   55.2390 N.3   165  ASN165     -0.1240
     54  CA       -18.3040   -4.9110   55.2270 C.3   165  ASN165      0.1653
     55  C        -18.3770   -4.2390   56.5970 C.2   165  ASN165      0.2266
     56  O        -18.9530   -3.1550   56.7280 O.2   165  ASN165     -0.2867
     57  CB       -19.6420   -4.6890   54.4960 C.3   165  ASN165      0.1155
     58  CG       -19.4840   -4.6650   52.9880 C.2   165  ASN165      0.2627
     59  OD1      -18.7580   -5.4780   52.4170 O.2   165  ASN165     -0.2716
     60  ND2      -20.1510   -3.7120   52.3340 N.am  165  ASN165     -0.0877
     61  N        -10.7500   -5.4080   45.0770 N.3   191  GLU191     -0.1231
     62  CA        -9.5290   -5.0700   44.3760 C.3   191  GLU191      0.1699
     63  C         -8.2890   -5.8390   44.8090 C.2   191  GLU191      0.2592
     64  O         -7.3130   -5.8660   44.0670 O.2   191  GLU191     -0.2718
     65  CB        -9.2650   -3.5780   44.5900 C.3   191  GLU191      0.0402
     66  CG       -10.4200   -2.6980   44.1570 C.3   191  GLU191      0.1161
     67  CD       -10.6240   -2.7330   42.6500 C.2   191  GLU191      0.3649
     68  OE1       -9.6080   -2.8840   41.9170 O.co2 191  GLU191     -0.2457
     69  OE2      -11.7960   -2.6160   42.2050 O.co2 191  GLU191     -0.2457
     70  N         -8.3360   -6.5000   45.9680 N.am  192  TYR192     -0.1976
     71  CA        -7.0990   -6.9330   46.6360 C.3   192  TYR192      0.1639
     72  C         -6.9430   -8.4410   46.8310 C.2   192  TYR192      0.2290
     73  O         -7.9350   -9.1570   47.0360 O.2   192  TYR192     -0.2864
     74  CB        -6.9670   -6.2540   48.0060 C.3   192  TYR192      0.0560
     75  CG        -7.1290   -4.7530   47.9670 C.ar  192  TYR192     -0.0198
     76  CD1       -6.3690   -3.9750   47.1030 C.ar  192  TYR192     -0.0009
     77  CD2       -8.0520   -4.1160   48.7840 C.ar  192  TYR192     -0.0009
     78  CE1       -6.5130   -2.6020   47.0620 C.ar  192  TYR192      0.0417
     79  CE2       -8.2070   -2.7450   48.7530 C.ar  192  TYR192      0.0417
     80  CZ        -7.4330   -1.9900   47.8950 C.ar  192  TYR192      0.1957
     81  OH        -7.5880   -0.6190   47.8590 O.3   192  TYR192     -0.2866
@<TRIPOS>BOND
     1    68    67   ar
     2    69    67   ar
     3    67    66    1
     4    28    26    1
     5    64    63    2
     6    66    65    1
     7    62    65    1
     8    62    63    1
     9    62    61    1
    10    27    26    1
    11    26    25    2
    12    63    70   am
    13    25    24    1
    14    70    71    1
    15    18    19    1
    16    36    34   am
    17    22    19    1
    18    22    23    1
    19    71    72    1
    20    71    74    1
    21    72    73    2
    22    24    23    1
    23    78    76   ar
    24    78    80   ar
    25    76    75   ar
    26    19    20    1
    27    43    42   ar
    28    34    35    2
    29    34    33    1
    30    29    20   am
    31    29    30    1
    32    81    80    1
    33    80    79   ar
    34    33    30    1
    35    75    74    1
    36    75    77   ar
    37    44    42   ar
    38    42    41    1
    39    20    21    2
    40    30    31    1
    41    79    77   ar
    42    41    38    1
    43    31    32    2
    44     8     7    2
    45    37    38    1
    46    38    39    1
    47     7     6    1
    48     7     9   am
    49    11    12    2
    50    11    10    1
    51     6     5    1
    52    39    40    2
    53    39    45   am
    54    10     9    1
    55    10    13    1
    56    45    46    1
    57    60    58   am
    58    59    58    2
    59    50    51    1
    60    50    49    1
    61     5     3   am
    62    51    52    1
    63    58    57    1
    64    13    14    1
    65    46    49    1
    66    46    47    1
    67     4     3    2
    68    14    15    1
    69     3     2    1
    70    16    15    2
    71    47    48    2
    72    57    54    1
    73    15    17   am
    74     2     1    1
    75    54    53    1
    76    54    55    1
    77    55    56    2
