@<TRIPOS>MOLECULE
tmp/3tavA00.pdb
 100 100 0 0 0
SMALL
GASTEIGER

@<TRIPOS>ATOM
      1  N         41.7420   62.6380    5.1740 N.3    65  PHE65      -0.1241
      2  CA        40.7580   63.4740    5.8670 C.3    65  PHE65       0.1605
      3  C         40.0270   64.4080    4.8700 C.2    65  PHE65       0.2264
      4  O         38.9090   64.8560    5.1340 O.2    65  PHE65      -0.2867
      5  CB        41.4100   64.3240    6.9540 C.3    65  PHE65       0.0534
      6  CG        41.8860   63.5550    8.1760 C.ar   65  PHE65      -0.0203
      7  CD1       42.1180   62.1770    8.1470 C.ar   65  PHE65      -0.0042
      8  CD2       42.1930   64.2500    9.3380 C.ar   65  PHE65      -0.0042
      9  CE1       42.5750   61.5090    9.2800 C.ar   65  PHE65      -0.0003
     10  CE2       42.6380   63.5940   10.4830 C.ar   65  PHE65      -0.0003
     11  CZ        42.8380   62.2140   10.4490 C.ar   65  PHE65      -0.0000
     12  N         36.3900   64.0740    3.6700 N.3    68  TYR68      -0.1227
     13  CA        35.8770   62.9180    4.4060 C.3    68  TYR68       0.1736
     14  C         34.5790   63.2990    5.1580 C.2    68  TYR68       0.2595
     15  O         34.6190   64.0700    6.1150 O.2    68  TYR68      -0.2718
     16  CB        36.9470   62.3830    5.4000 C.3    68  TYR68       0.0548
     17  CG        36.5410   61.0890    6.0950 C.ar   68  TYR68      -0.0200
     18  CD1       36.3900   59.9060    5.3650 C.ar   68  TYR68      -0.0009
     19  CD2       36.2820   61.0540    7.4670 C.ar   68  TYR68      -0.0009
     20  CE1       36.0030   58.7260    5.9760 C.ar   68  TYR68       0.0417
     21  CE2       35.9140   59.8740    8.1030 C.ar   68  TYR68       0.0417
     22  CZ        35.7780   58.7170    7.3460 C.ar   68  TYR68       0.1957
     23  OH        35.4130   57.5460    7.9400 O.3    68  TYR68      -0.2866
     24  N         33.4310   62.7950    4.6980 N.am   69  HIS69      -0.1975
     25  CA        32.1270   63.2770    5.1810 C.3    69  HIS69       0.1656
     26  C         32.0920   64.7680    5.2150 C.2    69  HIS69       0.2291
     27  O         31.5910   65.3640    6.1580 O.2    69  HIS69      -0.2864
     28  CB        31.8010   62.6920    6.5610 C.3    69  HIS69       0.0771
     29  CG        31.6440   61.2010    6.5300 C.ar   69  HIS69       0.0820
     30  ND1       30.5660   60.6040    6.0000 N.ar   69  HIS69      -0.2267
     31  CD2       32.5040   60.1850    6.9020 C.ar   69  HIS69       0.1154
     32  CE1       30.7140   59.2710    6.0620 C.ar   69  HIS69       0.1986
     33  NE2       31.8980   59.0140    6.6030 N.ar   69  HIS69      -0.2212
     34  N         34.6360   66.9170    5.5580 N.3    71  PHE71      -0.1241
     35  CA        35.7170   67.6220    6.2670 C.3    71  PHE71       0.1605
     36  C         36.5900   68.4530    5.2940 C.2    71  PHE71       0.2264
     37  O         36.9070   67.9860    4.2170 O.2    71  PHE71      -0.2867
     38  CB        36.5070   66.6370    7.1600 C.3    71  PHE71       0.0534
     39  CG        37.4540   67.3170    8.0980 C.ar   71  PHE71      -0.0203
     40  CD1       36.9830   67.8980    9.2790 C.ar   71  PHE71      -0.0042
     41  CD2       38.8160   67.4270    7.7730 C.ar   71  PHE71      -0.0042
     42  CE1       37.8560   68.5720   10.1250 C.ar   71  PHE71      -0.0003
     43  CE2       39.6890   68.0800    8.6260 C.ar   71  PHE71      -0.0003
     44  CZ        39.2220   68.6570    9.7880 C.ar   71  PHE71      -0.0000
     45  N         43.2880   67.6280   11.3070 N.3    76  CYS76      -0.1235
     46  CA        42.5920   68.3670   12.3420 C.3    76  CYS76       0.1677
     47  C         43.6580   69.0500   13.1960 C.2    76  CYS76       0.2270
     48  O         44.7250   68.4610   13.4780 O.2    76  CYS76      -0.2867
     49  CB        41.7550   67.4420   13.2230 C.3    76  CYS76       0.0956
     50  SG        40.7210   66.2780   12.3110 S.3    76  CYS76      -0.0801
     51  N         39.0430   67.1440   15.8930 N.3    85  HIS85      -0.1241
     52  CA        38.3170   67.6700   14.7180 C.3    85  HIS85       0.1621
     53  C         38.3550   69.1710   14.5140 C.2    85  HIS85       0.2264
     54  O         37.5580   69.6910   13.7400 O.2    85  HIS85      -0.2867
     55  CB        36.8640   67.1260   14.6290 C.3    85  HIS85       0.0745
     56  CG        36.7500   65.6140   14.7660 C.ar   85  HIS85       0.0817
     57  ND1       35.5830   64.9920   15.0330 N.ar   85  HIS85      -0.2268
     58  CD2       37.7240   64.5930   14.6680 C.ar   85  HIS85       0.1154
     59  CE1       35.7800   63.6480   15.1030 C.ar   85  HIS85       0.1986
     60  NE2       37.0880   63.4030   14.8660 N.ar   85  HIS85      -0.2212
     61  N         46.1480   65.8740   14.0950 N.3   103  ASP103     -0.1239
     62  CA        45.6290   64.5630   13.7110 C.3   103  ASP103      0.1674
     63  C         45.6980   64.4770   12.1840 C.2   103  ASP103      0.2266
     64  O         45.3410   65.4360   11.4770 O.2   103  ASP103     -0.2867
     65  CB        44.1750   64.4500   14.2240 C.3   103  ASP103      0.1410
     66  CG        43.5860   63.0470   14.0910 C.2   103  ASP103      0.3668
     67  OD1       44.2300   62.0990   13.5800 O.co2 103  ASP103     -0.2456
     68  OD2       42.4330   62.8790   14.5140 O.co2 103  ASP103     -0.2456
     69  N         39.5210   54.2070    6.4570 N.3   189  MET189     -0.1230
     70  CA        40.0150   54.8600    7.6700 C.3   189  MET189      0.1702
     71  C         39.3500   54.3390    8.9420 C.2   189  MET189      0.2592
     72  O         40.0290   54.0670    9.9410 O.2   189  MET189     -0.2718
     73  CB        39.8110   56.3580    7.5800 C.3   189  MET189      0.0401
     74  CG        40.5690   57.1470    8.6460 C.3   189  MET189      0.0596
     75  SD        39.8490   58.7980    8.8860 S.3   189  MET189     -0.1393
     76  CE        39.6410   59.4480    7.2370 C.3   189  MET189      0.0692
     77  N         38.0240   54.1850    8.9040 N.am  190  HIS190     -0.1976
     78  CA        37.2560   53.7780   10.0940 C.3   190  HIS190      0.1656
     79  C         36.5860   52.4590    9.8620 C.2   190  HIS190      0.2291
     80  O         35.6800   52.3530    9.0480 O.2   190  HIS190     -0.2864
     81  CB        36.1870   54.8370   10.4310 C.3   190  HIS190      0.0771
     82  CG        36.7780   56.1250   10.9080 C.ar  190  HIS190      0.0820
     83  ND1       36.4260   57.3190   10.4020 N.ar  190  HIS190     -0.2267
     84  CD2       37.7350   56.3740   11.8760 C.ar  190  HIS190      0.1154
     85  CE1       37.1310   58.2880   11.0310 C.ar  190  HIS190      0.1986
     86  NE2       37.9300   57.7040   11.9260 N.ar  190  HIS190     -0.2212
     87  N         31.9880   70.5380   13.7240 N.3   233  TRP233     -0.1241
     88  CA        33.1350   69.6310   13.7810 C.3   233  TRP233      0.1605
     89  C         33.9030   69.7320   15.0570 C.2   233  TRP233      0.2264
     90  O         34.1560   68.7200   15.7060 O.2   233  TRP233     -0.2867
     91  CB        34.1010   69.9160   12.6340 C.3   233  TRP233      0.0550
     92  CG        33.5910   69.4190   11.3170 C.ar  233  TRP233      0.0003
     93  CD1       32.9390   70.1510   10.3150 C.ar  233  TRP233      0.0946
     94  CD2       33.6340   68.0460   10.8220 C.ar  233  TRP233      0.0152
     95  NE1       32.6180   69.3430    9.2560 N.ar  233  TRP233     -0.2442
     96  CE2       33.0020   68.0690    9.4960 C.ar  233  TRP233      0.0810
     97  CE3       34.1260   66.8450   11.3180 C.ar  233  TRP233      0.0012
     98  CZ2       32.8740   66.9290    8.7280 C.ar  233  TRP233      0.0191
     99  CZ3       33.9980   65.7030   10.5290 C.ar  233  TRP233      0.0001
    100  CH2       33.3830   65.7460    9.2640 C.ar  233  TRP233      0.0015
@<TRIPOS>BOND
     1    12    13    1
     2    37    36    2
     3    13    14    1
     4    13    16    1
     5    24    14   am
     6    24    25    1
     7     3     4    2
     8     3     2    1
     9    14    15    2
    10     1     2    1
    11    25    26    1
    12    25    28    1
    13    26    27    2
    14    36    35    1
    15    18    20   ar
    16    18    17   ar
    17    16    17    1
    18    34    35    1
    19     2     5    1
    20    20    22   ar
    21    30    32   ar
    22    30    29   ar
    23    32    33   ar
    24    17    19   ar
    25    35    38    1
    26    69    70    1
    27    29    28    1
    28    29    31   ar
    29    33    31   ar
    30     5     6    1
    31    38    39    1
    32    76    75    1
    33    22    23    1
    34    22    21   ar
    35    19    21   ar
    36    73    70    1
    37    73    74    1
    38    70    71    1
    39    41    39   ar
    40    41    43   ar
    41    39    40   ar
    42     7     6   ar
    43     7     9   ar
    44     6     8   ar
    45    43    44   ar
    46    74    75    1
    47    98   100   ar
    48    98    96   ar
    49    77    71   am
    50    77    78    1
    51    71    72    2
    52    80    79    2
    53    95    96   ar
    54    95    93   ar
    55   100    99   ar
    56    40    42   ar
    57     9    11   ar
    58     8    10   ar
    59    96    94   ar
    60    44    42   ar
    61    79    78    1
    62    78    81    1
    63    93    92   ar
    64    83    82   ar
    65    83    85   ar
    66    81    82    1
    67    11    10   ar
    68    99    97   ar
    69    94    92   ar
    70    94    97   ar
    71    82    84   ar
    72    85    86   ar
    73    45    46    1
    74    92    91    1
    75    64    63    2
    76    84    86   ar
    77    63    62    1
    78    50    49    1
    79    46    47    1
    80    46    49    1
    81    91    88    1
    82    47    48    2
    83    67    66   ar
    84    62    61    1
    85    62    65    1
    86    87    88    1
    87    54    53    2
    88    88    89    1
    89    66    65    1
    90    66    68   ar
    91    53    52    1
    92    55    52    1
    93    55    56    1
    94    58    56   ar
    95    58    60   ar
    96    52    51    1
    97    56    57   ar
    98    60    59   ar
    99    57    59   ar
   100    89    90    2
