@<TRIPOS>MOLECULE
tmp/3tayA00.pdb
 94 89 0 0 0
SMALL
GASTEIGER

@<TRIPOS>ATOM
      1  N        -24.3090   31.4600   19.1410 N.3    40  ARG40      -0.1245
      2  CA       -24.3000   32.1690   20.4060 C.3    40  ARG40       0.1563
      3  C        -23.1320   31.7130   21.2740 C.2    40  ARG40       0.2260
      4  O        -23.0970   30.5740   21.7450 O.2    40  ARG40      -0.2867
      5  CB       -25.6470   31.9830   21.1200 C.3    40  ARG40       0.0307
      6  CG       -25.9780   33.0330   22.1660 C.3    40  ARG40       0.0489
      7  CD       -26.0300   34.4550   21.6020 C.3    40  ARG40       0.2205
      8  NE       -27.3730   34.8700   21.1980 N.pl3  40  ARG40      -0.0865
      9  CZ       -27.7140   36.1260   20.9210 C.cat  40  ARG40       0.5346
     10  NH1      -26.8140   37.1000   21.0070 N.pl3  40  ARG40       0.1354
     11  NH2      -28.9570   36.4170   20.5660 N.pl3  40  ARG40       0.1354
     12  N        -21.2240   38.9360   23.8260 N.3    83  SER83      -0.1217
     13  CA       -21.9030   38.0380   22.9000 C.3    83  SER83       0.1889
     14  C        -21.2750   38.0910   21.5130 C.2    83  SER83       0.2288
     15  O        -21.0970   39.1720   20.9530 O.2    83  SER83      -0.2866
     16  CB       -23.3850   38.4240   22.8070 C.3    83  SER83       0.2089
     17  OG       -24.0240   37.8200   21.6920 O.3    83  SER83      -0.2183
     18  N        -21.9550   36.0550   17.6490 N.3    85  THR85      -0.1218
     19  CA       -23.0020   35.2700   16.9910 C.3    85  THR85       0.1862
     20  C        -22.4980   34.3320   15.8900 C.2    85  THR85       0.2287
     21  O        -23.2850   33.6030   15.2840 O.2    85  THR85      -0.2866
     22  CB       -24.1180   36.1810   16.4400 C.3    85  THR85       0.1770
     23  OG1      -23.5510   37.1280   15.5250 O.3    85  THR85      -0.2211
     24  CG2      -24.8010   36.9240   17.5780 C.3    85  THR85       0.0375
     25  N        -19.6800   41.7530   21.2660 N.3    92  THR92      -0.1218
     26  CA       -20.2510   43.0520   21.5980 C.3    92  THR92       0.1862
     27  C        -20.6890   43.0340   23.0610 C.2    92  THR92       0.2287
     28  O        -20.9100   41.9650   23.6310 O.2    92  THR92      -0.2866
     29  CB       -21.4370   43.4080   20.6840 C.3    92  THR92       0.1770
     30  OG1      -22.3530   42.3090   20.6380 O.3    92  THR92      -0.2211
     31  CG2      -20.9520   43.7150   19.2680 C.3    92  THR92       0.0375
     32  N        -23.2470   44.1050   26.2320 N.3    94  HIS94      -0.1226
     33  CA       -24.6770   44.2980   26.4820 C.3    94  HIS94       0.1752
     34  C        -25.0050   44.1720   27.9570 C.2    94  HIS94       0.2596
     35  O        -24.2810   43.5090   28.7080 O.2    94  HIS94      -0.2718
     36  CB       -25.5030   43.2500   25.7270 C.3    94  HIS94       0.0759
     37  CG       -25.1780   43.1550   24.2710 C.ar   94  HIS94       0.0818
     38  ND1      -25.7980   43.9340   23.3200 N.ar   94  HIS94      -0.2268
     39  CD2      -24.2890   42.3820   23.6060 C.ar   94  HIS94       0.1154
     40  CE1      -25.3070   43.6440   22.1290 C.ar   94  HIS94       0.1986
     41  NE2      -24.3900   42.7050   22.2750 N.ar   94  HIS94      -0.2212
     42  N        -26.1070   44.8080   28.3490 N.am   95  GLY95      -0.1957
     43  CA       -26.7480   44.5910   29.6450 C.3    95  GLY95       0.1869
     44  C        -25.8660   44.6670   30.8750 C.2    95  GLY95       0.2309
     45  O        -25.8810   43.7560   31.7080 O.2    95  GLY95      -0.2863
     46  N        -30.2580   37.3270   32.2350 N.3   115  THR115     -0.1218
     47  CA       -29.2970   37.8560   33.2020 C.3   115  THR115      0.1862
     48  C        -29.8950   39.1000   33.8670 C.2   115  THR115      0.2287
     49  O        -31.0320   39.4760   33.5690 O.2   115  THR115     -0.2866
     50  CB       -27.9360   38.2190   32.5450 C.3   115  THR115      0.1770
     51  OG1      -28.0940   39.3650   31.7020 O.3   115  THR115     -0.2211
     52  CG2      -27.3610   37.0630   31.7260 C.3   115  THR115      0.0375
     53  N        -29.5030   43.3200   34.7650 N.3   117  ASN117     -0.1240
     54  CA       -28.9000   44.5730   34.3180 C.3   117  ASN117      0.1653
     55  C        -29.4020   45.7680   35.1190 C.2   117  ASN117      0.2266
     56  O        -30.3480   45.6460   35.9030 O.2   117  ASN117     -0.2867
     57  CB       -29.0840   44.7940   32.8040 C.3   117  ASN117      0.1155
     58  CG       -30.5030   44.5190   32.3230 C.2   117  ASN117      0.2627
     59  OD1      -30.7120   43.7200   31.4080 O.2   117  ASN117     -0.2716
     60  ND2      -31.4780   45.1880   32.9220 N.am  117  ASN117     -0.0877
     61  N        -32.7800   40.9960   31.9910 N.3   126  GLY126     -0.1210
     62  CA       -32.6920   41.1200   30.5390 C.3   126  GLY126      0.1956
     63  C        -32.4410   39.7350   29.9720 C.2   126  GLY126      0.2612
     64  O        -32.2190   38.7900   30.7310 O.2   126  GLY126     -0.2717
     65  N        -32.4660   39.6010   28.6490 N.am  127  TYR127     -0.1962
     66  CA       -32.3230   38.2830   28.0300 C.3   127  TYR127      0.1771
     67  C        -31.6470   38.2880   26.6590 C.2   127  TYR127      0.2620
     68  O        -31.5440   39.3280   26.0040 O.2   127  TYR127     -0.2715
     69  CB       -33.6860   37.5810   27.9390 C.3   127  TYR127      0.0574
     70  CG       -34.6690   38.2600   27.0150 C.ar  127  TYR127     -0.0198
     71  CD1      -34.6590   37.9940   25.6460 C.ar  127  TYR127     -0.0009
     72  CD2      -35.6100   39.1660   27.5070 C.ar  127  TYR127     -0.0009
     73  CE1      -35.5570   38.6090   24.7900 C.ar  127  TYR127      0.0417
     74  CE2      -36.5170   39.7930   26.6500 C.ar  127  TYR127      0.0417
     75  CZ       -36.4780   39.5040   25.2910 C.ar  127  TYR127      0.1957
     76  OH       -37.3600   40.1000   24.4220 O.3   127  TYR127     -0.2866
     77  N        -31.1980   37.1060   26.2450 N.am  128  TYR128     -0.1960
     78  CA       -30.5670   36.8870   24.9480 C.3   128  TYR128      0.1771
     79  C        -31.1770   35.6420   24.3110 C.2   128  TYR128      0.2620
     80  O        -31.0500   34.5360   24.8450 O.2   128  TYR128     -0.2715
     81  CB       -29.0450   36.7300   25.1070 C.3   128  TYR128      0.0574
     82  CG       -28.4200   37.8810   25.8630 C.ar  128  TYR128     -0.0198
     83  CD1      -28.0150   39.0400   25.1980 C.ar  128  TYR128     -0.0009
     84  CD2      -28.2690   37.8290   27.2510 C.ar  128  TYR128     -0.0009
     85  CE1      -27.4610   40.1120   25.8930 C.ar  128  TYR128      0.0417
     86  CE2      -27.7220   38.8980   27.9550 C.ar  128  TYR128      0.0417
     87  CZ       -27.3190   40.0330   27.2700 C.ar  128  TYR128      0.1957
     88  OH       -26.7810   41.0940   27.9630 O.3   128  TYR128     -0.2866
     89  N        -31.8590   35.8320   23.1830 N.am  129  SER129     -0.1950
     90  CA       -32.4390   34.7160   22.4360 C.3   129  SER129      0.1924
     91  C        -31.3410   33.7730   21.9420 C.2   129  SER129      0.2314
     92  O        -30.3510   34.2100   21.3540 O.2   129  SER129     -0.2863
     93  CB       -33.2910   35.2290   21.2740 C.3   129  SER129      0.2116
     94  OG       -34.3700   36.0180   21.7490 O.3   129  SER129     -0.2180
@<TRIPOS>BOND
     1    21    20    2
     2    23    22    1
     3    20    19    1
     4    22    19    1
     5    22    24    1
     6    19    18    1
     7     1     2    1
     8    31    29    1
     9     2     5    1
    10     2     3    1
    11    11     9    1
    12    30    29    1
    13    29    26    1
    14     9    10    1
    15     9     8    2
    16    15    14    2
    17     5     6    1
    18     8     7    1
    19    25    26    1
    20    93    94    1
    21    93    90    1
    22     3     4    2
    23    92    91    2
    24    14    13    1
    25    26    27    1
    26     7     6    1
    27    17    16    1
    28    91    90    1
    29    40    41   ar
    30    40    38   ar
    31    41    39   ar
    32    90    89    1
    33    16    13    1
    34    13    12    1
    35    27    28    2
    36    89    79   am
    37    38    37   ar
    38    39    37   ar
    39    37    36    1
    40    79    80    2
    41    79    78    1
    42    76    75    1
    43    73    75   ar
    44    73    71   ar
    45    78    81    1
    46    78    77    1
    47    81    82    1
    48    83    82   ar
    49    83    85   ar
    50    75    74   ar
    51    71    70   ar
    52    36    33    1
    53    82    84   ar
    54    85    87   ar
    55    68    67    2
    56    32    33    1
    57    77    67   am
    58    33    34    1
    59    74    72   ar
    60    67    66    1
    61    70    72   ar
    62    70    69    1
    63    84    86   ar
    64    87    86   ar
    65    87    88    1
    66    69    66    1
    67    34    42   am
    68    34    35    2
    69    66    65    1
    70    42    43    1
    71    65    63   am
    72    43    44    1
    73    63    62    1
    74    63    64    2
    75    62    61    1
    76    44    45    2
    77    59    58    2
    78    51    50    1
    79    52    50    1
    80    46    47    1
    81    58    57    1
    82    58    60   am
    83    50    47    1
    84    57    54    1
    85    47    48    1
    86    49    48    2
    87    54    53    1
    88    54    55    1
    89    55    56    2
