@<TRIPOS>MOLECULE
tmp/3tayA01.pdb
 73 72 0 0 0
SMALL
GASTEIGER

@<TRIPOS>ATOM
      1  N        -18.7290   35.9490   42.4760 N.3    25  PRO25      -0.2102
      2  CA       -17.3400   36.1130   42.0520 C.3    25  PRO25       0.1504
      3  C        -16.4930   36.8760   43.0730 C.2    25  PRO25       0.2576
      4  O        -17.0330   37.5210   43.9700 O.2    25  PRO25      -0.2718
      5  CB       -17.4740   36.9210   40.7560 C.3    25  PRO25       0.0282
      6  CG       -18.6970   37.7380   40.9620 C.3    25  PRO25       0.0208
      7  CD       -19.6360   36.8390   41.7210 C.3    25  PRO25       0.0893
      8  N        -15.1770   36.7940   42.9230 N.am   26  THR26      -0.1939
      9  CA       -14.2390   37.4560   43.8270 C.3    26  THR26       0.2028
     10  C        -13.4960   38.5980   43.1330 C.2    26  THR26       0.2642
     11  O        -13.7520   39.7670   43.4140 O.2    26  THR26      -0.2714
     12  CB       -13.2180   36.4550   44.4120 C.3    26  THR26       0.1808
     13  OG1      -12.5870   35.7430   43.3390 O.3    26  THR26      -0.2208
     14  CG2      -13.9100   35.4630   45.3370 C.3    26  THR26       0.0379
     15  N        -12.5860   38.2580   42.2230 N.am   27  VAL27      -0.1963
     16  CA       -11.7540   39.2560   41.5420 C.3    27  VAL27       0.1727
     17  C        -12.2580   39.5490   40.1220 C.2    27  VAL27       0.2616
     18  O        -13.1550   38.8700   39.6280 O.2    27  VAL27      -0.2715
     19  CB       -10.2490   38.8510   41.5130 C.3    27  VAL27       0.0290
     20  CG1       -9.6680   38.8330   42.9230 C.3    27  VAL27       0.0023
     21  CG2      -10.0500   37.5040   40.8290 C.3    27  VAL27       0.0023
     22  N        -11.6820   40.5600   39.4770 N.am   28  GLU28      -0.1963
     23  CA       -12.0390   40.8960   38.0960 C.3    28  GLU28       0.1733
     24  C        -11.7040   39.7500   37.1430 C.2    28  GLU28       0.2617
     25  O        -10.7210   39.0370   37.3500 O.2    28  GLU28      -0.2715
     26  CB       -11.3540   42.1990   37.6490 C.3    28  GLU28       0.0429
     27  CG        -9.8170   42.1860   37.6420 C.3    28  GLU28       0.1163
     28  CD        -9.2110   41.5560   36.3910 C.2    28  GLU28       0.3649
     29  OE1       -9.8640   41.5610   35.3210 O.co2  28  GLU28      -0.2457
     30  OE2       -8.0660   41.0530   36.4800 O.co2  28  GLU28      -0.2457
     31  N        -12.5210   39.5810   36.1060 N.am   29  GLY29      -0.1940
     32  CA       -12.2730   38.5630   35.0830 C.3    29  GLY29       0.2014
     33  C        -13.5480   37.9770   34.5110 C.2    29  GLY29       0.2639
     34  O        -14.6030   38.6030   34.5750 O.2    29  GLY29      -0.2714
     35  N        -13.4440   36.7750   33.9460 N.am   30  VAL30      -0.1963
     36  CA       -14.5990   36.0690   33.3890 C.3    30  VAL30       0.1727
     37  C        -15.3450   35.3070   34.4830 C.2    30  VAL30       0.2616
     38  O        -14.7740   34.4360   35.1440 O.2    30  VAL30      -0.2715
     39  CB       -14.2030   35.0920   32.2540 C.3    30  VAL30       0.0290
     40  CG1      -15.4550   34.4940   31.6000 C.3    30  VAL30       0.0023
     41  CG2      -13.3350   35.7960   31.2130 C.3    30  VAL30       0.0023
     42  N        -16.6230   35.6430   34.6520 N.am   31  VAL31      -0.1977
     43  CA       -17.4960   35.0540   35.6780 C.3    31  VAL31       0.1596
     44  C        -18.0520   33.6980   35.2390 C.2    31  VAL31       0.2287
     45  O        -18.0190   32.7190   35.9900 O.2    31  VAL31      -0.2864
     46  CB       -18.6940   36.0010   36.0060 C.3    31  VAL31       0.0276
     47  CG1      -19.6650   35.3430   36.9940 C.3    31  VAL31       0.0022
     48  CG2      -18.2010   37.3250   36.5500 C.3    31  VAL31       0.0022
     49  N        -16.3210   40.7420   34.6270 N.3    46  LEU46      -0.1245
     50  CA       -16.4470   41.5980   35.8050 C.3    46  LEU46       0.1561
     51  C        -15.3190   42.6220   35.8540 C.2    46  LEU46       0.2260
     52  O        -14.1460   42.2670   35.7220 O.2    46  LEU46      -0.2867
     53  CB       -16.4490   40.7470   37.0770 C.3    46  LEU46       0.0270
     54  CG       -16.4980   41.4540   38.4350 C.3    46  LEU46       0.0019
     55  CD1      -17.7830   42.2830   38.5930 C.3    46  LEU46       0.0001
     56  CD2      -16.3720   40.4270   39.5540 C.3    46  LEU46       0.0001
     57  N        -16.8450   30.1580   36.6270 N.3   141  PHE141     -0.1227
     58  CA       -15.4860   30.3040   37.1390 C.3   141  PHE141      0.1736
     59  C        -15.4640   30.7660   38.5920 C.2   141  PHE141      0.2595
     60  O        -14.4040   31.0520   39.1470 O.2   141  PHE141     -0.2718
     61  CB       -14.6810   31.2420   36.2380 C.3   141  PHE141      0.0547
     62  CG       -14.5270   30.7290   34.8370 C.ar  141  PHE141     -0.0202
     63  CD1      -13.6260   29.7000   34.5560 C.ar  141  PHE141     -0.0042
     64  CD2      -15.3030   31.2450   33.8050 C.ar  141  PHE141     -0.0042
     65  CE1      -13.4890   29.2080   33.2610 C.ar  141  PHE141     -0.0003
     66  CE2      -15.1740   30.7620   32.5060 C.ar  141  PHE141     -0.0003
     67  CZ       -14.2650   29.7410   32.2330 C.ar  141  PHE141     -0.0000
     68  N        -16.6460   30.8190   39.2000 N.am  142  CYS142     -0.1970
     69  CA       -16.7900   31.1660   40.6120 C.3   142  CYS142      0.1712
     70  C        -17.8210   30.2620   41.2870 C.2   142  CYS142      0.2296
     71  O        -18.5190   29.4980   40.6150 O.2   142  CYS142     -0.2864
     72  CB       -17.1860   32.6380   40.7580 C.3   142  CYS142      0.0983
     73  SG       -18.7560   33.0770   39.9820 S.3   142  CYS142     -0.0798
@<TRIPOS>BOND
     1    41    39    1
     2    40    39    1
     3    67    66   ar
     4    67    65   ar
     5    39    36    1
     6    66    64   ar
     7    65    63   ar
     8    36    35    1
     9    36    37    1
    10    64    62   ar
    11    35    33   am
    12    37    42   am
    13    37    38    2
    14    33    34    2
    15    33    32    1
    16    63    62   ar
    17    49    50    1
    18    42    43    1
    19    62    61    1
    20    32    31    1
    21    44    43    1
    22    44    45    2
    23    29    28   ar
    24    43    46    1
    25    52    51    2
    26    50    51    1
    27    50    53    1
    28    46    48    1
    29    46    47    1
    30    31    24   am
    31    61    58    1
    32    28    30   ar
    33    28    27    1
    34    57    58    1
    35    53    54    1
    36    58    59    1
    37    24    25    2
    38    24    23    1
    39    27    26    1
    40    26    23    1
    41    23    22    1
    42    54    55    1
    43    54    56    1
    44    59    60    2
    45    59    68   am
    46    68    69    1
    47    22    17   am
    48    18    17    2
    49    73    72    1
    50    17    16    1
    51    69    72    1
    52    69    70    1
    53    71    70    2
    54     5     6    1
    55     5     2    1
    56    21    19    1
    57     6     7    1
    58    19    16    1
    59    19    20    1
    60    16    15    1
    61     7     1    1
    62     2     1    1
    63     2     3    1
    64    15    10   am
    65     8     3   am
    66     8     9    1
    67     3     4    2
    68    10    11    2
    69    10     9    1
    70    13    12    1
    71     9    12    1
    72    12    14    1
