@<TRIPOS>MOLECULE
tmp/3tazB00.pdb
 126 121 0 0 0
SMALL
GASTEIGER

@<TRIPOS>ATOM
      1  N         64.8980   71.5840   97.6690 N.3    96  ARG96      -0.1245
      2  CA        63.9150   72.1970   98.5600 C.3    96  ARG96       0.1563
      3  C         64.2890   71.9910  100.0270 C.2    96  ARG96       0.2260
      4  O         63.9510   72.8110  100.8850 O.2    96  ARG96      -0.2867
      5  CB        62.5380   71.6170   98.2820 C.3    96  ARG96       0.0307
      6  CG        61.3740   72.3900   98.8630 C.3    96  ARG96       0.0489
      7  CD        60.1380   72.1220   97.9940 C.3    96  ARG96       0.2205
      8  NE        60.2490   70.8150   97.3380 N.pl3  96  ARG96      -0.0865
      9  CZ        59.7460   70.5170   96.1430 C.cat  96  ARG96       0.5346
     10  NH1       59.9060   69.2960   95.6430 N.pl3  96  ARG96       0.1354
     11  NH2       59.0860   71.4380   95.4490 N.pl3  96  ARG96       0.1354
     12  N         64.8930   74.9120  102.4530 N.3   100  GLU100     -0.1245
     13  CA        64.2140   75.0040  103.7340 C.3   100  GLU100      0.1567
     14  C         65.2410   75.1730  104.8550 C.2   100  GLU100      0.2260
     15  O         65.0510   75.9760  105.7890 O.2   100  GLU100     -0.2867
     16  CB        63.4080   73.7290  103.9620 C.3   100  GLU100      0.0388
     17  CG        62.0910   73.6590  103.2290 C.3   100  GLU100      0.1160
     18  CD        61.0280   72.9950  104.0640 C.2   100  GLU100      0.3649
     19  OE1       59.9900   72.5950  103.4900 O.co2 100  GLU100     -0.2457
     20  OE2       61.2360   72.8820  105.3010 O.co2 100  GLU100     -0.2457
     21  N         66.4740   78.7130  105.2360 N.3   103  GLU103     -0.1245
     22  CA        65.4930   79.5010  105.9690 C.3   103  GLU103      0.1567
     23  C         65.6480   79.2220  107.4800 C.2   103  GLU103      0.2260
     24  O         65.9590   80.1350  108.2500 O.2   103  GLU103     -0.2867
     25  CB        64.0690   79.1940  105.4720 C.3   103  GLU103      0.0388
     26  CG        63.9010   79.2140  103.9450 C.3   103  GLU103      0.1160
     27  CD        62.4720   79.5220  103.4930 C.2   103  GLU103      0.3649
     28  OE1       61.5520   79.3740  104.3220 O.co2 103  GLU103     -0.2457
     29  OE2       62.2650   79.9170  102.3160 O.co2 103  GLU103     -0.2457
     30  N         57.7540   83.3430  109.3730 N.3   123  MET123     -0.1230
     31  CA        58.1800   82.4460  108.2850 C.3   123  MET123      0.1702
     32  C         57.1440   82.3900  107.1650 C.2   123  MET123      0.2592
     33  O         55.9730   82.6830  107.3900 O.2   123  MET123     -0.2718
     34  CB        58.4430   81.0380  108.8300 C.3   123  MET123      0.0401
     35  CG        59.5170   80.9880  109.9120 C.3   123  MET123      0.0596
     36  SD        61.1900   81.0820  109.2430 S.3   123  MET123     -0.1393
     37  CE        61.3530   79.4620  108.5030 C.3   123  MET123      0.0692
     38  N         57.5720   81.9670  105.9800 N.am  124  ASP124     -0.1960
     39  CA        56.7870   82.1240  104.7600 C.3   124  ASP124      0.1840
     40  C         55.8130   80.9970  104.4220 C.2   124  ASP124      0.2623
     41  O         55.2010   81.0250  103.3510 O.2   124  ASP124     -0.2715
     42  CB        57.7160   82.3070  103.5740 C.3   124  ASP124      0.1450
     43  CG        57.0080   82.8620  102.3950 C.2   124  ASP124      0.3671
     44  OD1       56.3070   83.8960  102.5820 O.co2 124  ASP124     -0.2456
     45  OD2       57.1400   82.2350  101.3020 O.co2 124  ASP124     -0.2456
     46  N         55.6550   80.0300  105.3300 N.am  125  GLY125     -0.1940
     47  CA        54.9430   78.7680  105.0830 C.3   125  GLY125      0.2014
     48  C         54.3640   78.1280  106.3510 C.2   125  GLY125      0.2639
     49  O         54.2270   78.7840  107.3800 O.2   125  GLY125     -0.2714
     50  N         53.9330   76.8760  106.2820 N.am  126  THR126     -0.1950
     51  CA        53.4220   76.2300  107.4890 C.3   126  THR126      0.1897
     52  C         54.4810   75.3940  108.2360 C.2   126  THR126      0.2313
     53  O         55.3090   74.6900  107.6360 O.2   126  THR126     -0.2863
     54  CB        52.1890   75.3550  107.1840 C.3   126  THR126      0.1794
     55  OG1       52.6050   74.0600  106.7230 O.3   126  THR126     -0.2208
     56  CG2       51.3280   76.0070  106.1240 C.3   126  THR126      0.0378
     57  N         53.5560   72.8900  110.1550 N.3   128  THR128     -0.1203
     58  CA        53.0140   71.5740  109.8630 C.3   128  THR128      0.1994
     59  C         53.6970   70.9790  108.6390 C.2   128  THR128      0.2618
     60  O         54.4810   70.0510  108.7820 O.2   128  THR128     -0.2717
     61  CB        51.4850   71.6130  109.6140 C.3   128  THR128      0.1784
     62  OG1       51.2050   72.2310  108.3500 O.3   128  THR128     -0.2211
     63  CG2       50.7760   72.3850  110.6970 C.3   128  THR128      0.0376
     64  N         53.4510   71.5500  107.4550 N.am  129  GLY129     -0.1942
     65  CA        53.8270   70.9370  106.1850 C.3   129  GLY129      0.2014
     66  C         55.2350   70.3490  106.1140 C.2   129  GLY129      0.2639
     67  O         55.4750   69.3330  105.4440 O.2   129  GLY129     -0.2714
     68  N         56.1760   71.0040  106.7870 N.am  130  SER130     -0.1949
     69  CA        57.5250   70.4720  106.9310 C.3   130  SER130      0.1924
     70  C         57.5720   69.1040  107.6270 C.2   130  SER130      0.2314
     71  O         58.0750   68.1380  107.0620 O.2   130  SER130     -0.2863
     72  CB        58.4180   71.4780  107.6760 C.3   130  SER130      0.2116
     73  OG        57.8170   71.9380  108.8790 O.3   130  SER130     -0.2180
     74  N         54.8910   65.7000  106.2130 N.3   133  ARG133     -0.1245
     75  CA        55.5900   64.9440  105.1780 C.3   133  ARG133      0.1563
     76  C         56.9800   65.5140  104.9010 C.2   133  ARG133      0.2260
     77  O         57.0930   66.5930  104.3090 O.2   133  ARG133     -0.2867
     78  CB        54.7720   64.8840  103.8910 C.3   133  ARG133      0.0307
     79  CG        53.4460   64.1500  104.0380 C.3   133  ARG133      0.0489
     80  CD        53.6510   62.6750  104.3710 C.3   133  ARG133      0.2205
     81  NE        52.4020   62.0220  104.7590 N.pl3 133  ARG133     -0.0865
     82  CZ        52.1600   60.7220  104.6140 C.cat 133  ARG133      0.5346
     83  NH1       53.0790   59.9270  104.0790 N.pl3 133  ARG133      0.1354
     84  NH2       50.9940   60.2180  104.9970 N.pl3 133  ARG133      0.1354
     85  N         60.2460   66.2630  102.9480 N.3   135  PRO135     -0.2116
     86  CA        60.4930   66.1010  101.5150 C.3   135  PRO135      0.1372
     87  C         61.4090   64.9100  101.3430 C.2   135  PRO135      0.2244
     88  O         61.9260   64.4030  102.3400 O.2   135  PRO135     -0.2868
     89  CB        61.2720   67.3610  101.1540 C.3   135  PRO135      0.0268
     90  CG        60.8770   68.3600  102.1620 C.3   135  PRO135      0.0207
     91  CD        60.5260   67.6260  103.4290 C.3   135  PRO135      0.0892
     92  N         54.6510   81.2440  111.8360 N.3   288  TYR288     -0.1241
     93  CA        54.5620   80.7020  110.4930 C.3   288  TYR288      0.1605
     94  C         53.3410   81.2770  109.8240 C.2   288  TYR288      0.2264
     95  O         52.2290   81.0990  110.3110 O.2   288  TYR288     -0.2867
     96  CB        54.4260   79.1840  110.5660 C.3   288  TYR288      0.0534
     97  CG        55.7410   78.4740  110.7510 C.ar  288  TYR288     -0.0201
     98  CD1       56.3810   77.8670  109.6760 C.ar  288  TYR288     -0.0009
     99  CD2       56.3550   78.4280  111.9930 C.ar  288  TYR288     -0.0009
    100  CE1       57.5930   77.2250  109.8350 C.ar  288  TYR288      0.0417
    101  CE2       57.5710   77.7990  112.1630 C.ar  288  TYR288      0.0417
    102  CZ        58.1890   77.1930  111.0840 C.ar  288  TYR288      0.1957
    103  OH        59.4050   76.5480  111.2500 O.3   288  TYR288     -0.2866
    104  N         48.1300   76.8650  102.2750 N.3   293  PHE293     -0.1227
    105  CA        48.5740   75.4830  102.3610 C.3   293  PHE293      0.1736
    106  C         47.3910   74.6090  101.9640 C.2   293  PHE293      0.2595
    107  O         46.2890   75.1090  101.7290 O.2   293  PHE293     -0.2718
    108  CB        49.0430   75.1430  103.7700 C.3   293  PHE293      0.0547
    109  CG        47.9550   75.1930  104.8020 C.ar  293  PHE293     -0.0202
    110  CD1       47.0150   76.2060  104.8010 C.ar  293  PHE293     -0.0042
    111  CD2       47.8740   74.2170  105.7750 C.ar  293  PHE293     -0.0042
    112  CE1       46.0210   76.2400  105.7470 C.ar  293  PHE293     -0.0003
    113  CE2       46.8800   74.2480  106.7190 C.ar  293  PHE293     -0.0003
    114  CZ        45.9520   75.2600  106.7030 C.ar  293  PHE293     -0.0000
    115  N         47.5960   73.3040  101.8930 N.am  294  TYR294     -0.1976
    116  CA        46.4570   72.4370  101.6550 C.3   294  TYR294      0.1639
    117  C         46.3180   71.4280  102.7780 C.2   294  TYR294      0.2290
    118  O         47.3000   71.0380  103.4170 O.2   294  TYR294     -0.2864
    119  CB        46.5100   71.7790  100.2710 C.3   294  TYR294      0.0560
    120  CG        47.6560   70.8220  100.0850 C.ar  294  TYR294     -0.0198
    121  CD1       47.5220   69.4830  100.4230 C.ar  294  TYR294     -0.0009
    122  CD2       48.8720   71.2540   99.5660 C.ar  294  TYR294     -0.0009
    123  CE1       48.5620   68.6000  100.2540 C.ar  294  TYR294      0.0417
    124  CE2       49.9210   70.3770   99.3920 C.ar  294  TYR294      0.0417
    125  CZ        49.7590   69.0490   99.7390 C.ar  294  TYR294      0.1957
    126  OH        50.7940   68.1610   99.5740 O.3   294  TYR294     -0.2866
@<TRIPOS>BOND
     1    11     9    1
     2    10     9    1
     3     9     8    2
     4     8     7    1
     5     1     2    1
     6     7     6    1
     7     5     2    1
     8     5     6    1
     9     2     3    1
    10   124   122   ar
    11   124   125   ar
    12   122   120   ar
    13   126   125    1
    14   125   123   ar
    15     3     4    2
    16   120   119    1
    17   120   121   ar
    18   123   121   ar
    19   119   116    1
    20    89    86    1
    21    89    90    1
    22    45    43   ar
    23    87    86    1
    24    87    88    2
    25    86    85    1
    26   116   115    1
    27   116   117    1
    28   107   106    2
    29   115   106   am
    30   106   105    1
    31    90    91    1
    32   104   105    1
    33    29    27   ar
    34   105   108    1
    35    43    44   ar
    36    43    42    1
    37    12    13    1
    38   117   118    2
    39    85    91    1
    40    17    16    1
    41    17    18    1
    42    41    40    2
    43    19    18   ar
    44    27    26    1
    45    27    28   ar
    46    42    39    1
    47    13    16    1
    48    13    14    1
    49   108   109    1
    50    78    79    1
    51    78    75    1
    52    26    25    1
    53    79    80    1
    54    18    20   ar
    55    83    82    1
    56    77    76    2
    57    80    81    1
    58    40    39    1
    59    40    46   am
    60    82    81    2
    61    82    84    1
    62    39    38    1
    63   110   109   ar
    64   110   112   ar
    65   109   111   ar
    66    14    15    2
    67    76    75    1
    68    47    46    1
    69    47    48    1
    70    75    74    1
    71    21    22    1
    72    67    66    2
    73    25    22    1
    74   112   114   ar
    75   111   113   ar
    76    22    23    1
    77    38    32   am
    78    66    65    1
    79    66    68   am
    80    56    54    1
    81    65    64    1
    82    50    48   am
    83    50    51    1
    84    48    49    2
    85   114   113   ar
    86    55    54    1
    87    68    69    1
    88    69    70    1
    89    69    72    1
    90    71    70    2
    91    32    33    2
    92    32    31    1
    93    54    51    1
    94    64    59   am
    95    23    24    2
    96    51    52    1
    97    53    52    2
    98    72    73    1
    99    31    34    1
   100    31    30    1
   101    62    61    1
   102    37    36    1
   103    59    60    2
   104    59    58    1
   105    34    35    1
   106    36    35    1
   107    61    58    1
   108    61    63    1
   109    98   100   ar
   110    98    97   ar
   111    94    95    2
   112    94    93    1
   113   100   102   ar
   114    58    57    1
   115    93    96    1
   116    93    92    1
   117    96    97    1
   118    97    99   ar
   119   102   103    1
   120   102   101   ar
   121    99   101   ar
