@<TRIPOS>MOLECULE
tmp/3tb4A00.pdb
 200 194 0 0 0
SMALL
GASTEIGER

@<TRIPOS>ATOM
      1  N         40.7770  -14.8800   20.8930 N.3     3  LYS3       -0.1231
      2  CA        41.7450  -15.5150   20.0210 C.3     3  LYS3        0.1693
      3  C         41.6730  -14.9690   18.6040 C.2     3  LYS3        0.2591
      4  O         42.6840  -14.9070   17.8990 O.2     3  LYS3       -0.2718
      5  CB        41.5380  -17.0290   20.0070 C.3     3  LYS3        0.0285
      6  CG        41.6660  -17.6920   21.3690 C.3     3  LYS3        0.0035
      7  CD        42.9710  -17.3330   22.0570 C.3     3  LYS3        0.0206
      8  CE        43.0480  -17.9320   23.4840 C.3     3  LYS3        0.1093
      9  NZ        44.2050  -17.3650   24.1270 N.3     3  LYS3       -0.1314
     10  N         40.4690  -14.6020   18.1820 N.am    4  ILE4       -0.1980
     11  CA        40.2440  -14.0190   16.8680 C.3     4  ILE4        0.1595
     12  C         39.9470  -12.5460   17.0340 C.2     4  ILE4        0.2287
     13  O         38.9320  -12.1800   17.6340 O.2     4  ILE4       -0.2864
     14  CB        39.0700  -14.6810   16.1500 C.3     4  ILE4        0.0276
     15  CG1       39.3540  -16.1660   15.8990 C.3     4  ILE4        0.0022
     16  CG2       38.8030  -13.9880   14.8060 C.3     4  ILE4        0.0022
     17  CD1       38.1650  -16.9690   15.3910 C.3     4  ILE4        0.0001
     18  N         26.3920  -23.9730    9.6150 N.3    32  HIS32      -0.1226
     19  CA        27.5430  -24.8130    9.8950 C.3    32  HIS32       0.1752
     20  C         28.2890  -24.4110   11.1620 C.2    32  HIS32       0.2596
     21  O         28.9140  -23.3570   11.2230 O.2    32  HIS32      -0.2718
     22  CB        28.4580  -24.7930    8.6630 C.3    32  HIS32       0.0759
     23  CG        29.7690  -25.5090    8.8300 C.ar   32  HIS32       0.0818
     24  ND1       30.8390  -24.9550    9.5010 N.ar   32  HIS32      -0.2268
     25  CD2       30.2200  -26.6760    8.3110 C.ar   32  HIS32       0.1154
     26  CE1       31.8760  -25.7690    9.4190 C.ar   32  HIS32       0.1986
     27  NE2       31.5330  -26.8150    8.6920 N.ar   32  HIS32      -0.2212
     28  N         28.2320  -25.3040   12.1470 N.am   33  ASP33      -0.1974
     29  CA        29.0170  -25.2320   13.3790 C.3    33  ASP33       0.1709
     30  C         28.8800  -23.9140   14.1360 C.2    33  ASP33       0.2293
     31  O         29.8540  -23.4400   14.7330 O.2    33  ASP33      -0.2864
     32  CB        30.5120  -25.4790   13.1350 C.3    33  ASP33       0.1436
     33  CG        30.8350  -26.9060   12.6620 C.2    33  ASP33       0.3671
     34  OD1       29.9210  -27.7410   12.5060 O.co2  33  ASP33      -0.2456
     35  OD2       32.0470  -27.1960   12.4660 O.co2  33  ASP33      -0.2456
     36  N         30.9980  -23.0440   21.4430 N.3    37  TYR37      -0.1227
     37  CA        32.4260  -23.3060   21.4860 C.3    37  TYR37       0.1736
     38  C         33.2070  -22.5010   20.4430 C.2    37  TYR37       0.2595
     39  O         34.2610  -21.9400   20.7240 O.2    37  TYR37      -0.2718
     40  CB        32.6690  -24.8130   21.2970 C.3    37  TYR37       0.0548
     41  CG        34.1150  -25.2380   21.4100 C.ar   37  TYR37      -0.0200
     42  CD1       34.9090  -25.3920   20.2840 C.ar   37  TYR37      -0.0009
     43  CD2       34.6770  -25.5310   22.6530 C.ar   37  TYR37      -0.0009
     44  CE1       36.2410  -25.8160   20.3930 C.ar   37  TYR37       0.0417
     45  CE2       35.9950  -25.9430   22.7730 C.ar   37  TYR37       0.0417
     46  CZ        36.7730  -26.0920   21.6410 C.ar   37  TYR37       0.1957
     47  OH        38.0900  -26.5070   21.7600 O.3    37  TYR37      -0.2866
     48  N         32.7310  -22.5190   19.2050 N.am   38  PHE38      -0.1976
     49  CA        33.4360  -21.8740   18.1040 C.3    38  PHE38       0.1639
     50  C         33.2680  -20.3600   18.1090 C.2    38  PHE38       0.2290
     51  O         34.1810  -19.6100   17.7490 O.2    38  PHE38      -0.2864
     52  CB        33.0340  -22.5170   16.7730 C.3    38  PHE38       0.0560
     53  CG        33.4480  -23.9420   16.7030 C.ar   38  PHE38      -0.0200
     54  CD1       34.7950  -24.2780   16.8190 C.ar   38  PHE38      -0.0042
     55  CD2       32.5040  -24.9500   16.6420 C.ar   38  PHE38      -0.0042
     56  CE1       35.1820  -25.5940   16.7960 C.ar   38  PHE38      -0.0003
     57  CE2       32.8820  -26.2470   16.6320 C.ar   38  PHE38      -0.0003
     58  CZ        34.2290  -26.5720   16.7250 C.ar   38  PHE38      -0.0000
     59  N         35.6880  -18.1070   20.4190 N.3    41  TYR41      -0.1241
     60  CA        37.0160  -17.6820   19.9740 C.3    41  TYR41       0.1605
     61  C         37.0300  -16.2180   19.5340 C.2    41  TYR41       0.2264
     62  O         38.0970  -15.6290   19.3910 O.2    41  TYR41      -0.2867
     63  CB        37.5490  -18.5930   18.8680 C.3    41  TYR41       0.0534
     64  CG        37.9880  -19.9340   19.4050 C.ar   41  TYR41      -0.0201
     65  CD1       37.0760  -20.9640   19.5660 C.ar   41  TYR41      -0.0009
     66  CD2       39.3100  -20.1730   19.7530 C.ar   41  TYR41      -0.0009
     67  CE1       37.4580  -22.1860   20.0570 C.ar   41  TYR41       0.0417
     68  CE2       39.7080  -21.4030   20.2450 C.ar   41  TYR41       0.0417
     69  CZ        38.7780  -22.4110   20.3720 C.ar   41  TYR41       0.1957
     70  OH        39.1580  -23.6320   20.8690 O.3    41  TYR41      -0.2866
     71  N         29.7040  -30.1980   16.0630 N.3    75  GLN75      -0.1245
     72  CA        30.7040  -31.1610   16.4930 C.3    75  GLN75       0.1566
     73  C         30.3250  -31.6700   17.8710 C.2    75  GLN75       0.2260
     74  O         29.9340  -30.8910   18.7540 O.2    75  GLN75      -0.2867
     75  CB        32.0860  -30.5150   16.4990 C.3    75  GLN75       0.0367
     76  CG        32.5020  -30.1280   15.0950 C.3    75  GLN75       0.0905
     77  CD        33.8570  -29.4800   15.0320 C.2    75  GLN75       0.2608
     78  OE1       34.7330  -29.7890   15.8300 O.2    75  GLN75      -0.2717
     79  NE2       34.0490  -28.5740   14.0620 N.am   75  GLN75      -0.0878
     80  N         34.6450  -36.3610   21.5170 N.3    79  GLN79      -0.1245
     81  CA        34.7550  -37.2420   20.3670 C.3    79  GLN79       0.1566
     82  C         35.7600  -38.3450   20.7140 C.2    79  GLN79       0.2260
     83  O         36.8630  -38.0820   21.2060 O.2    79  GLN79      -0.2867
     84  CB        35.1710  -36.4270   19.1270 C.3    79  GLN79       0.0367
     85  CG        34.9830  -37.1190   17.7430 C.3    79  GLN79       0.0905
     86  CD        35.3710  -36.2140   16.5470 C.2    79  GLN79       0.2608
     87  OE1       35.7170  -35.0480   16.7410 O.2    79  GLN79      -0.2717
     88  NE2       35.3330  -36.7630   15.3120 N.am   79  GLN79      -0.0878
     89  N         37.9990  -39.9040   16.1300 N.3    84  ARG84      -0.1245
     90  CA        38.4500  -38.5600   15.7630 C.3    84  ARG84       0.1563
     91  C         39.6950  -38.6100   14.8890 C.2    84  ARG84       0.2260
     92  O         39.9250  -37.7290   14.0540 O.2    84  ARG84      -0.2867
     93  CB        38.7350  -37.7620   17.0300 C.3    84  ARG84       0.0307
     94  CG        39.1710  -36.3470   16.8040 C.3    84  ARG84       0.0489
     95  CD        39.1370  -35.5750   18.1090 C.3    84  ARG84       0.2205
     96  NE        39.7580  -34.2570   18.0100 N.pl3  84  ARG84      -0.0865
     97  CZ        39.1600  -33.1590   17.5580 C.cat  84  ARG84       0.5346
     98  NH1       37.9180  -33.2020   17.0910 N.pl3  84  ARG84       0.1354
     99  NH2       39.8160  -32.0030   17.5490 N.pl3  84  ARG84       0.1354
    100  N         42.4130  -35.7450   13.1330 N.3    87  LEU87      -0.1245
    101  CA        42.0570  -34.4020   13.5920 C.3    87  LEU87       0.1561
    102  C         42.8100  -34.0250   14.8390 C.2    87  LEU87       0.2260
    103  O         43.1420  -32.8600   15.0540 O.2    87  LEU87      -0.2867
    104  CB        40.5560  -34.3030   13.8970 C.3    87  LEU87       0.0270
    105  CG        39.6730  -34.0100   12.6990 C.3    87  LEU87       0.0019
    106  CD1       38.2060  -34.1910   13.0940 C.3    87  LEU87       0.0001
    107  CD2       39.9170  -32.5970   12.1530 C.3    87  LEU87       0.0001
    108  N         44.4740  -30.3940   16.1000 N.3    91  TRP91      -0.1241
    109  CA        43.6230  -29.5670   16.9500 C.3    91  TRP91       0.1605
    110  C         43.5730  -30.0200   18.3980 C.2    91  TRP91       0.2264
    111  O         42.9870  -29.3320   19.2320 O.2    91  TRP91      -0.2867
    112  CB        42.1950  -29.5210   16.3900 C.3    91  TRP91       0.0550
    113  CG        42.1430  -29.0940   14.9590 C.ar   91  TRP91       0.0003
    114  CD1       41.9500  -29.8980   13.8890 C.ar   91  TRP91       0.0946
    115  CD2       42.2950  -27.7650   14.4520 C.ar   91  TRP91       0.0152
    116  NE1       41.9860  -29.1510   12.7270 N.ar   91  TRP91      -0.2442
    117  CE2       42.1750  -27.8370   13.0530 C.ar   91  TRP91       0.0810
    118  CE3       42.5250  -26.5220   15.0450 C.ar   91  TRP91       0.0012
    119  CZ2       42.2920  -26.7200   12.2380 C.ar   91  TRP91       0.0191
    120  CZ3       42.6140  -25.4020   14.2250 C.ar   91  TRP91       0.0001
    121  CH2       42.5010  -25.5150   12.8460 C.ar   91  TRP91       0.0015
    122  N         39.5830  -31.9250   21.0870 N.3    94  GLY94      -0.1210
    123  CA        38.2740  -31.4460   20.6420 C.3    94  GLY94       0.1956
    124  C         37.4670  -30.9350   21.8150 C.2    94  GLY94       0.2611
    125  O         37.9450  -30.8820   22.9340 O.2    94  GLY94      -0.2717
    126  N         36.2140  -30.5820   21.5800 N.am   95  LEU95      -0.1979
    127  CA        35.4420  -29.8800   22.5870 C.3    95  LEU95       0.1596
    128  C         34.8930  -30.8350   23.6220 C.2    95  LEU95       0.2287
    129  O         34.6010  -31.9910   23.3170 O.2    95  LEU95      -0.2864
    130  CB        34.3040  -29.0420   21.9820 C.3    95  LEU95       0.0297
    131  CG        33.6900  -29.3490   20.6250 C.3    95  LEU95       0.0022
    132  CD1       32.4450  -28.4700   20.4660 C.3    95  LEU95       0.0001
    133  CD2       34.6690  -29.1230   19.4650 C.3    95  LEU95       0.0001
    134  N         28.7470  -33.4860   13.2440 N.3   116  LYS116     -0.1245
    135  CA        29.8610  -33.0770   12.3940 C.3   116  LYS116      0.1561
    136  C         31.1190  -33.8110   12.8350 C.2   116  LYS116      0.2260
    137  O         31.6090  -33.5710   13.9540 O.2   116  LYS116     -0.2867
    138  CB        30.0430  -31.5660   12.5690 C.3   116  LYS116      0.0271
    139  CG        31.1160  -30.9500   11.7410 C.3   116  LYS116      0.0035
    140  CD        30.7300  -31.0280   10.2960 C.3   116  LYS116      0.0206
    141  CE        31.1300  -29.8050    9.5320 C.3   116  LYS116      0.1093
    142  NZ        32.5220  -29.2700    9.8440 N.3   116  LYS116     -0.1314
    143  N         34.0260  -34.3790   10.6250 N.3   118  ARG118     -0.1231
    144  CA        35.1900  -33.9620    9.8710 C.3   118  ARG118      0.1694
    145  C         34.9490  -32.5450    9.3640 C.2   118  ARG118      0.2592
    146  O         33.8850  -31.9640    9.6250 O.2   118  ARG118     -0.2718
    147  CB        35.3990  -34.9270    8.6940 C.3   118  ARG118      0.0321
    148  CG        35.6120  -36.3930    9.0670 C.3   118  ARG118      0.0489
    149  CD        36.9670  -36.5840    9.7120 C.3   118  ARG118      0.2205
    150  NE        37.3080  -37.9820    9.9480 N.pl3 118  ARG118     -0.0865
    151  CZ        37.1050  -38.6280   11.0860 C.cat 118  ARG118      0.5346
    152  NH1       36.4620  -38.0310   12.0960 N.pl3 118  ARG118      0.1354
    153  NH2       37.5040  -39.8910   11.1980 N.pl3 118  ARG118      0.1354
    154  N         35.9040  -32.0070    8.6150 N.am  119  TYR119     -0.1976
    155  CA        35.7540  -30.6570    8.0950 C.3   119  TYR119      0.1639
    156  C         34.5030  -30.5540    7.2120 C.2   119  TYR119      0.2290
    157  O         33.7320  -29.6010    7.3420 O.2   119  TYR119     -0.2864
    158  CB        36.9650  -30.2420    7.2630 C.3   119  TYR119      0.0560
    159  CG        38.2810  -30.1170    7.9940 C.ar  119  TYR119     -0.0198
    160  CD1       38.3430  -29.9240    9.3650 C.ar  119  TYR119     -0.0009
    161  CD2       39.4650  -30.1280    7.2880 C.ar  119  TYR119     -0.0009
    162  CE1       39.5740  -29.7620   10.0080 C.ar  119  TYR119      0.0417
    163  CE2       40.6780  -29.9940    7.9040 C.ar  119  TYR119      0.0417
    164  CZ        40.7330  -29.8000    9.2640 C.ar  119  TYR119      0.1957
    165  OH        41.9420  -29.6550    9.8960 O.3   119  TYR119     -0.2866
    166  N         34.1870  -22.2220   10.3130 N.3   145  TYR145     -0.1241
    167  CA        35.0550  -21.1490    9.8410 C.3   145  TYR145      0.1605
    168  C         35.2190  -21.2580    8.3180 C.2   145  TYR145      0.2264
    169  O         35.3530  -22.3600    7.7670 O.2   145  TYR145     -0.2867
    170  CB        36.4410  -21.2600   10.5110 C.3   145  TYR145      0.0534
    171  CG        36.3600  -21.2030   12.0320 C.ar  145  TYR145     -0.0201
    172  CD1       36.1930  -19.9890   12.7090 C.ar  145  TYR145     -0.0009
    173  CD2       36.4300  -22.3650   12.7950 C.ar  145  TYR145     -0.0009
    174  CE1       36.0940  -19.9410   14.0860 C.ar  145  TYR145      0.0417
    175  CE2       36.3310  -22.3240   14.1680 C.ar  145  TYR145      0.0417
    176  CZ        36.1560  -21.1180   14.8120 C.ar  145  TYR145      0.1957
    177  OH        36.0650  -21.1180   16.1970 O.3   145  TYR145     -0.2866
    178  N         37.9840  -23.5010    6.5440 N.3   148  ILE148     -0.1231
    179  CA        38.1230  -24.8970    6.9640 C.3   148  ILE148      0.1692
    180  C         36.8560  -25.6930    6.6100 C.2   148  ILE148      0.2592
    181  O         36.7540  -26.2170    5.5080 O.2   148  ILE148     -0.2718
    182  CB        38.4930  -25.0200    8.4650 C.3   148  ILE148      0.0266
    183  CG1       39.7780  -24.2270    8.7660 C.3   148  ILE148      0.0019
    184  CG2       38.6760  -26.4990    8.8390 C.3   148  ILE148      0.0020
    185  CD1       40.0860  -24.1000   10.2510 C.3   148  ILE148      0.0001
    186  N         35.8840  -25.7360    7.5220 N.am  149  GLY149     -0.1957
    187  CA        34.7150  -26.5650    7.3160 C.3   149  GLY149      0.1869
    188  C         33.7780  -26.0420    6.2350 C.2   149  GLY149      0.2309
    189  O         33.1620  -26.8170    5.4950 O.2   149  GLY149     -0.2863
    190  N         39.0460  -17.0160   10.9240 N.3   174  PHE174     -0.1241
    191  CA        40.1120  -16.6890   11.8690 C.3   174  PHE174      0.1605
    192  C         40.6170  -15.2600   11.6880 C.2   174  PHE174      0.2264
    193  O         41.2500  -14.7080   12.5980 O.2   174  PHE174     -0.2867
    194  CB        41.3320  -17.6060   11.6650 C.3   174  PHE174      0.0534
    195  CG        41.1440  -19.0350   12.1170 C.ar  174  PHE174     -0.0203
    196  CD1       39.9030  -19.5460   12.4690 C.ar  174  PHE174     -0.0042
    197  CD2       42.2580  -19.8890   12.1720 C.ar  174  PHE174     -0.0042
    198  CE1       39.7900  -20.8630   12.8950 C.ar  174  PHE174     -0.0003
    199  CE2       42.1290  -21.1920   12.5670 C.ar  174  PHE174     -0.0003
    200  CZ        40.9010  -21.6790   12.9450 C.ar  174  PHE174     -0.0000
@<TRIPOS>BOND
     1   189   188    2
     2   181   180    2
     3   188   187    1
     4   178   179    1
     5   180   179    1
     6   180   186   am
     7   179   182    1
     8   156   157    2
     9   156   155    1
    10   158   159    1
    11   158   155    1
    12   161   163   ar
    13   161   159   ar
    14   187   186    1
    15   169   168    2
    16   163   164   ar
    17   159   160   ar
    18   155   154    1
    19    25    27   ar
    20    25    23   ar
    21   168   167    1
    22   182   183    1
    23   182   184    1
    24   154   145   am
    25    22    23    1
    26    22    19    1
    27    27    26   ar
    28   147   148    1
    29   147   144    1
    30   183   185    1
    31    23    24   ar
    32   148   149    1
    33   164   165    1
    34   164   162   ar
    35   145   146    2
    36   145   144    1
    37   160   162   ar
    38    26    24   ar
    39   141   142    1
    40   141   140    1
    41    18    19    1
    42   149   150    1
    43   167   166    1
    44   167   170    1
    45   144   143    1
    46    19    20    1
    47   150   151    2
    48   140   139    1
    49   170   171    1
    50   190   191    1
    51   151   153    1
    52   151   152    1
    53    20    21    2
    54    20    28   am
    55   194   191    1
    56   194   195    1
    57   192   191    1
    58   192   193    2
    59   139   138    1
    60   171   172   ar
    61   171   173   ar
    62   195   197   ar
    63   195   196   ar
    64    28    29    1
    65   107   105    1
    66   197   199   ar
    67   119   121   ar
    68   119   117   ar
    69   135   138    1
    70   135   136    1
    71   135   134    1
    72    35    33   ar
    73   196   198   ar
    74    34    33   ar
    75   199   200   ar
    76    33    32    1
    77   105   106    1
    78   105   104    1
    79   172   174   ar
    80   116   117   ar
    81   116   114   ar
    82   173   175   ar
    83   136   137    2
    84   121   120   ar
    85   198   200   ar
    86   117   115   ar
    87   100   101    1
    88    32    29    1
    89    29    30    1
    90   101   104    1
    91   101   102    1
    92   114   113   ar
    93    92    91    2
    94    79    77   am
    95   174   176   ar
    96    30    31    2
    97   175   176   ar
    98   120   118   ar
    99   115   113   ar
   100   115   118   ar
   101    16    14    1
   102   176   177    1
   103   102   103    2
   104    91    90    1
   105   113   112    1
   106    77    76    1
   107    77    78    2
   108    76    75    1
   109    88    86   am
   110    17    15    1
   111    90    89    1
   112    90    93    1
   113    15    14    1
   114    71    72    1
   115   108   109    1
   116    14    11    1
   117   112   109    1
   118    72    75    1
   119    72    73    1
   120    86    87    2
   121    86    85    1
   122    57    55   ar
   123    57    58   ar
   124    55    53   ar
   125    53    52    1
   126    53    54   ar
   127    58    56   ar
   128    52    49    1
   129    56    54   ar
   130    94    93    1
   131    94    95    1
   132    11    12    1
   133    11    10    1
   134   109   110    1
   135    12    13    2
   136    98    97    1
   137    99    97    1
   138    97    96    2
   139    85    84    1
   140    51    50    2
   141    73    74    2
   142     4     3    2
   143    96    95    1
   144    49    50    1
   145    49    48    1
   146    10     3   am
   147   110   111    2
   148     3     2    1
   149    63    64    1
   150    63    60    1
   151    84    81    1
   152    48    38   am
   153    62    61    2
   154    64    65   ar
   155    64    66   ar
   156   133   131    1
   157    61    60    1
   158    65    67   ar
   159    66    68   ar
   160    60    59    1
   161     5     2    1
   162     5     6    1
   163     2     1    1
   164    67    69   ar
   165    68    69   ar
   166    42    44   ar
   167    42    41   ar
   168    81    82    1
   169    81    80    1
   170    69    70    1
   171    44    46   ar
   172    38    39    2
   173    38    37    1
   174   132   131    1
   175   131   130    1
   176   123   122    1
   177   123   124    1
   178    82    83    2
   179    40    41    1
   180    40    37    1
   181     6     7    1
   182    41    43   ar
   183    36    37    1
   184   126   124   am
   185   126   127    1
   186    46    47    1
   187    46    45   ar
   188   124   125    2
   189   130   127    1
   190     7     8    1
   191   127   128    1
   192    43    45   ar
   193   129   128    2
   194     8     9    1
