@<TRIPOS>MOLECULE
tmp/3tb5B00.pdb
 138 131 0 0 0
SMALL
GASTEIGER

@<TRIPOS>ATOM
      1  N          4.9050   44.3300   44.1280 N.3    57  GLN57      -0.1245
      2  CA         3.9880   44.3550   45.2760 C.3    57  GLN57       0.1566
      3  C          4.4800   45.2780   46.3440 C.2    57  GLN57       0.2260
      4  O          3.7300   45.6450   47.2100 O.2    57  GLN57      -0.2867
      5  CB         3.8220   42.9810   45.8760 C.3    57  GLN57       0.0367
      6  CG         2.9180   42.1190   45.1200 C.3    57  GLN57       0.0905
      7  CD         2.9660   40.6960   45.6220 C.2    57  GLN57       0.2608
      8  OE1        3.4930   39.8470   44.9460 O.2    57  GLN57      -0.2717
      9  NE2        2.4300   40.4310   46.8150 N.am   57  GLN57      -0.0878
     10  N          2.3740   48.5090   47.2020 N.3    60  TYR60      -0.1227
     11  CA         0.9800   48.4160   46.8290 C.3    60  TYR60       0.1736
     12  C          0.0670   48.4610   48.0670 C.2    60  TYR60       0.2595
     13  O          0.1230   47.5800   48.9140 O.2    60  TYR60      -0.2718
     14  CB         0.7360   47.1280   45.9980 C.3    60  TYR60       0.0548
     15  CG        -0.7170   46.9250   45.6680 C.ar   60  TYR60      -0.0200
     16  CD1       -1.3590   47.6900   44.6690 C.ar   60  TYR60      -0.0009
     17  CD2       -1.4690   45.9990   46.3680 C.ar   60  TYR60      -0.0009
     18  CE1       -2.7640   47.5060   44.3950 C.ar   60  TYR60       0.0417
     19  CE2       -2.8310   45.8130   46.1170 C.ar   60  TYR60       0.0417
     20  CZ        -3.4770   46.5610   45.1350 C.ar   60  TYR60       0.1957
     21  OH        -4.8440   46.3310   44.9390 O.3    60  TYR60      -0.2866
     22  N         -0.7520   49.5020   48.1950 N.am   61  GLU61      -0.1979
     23  CA        -1.5240   49.7440   49.3880 C.3    61  GLU61       0.1602
     24  C         -0.6830   49.5890   50.6540 C.2    61  GLU61       0.2287
     25  O         -1.1760   49.1490   51.6900 O.2    61  GLU61      -0.2864
     26  CB        -2.7520   48.8220   49.4250 C.3    61  GLU61       0.0415
     27  CG        -3.4460   48.7960   48.0520 C.3    61  GLU61       0.1163
     28  CD        -4.9180   48.4400   48.1080 C.2    61  GLU61       0.3649
     29  OE1       -5.2820   47.3410   48.5870 O.co2  61  GLU61      -0.2457
     30  OE2       -5.7280   49.2640   47.6320 O.co2  61  GLU61      -0.2457
     31  N         -1.9060   36.3640   51.1430 N.3    77  HIS77      -0.1241
     32  CA        -1.3250   37.5170   51.7470 C.3    77  HIS77       0.1621
     33  C         -0.6040   37.2650   53.0540 C.2    77  HIS77       0.2264
     34  O         -0.6070   38.1590   53.9390 O.2    77  HIS77      -0.2867
     35  CB        -2.4190   38.5700   51.9700 C.3    77  HIS77       0.0745
     36  CG        -2.9810   39.0900   50.6950 C.ar   77  HIS77       0.0817
     37  ND1       -4.2720   39.5380   50.5720 N.ar   77  HIS77      -0.2268
     38  CD2       -2.4210   39.1930   49.4640 C.ar   77  HIS77       0.1154
     39  CE1       -4.4760   39.9160   49.3210 C.ar   77  HIS77       0.1986
     40  NE2       -3.3710   39.7070   48.6340 N.ar   77  HIS77      -0.2212
     41  N          3.3730   33.9790   46.2230 N.3    94  ASP94      -0.1239
     42  CA         2.7760   34.9150   45.2800 C.3    94  ASP94       0.1674
     43  C          3.7990   36.0800   45.0260 C.2    94  ASP94       0.2266
     44  O          4.4350   36.5220   45.9390 O.2    94  ASP94      -0.2867
     45  CB         1.4420   35.4050   45.8990 C.3    94  ASP94       0.1410
     46  CG         0.7760   36.5200   45.0780 C.2    94  ASP94       0.3668
     47  OD1        0.6810   36.4300   43.8140 O.co2  94  ASP94      -0.2456
     48  OD2        0.3600   37.5090   45.7270 O.co2  94  ASP94      -0.2456
     49  N          4.8150   39.5440   41.9670 N.3    96  CYS96      -0.1235
     50  CA         4.4460   40.3360   40.8340 C.3    96  CYS96       0.1677
     51  C          5.7090   40.9920   40.3170 C.2    96  CYS96       0.2270
     52  O          6.5730   41.3800   41.0820 O.2    96  CYS96      -0.2867
     53  CB         3.4760   41.4260   41.2760 C.3    96  CYS96       0.0956
     54  SG         1.8330   40.7350   41.7790 S.3    96  CYS96      -0.0801
     55  N          1.7640   38.7580   37.2810 N.3   105  ASP105     -0.1239
     56  CA         1.3920   38.3050   38.6310 C.3   105  ASP105      0.1674
     57  C          1.3420   36.7660   38.5580 C.2   105  ASP105      0.2266
     58  O          0.7670   36.2260   37.5980 O.2   105  ASP105     -0.2867
     59  CB        -0.0220   38.7650   39.0540 C.3   105  ASP105      0.1410
     60  CG        -0.1710   40.2760   39.1480 C.2   105  ASP105      0.3668
     61  OD1        0.6890   40.9790   38.5460 O.co2 105  ASP105     -0.2456
     62  OD2       -1.1670   40.7660   39.8240 O.co2 105  ASP105     -0.2456
     63  N        -10.5900   37.5220   44.6410 N.3   166  VAL166     -0.1245
     64  CA       -10.9190   37.2100   43.2580 C.3   166  VAL166      0.1561
     65  C         -9.7510   37.5390   42.3250 C.2   166  VAL166      0.2260
     66  O         -8.8270   38.1840   42.7450 O.2   166  VAL166     -0.2867
     67  CB       -12.1640   38.0070   42.8290 C.3   166  VAL166      0.0252
     68  CG1      -13.4110   37.7530   43.7790 C.3   166  VAL166      0.0019
     69  CG2      -11.8590   39.4850   42.9370 C.3   166  VAL166      0.0019
     70  N         -8.2620   39.3180   38.6310 N.3   168  HIS168     -0.1241
     71  CA        -8.4230   40.7420   38.2760 C.3   168  HIS168      0.1621
     72  C         -7.6810   41.0990   37.0180 C.2   168  HIS168      0.2264
     73  O         -6.9580   40.2760   36.4550 O.2   168  HIS168     -0.2867
     74  CB        -7.9390   41.6490   39.4350 C.3   168  HIS168      0.0745
     75  CG        -6.6040   41.2360   39.9600 C.ar  168  HIS168      0.0817
     76  ND1       -5.4330   41.4470   39.2660 N.ar  168  HIS168     -0.2268
     77  CD2       -6.2660   40.5200   41.0500 C.ar  168  HIS168      0.1154
     78  CE1       -4.4240   40.8840   39.9110 C.ar  168  HIS168      0.1986
     79  NE2       -4.9090   40.3210   41.0030 N.ar  168  HIS168     -0.2212
     80  N         -0.7620   46.2240   39.3470 N.3   174  ILE174     -0.1231
     81  CA        -0.9130   44.8220   39.6700 C.3   174  ILE174      0.1692
     82  C         -2.3620   44.4040   39.9430 C.2   174  ILE174      0.2592
     83  O         -2.6550   43.2490   40.0570 O.2   174  ILE174     -0.2718
     84  CB        -0.0040   44.4060   40.8300 C.3   174  ILE174      0.0266
     85  CG1       -0.3610   45.1160   42.1590 C.3   174  ILE174      0.0019
     86  CG2        1.4250   44.7040   40.4390 C.3   174  ILE174      0.0020
     87  CD1        0.4300   44.5570   43.4060 C.3   174  ILE174      0.0001
     88  N         -3.2610   45.3540   40.0490 N.am  175  HIS175     -0.1976
     89  CA        -4.5910   45.0110   40.3990 C.3   175  HIS175      0.1656
     90  C         -5.5020   46.0060   39.7600 C.2   175  HIS175      0.2291
     91  O         -5.6100   47.0990   40.2490 O.2   175  HIS175     -0.2864
     92  CB        -4.7830   45.1000   41.9120 C.3   175  HIS175      0.0771
     93  CG        -6.0100   44.3930   42.4000 C.ar  175  HIS175      0.0820
     94  ND1       -5.9680   43.1330   42.9560 N.ar  175  HIS175     -0.2267
     95  CD2       -7.3170   44.7420   42.3490 C.ar  175  HIS175      0.1154
     96  CE1       -7.1980   42.7620   43.2800 C.ar  175  HIS175      0.1986
     97  NE2       -8.0360   43.7040   42.8780 N.ar  175  HIS175     -0.2212
     98  N         -6.8810   32.9230   39.5920 N.3   201  GLU201     -0.1245
     99  CA        -6.0390   32.5610   40.7490 C.3   201  GLU201      0.1567
    100  C         -6.8760   31.8980   41.9010 C.2   201  GLU201      0.2260
    101  O         -6.9460   32.4460   43.0310 O.2   201  GLU201     -0.2867
    102  CB        -5.3180   33.8150   41.2690 C.3   201  GLU201      0.0388
    103  CG        -6.2740   34.9950   41.5470 C.3   201  GLU201      0.1160
    104  CD        -5.4960   36.2650   41.9250 C.2   201  GLU201      0.3649
    105  OE1       -4.7700   36.2180   42.9350 O.co2 201  GLU201     -0.2457
    106  OE2       -5.6190   37.3190   41.2380 O.co2 201  GLU201     -0.2457
    107  N         -3.9790   41.9180   56.4840 N.3   218  TRP218     -0.1241
    108  CA        -3.6400   41.3680   55.1710 C.3   218  TRP218      0.1605
    109  C         -3.9710   39.8740   55.1160 C.2   218  TRP218      0.2264
    110  O         -4.6240   39.3760   54.2070 O.2   218  TRP218     -0.2867
    111  CB        -2.1260   41.5800   54.8870 C.3   218  TRP218      0.0550
    112  CG        -1.8040   42.9500   54.4660 C.ar  218  TRP218      0.0003
    113  CD1       -1.4120   44.0140   55.2710 C.ar  218  TRP218      0.0946
    114  CD2       -1.8460   43.4520   53.1220 C.ar  218  TRP218      0.0152
    115  NE1       -1.2420   45.1300   54.4860 N.ar  218  TRP218     -0.2442
    116  CE2       -1.4900   44.8140   53.1750 C.ar  218  TRP218      0.0810
    117  CE3       -2.1830   42.8740   51.8800 C.ar  218  TRP218      0.0012
    118  CZ2       -1.4600   45.6150   52.0540 C.ar  218  TRP218      0.0191
    119  CZ3       -2.1200   43.6400   50.7620 C.ar  218  TRP218      0.0001
    120  CH2       -1.7410   45.0120   50.8500 C.ar  218  TRP218      0.0015
    121  N         -3.4850   27.6710   46.3250 N.3   230  GLN230     -0.1245
    122  CA        -3.6590   28.5970   45.2260 C.3   230  GLN230      0.1566
    123  C         -2.6840   28.4020   44.0630 C.2   230  GLN230      0.2260
    124  O         -1.4820   28.2070   44.2970 O.2   230  GLN230     -0.2867
    125  CB        -3.4830   30.0230   45.7090 C.3   230  GLN230      0.0367
    126  CG        -3.8880   31.0920   44.6250 C.3   230  GLN230      0.0905
    127  CD        -3.7780   32.5440   45.1440 C.2   230  GLN230      0.2608
    128  OE1       -3.0290   32.8480   46.0700 O.2   230  GLN230     -0.2717
    129  NE2       -4.5210   33.4150   44.5410 N.am  230  GLN230     -0.0878
    130  N         -2.0250   30.4680   40.2100 N.3   232  GLU232     -0.1245
    131  CA        -2.3810   31.6570   39.4430 C.3   232  GLU232      0.1567
    132  C         -1.5970   31.7770   38.1360 C.2   232  GLU232      0.2260
    133  O         -0.4080   31.5280   38.1250 O.2   232  GLU232     -0.2867
    134  CB        -2.1910   32.8850   40.3050 C.3   232  GLU232      0.0388
    135  CG        -2.2430   34.2200   39.5490 C.3   232  GLU232      0.1160
    136  CD        -2.0810   35.4490   40.4850 C.2   232  GLU232      0.3649
    137  OE1       -2.5610   36.5800   40.1930 O.co2 232  GLU232     -0.2457
    138  OE2       -1.5740   35.2540   41.5730 O.co2 232  GLU232     -0.2457
@<TRIPOS>BOND
     1    73    72    2
     2    72    71    1
     3    55    56    1
     4    58    57    2
     5   133   132    2
     6   132   131    1
     7    71    70    1
     8    71    74    1
     9    61    60   ar
    10    57    56    1
    11    56    59    1
    12    59    60    1
    13    60    62   ar
    14    76    78   ar
    15    76    75   ar
    16    80    81    1
    17    74    75    1
    18   131   130    1
    19   131   134    1
    20   135   134    1
    21   135   136    1
    22    98    99    1
    23    81    82    1
    24    81    84    1
    25    90    91    2
    26    90    89    1
    27    78    79   ar
    28    82    88   am
    29    82    83    2
    30    75    77   ar
    31    88    89    1
    32   137   136   ar
    33    51    50    1
    34    51    52    2
    35    89    92    1
    36    86    84    1
    37   136   138   ar
    38    99   102    1
    39    99   100    1
    40    84    85    1
    41    50    53    1
    42    50    49    1
    43    79    77   ar
    44   106   104   ar
    45   102   103    1
    46    53    54    1
    47   103   104    1
    48   100   101    2
    49    92    93    1
    50   104   105   ar
    51    85    87    1
    52    65    66    2
    53    65    64    1
    54    95    93   ar
    55    95    97   ar
    56    93    94   ar
    57    67    69    1
    58    67    64    1
    59    67    68    1
    60    97    96   ar
    61    94    96   ar
    62    64    63    1
    63    47    46   ar
    64   123   124    2
    65   123   122    1
    66     1     2    1
    67    18    16   ar
    68    18    20   ar
    69   129   127   am
    70   126   127    1
    71   126   125    1
    72    16    15   ar
    73    21    20    1
    74     8     7    2
    75    43    42    1
    76    43    44    2
    77    46    48   ar
    78    46    45    1
    79     6     7    1
    80     6     5    1
    81    20    19   ar
    82   127   128    2
    83   122   125    1
    84   122   121    1
    85     2     5    1
    86     2     3    1
    87    42    45    1
    88    42    41    1
    89     7     9   am
    90    15    14    1
    91    15    17   ar
    92    14    11    1
    93    19    17   ar
    94     3     4    2
    95    11    10    1
    96    11    12    1
    97    30    28   ar
    98    27    28    1
    99    27    26    1
   100    12    22   am
   101    12    13    2
   102    28    29   ar
   103    22    23    1
   104    40    39   ar
   105    40    38   ar
   106    39    37   ar
   107    23    26    1
   108    23    24    1
   109    38    36   ar
   110    37    36   ar
   111    24    25    2
   112    36    35    1
   113   119   120   ar
   114   119   117   ar
   115   120   118   ar
   116    31    32    1
   117    32    35    1
   118    32    33    1
   119   117   114   ar
   120   118   116   ar
   121    33    34    2
   122   114   116   ar
   123   114   112   ar
   124   116   115   ar
   125   110   109    2
   126   112   111    1
   127   112   113   ar
   128   115   113   ar
   129   111   108    1
   130   109   108    1
   131   108   107    1
