@<TRIPOS>MOLECULE
tmp/3tbcC01.pdb
 81 76 0 0 0
SMALL
GASTEIGER

@<TRIPOS>ATOM
      1  N         39.9260    7.1280   43.8870 N.3    23  GLY23      -0.1225
      2  CA        41.0140    7.1090   44.8490 C.3    23  GLY23       0.1811
      3  C         42.3710    7.5290   44.3230 C.2    23  GLY23       0.2280
      4  O         43.4000    7.2370   44.9420 O.2    23  GLY23      -0.2866
      5  N         43.5560    6.5110   41.4570 N.3    25  GLN25      -0.1245
      6  CA        44.0030    5.4620   40.5410 C.3    25  GLN25       0.1566
      7  C         43.7120    5.7930   39.0730 C.2    25  GLN25       0.2260
      8  O         42.8260    6.5890   38.7550 O.2    25  GLN25      -0.2867
      9  CB        43.3860    4.1060   40.9140 C.3    25  GLN25       0.0367
     10  CG        43.5170    3.7580   42.3890 C.3    25  GLN25       0.0905
     11  CD        43.0440    2.3440   42.7330 C.2    25  GLN25       0.2608
     12  OE1       43.7740    1.5760   43.3620 O.2    25  GLN25      -0.2717
     13  NE2       41.8160    2.0080   42.3440 N.am   25  GLN25      -0.0878
     14  N         52.1730    3.3130   39.5310 N.3   133  ARG133     -0.1231
     15  CA        51.6310    3.2120   40.8770 C.3   133  ARG133      0.1694
     16  C         50.1020    3.3860   40.8560 C.2   133  ARG133      0.2592
     17  O         49.3790    2.7130   41.5910 O.2   133  ARG133     -0.2718
     18  CB        52.2980    4.2120   41.8310 C.3   133  ARG133      0.0321
     19  CG        51.7980    4.1070   43.2820 C.3   133  ARG133      0.0489
     20  CD        52.3430    5.2130   44.1850 C.3   133  ARG133      0.2205
     21  NE        53.7670    5.0330   44.4390 N.pl3 133  ARG133     -0.0865
     22  CZ        54.6900    5.9610   44.2010 C.cat 133  ARG133      0.5346
     23  NH1       54.3260    7.1490   43.7160 N.pl3 133  ARG133      0.1354
     24  NH2       55.9740    5.7060   44.4540 N.pl3 133  ARG133      0.1354
     25  N         49.6130    4.2680   39.9930 N.am  134  ASN134     -0.1974
     26  CA        48.1850    4.5140   39.9180 C.3   134  ASN134      0.1688
     27  C         47.3980    3.3750   39.2910 C.2   134  ASN134      0.2292
     28  O         46.1660    3.3660   39.3540 O.2   134  ASN134     -0.2864
     29  CB        47.9130    5.8090   39.1730 C.3   134  ASN134      0.1181
     30  CG        48.4460    7.0160   39.9090 C.2   134  ASN134      0.2629
     31  OD1       48.7040    6.9620   41.1190 O.2   134  ASN134     -0.2716
     32  ND2       48.6190    8.1170   39.1840 N.am  134  ASN134     -0.0877
     33  N         52.4340   -5.0140   42.6550 N.3   159  ASN159     -0.1225
     34  CA        52.7220   -3.6270   42.3560 C.3   159  ASN159      0.1785
     35  C         53.0750   -2.9090   43.6480 C.2   159  ASN159      0.2597
     36  O         52.2230   -2.7060   44.5160 O.2   159  ASN159     -0.2718
     37  CB        51.5260   -2.9690   41.6740 C.3   159  ASN159      0.1169
     38  CG        51.8440   -1.5640   41.1840 C.2   159  ASN159      0.2627
     39  OD1       52.9910   -1.2700   40.8290 O.2   159  ASN159     -0.2716
     40  ND2       50.8400   -0.6820   41.1880 N.am  159  ASN159     -0.0877
     41  N         54.3360   -2.5220   43.7750 N.am  160  ASP160     -0.1974
     42  CA        54.8670   -2.1930   45.0900 C.3   160  ASP160      0.1709
     43  C         54.4750   -3.2910   46.0910 C.2   160  ASP160      0.2293
     44  O         54.7800   -4.4680   45.8940 O.2   160  ASP160     -0.2864
     45  CB        54.3610   -0.8330   45.5710 C.3   160  ASP160      0.1436
     46  CG        54.9660    0.3250   44.7980 C.2   160  ASP160      0.3671
     47  OD1       56.0430    0.1370   44.1820 O.co2 160  ASP160     -0.2456
     48  OD2       54.3630    1.4260   44.8160 O.co2 160  ASP160     -0.2456
     49  N         51.3240   -4.0440   46.9320 N.3   162  THR162     -0.1218
     50  CA        49.9580   -4.4960   46.6700 C.3   162  THR162      0.1862
     51  C         49.8870   -5.5810   45.6050 C.2   162  THR162      0.2287
     52  O         50.7690   -5.6800   44.7430 O.2   162  THR162     -0.2866
     53  CB        49.0750   -3.3610   46.1130 C.3   162  THR162      0.1770
     54  OG1       49.5120   -3.0330   44.7840 O.3   162  THR162     -0.2211
     55  CG2       49.1180   -2.1330   47.0050 C.3   162  THR162      0.0375
     56  N         46.9520   -3.5970   42.8900 N.3   165  ASN165     -0.1225
     57  CA        46.5240   -2.3570   43.5410 C.3   165  ASN165      0.1785
     58  C         45.3720   -2.5130   44.5180 C.2   165  ASN165      0.2597
     59  O         44.6910   -1.5410   44.8370 O.2   165  ASN165     -0.2718
     60  CB        46.1590   -1.2890   42.5100 C.3   165  ASN165      0.1169
     61  CG        47.3720   -0.6040   41.9380 C.2   165  ASN165      0.2627
     62  OD1       48.1830   -1.2250   41.2450 O.2   165  ASN165     -0.2716
     63  ND2       47.5130    0.6820   42.2270 N.am  165  ASN165     -0.0877
     64  N         45.1690   -3.7200   45.0210 N.am  166  ARG166     -0.1966
     65  CA        44.1210   -3.9340   46.0050 C.3   166  ARG166      0.1714
     66  C         44.6000   -3.7360   47.4480 C.2   166  ARG166      0.2458
     67  O         45.7660   -3.9860   47.7790 O.2   166  ARG166     -0.2730
     68  CB        43.5180   -5.3170   45.8330 C.3   166  ARG166      0.0347
     69  CG        42.8410   -5.4860   44.5190 C.3   166  ARG166      0.0492
     70  CD        42.6280   -6.9360   44.2530 C.3   166  ARG166      0.2205
     71  NE        41.4610   -7.4490   44.9510 N.pl3 166  ARG166     -0.0865
     72  CZ        40.2750   -7.6160   44.3750 C.cat 166  ARG166      0.5346
     73  NH1       40.1090   -7.3030   43.0900 N.pl3 166  ARG166      0.1354
     74  NH2       39.2620   -8.1020   45.0830 N.pl3 166  ARG166      0.1354
     75  N         43.6840   -3.3010   48.3190 N.am  167  PRO167     -0.2727
     76  CA        43.9990   -3.1820   49.7460 C.3   167  PRO167      0.1402
     77  C         44.5330   -4.4990   50.2970 C.2   167  PRO167      0.2269
     78  O         44.1700   -5.5750   49.8230 O.2   167  PRO167     -0.2865
     79  CB        42.6360   -2.8990   50.3870 C.3   167  PRO167      0.0296
     80  CG        41.8010   -2.3610   49.2900 C.3   167  PRO167      0.0237
     81  CD        42.2760   -2.9880   48.0210 C.3   167  PRO167      0.0939
@<TRIPOS>BOND
     1     8     7    2
     2     7     6    1
     3    29    30    1
     4    29    26    1
     5    32    30   am
     6    27    28    2
     7    27    26    1
     8    14    15    1
     9    30    31    2
    10    26    25    1
    11    25    16   am
    12     6     9    1
    13     6     5    1
    14    39    38    2
    15    16    15    1
    16    16    17    2
    17    15    18    1
    18     9    10    1
    19    38    40   am
    20    38    37    1
    21    62    61    2
    22    37    34    1
    23    18    19    1
    24    61    63   am
    25    61    60    1
    26    13    11   am
    27    34    33    1
    28    34    35    1
    29    10    11    1
    30    60    57    1
    31    11    12    2
    32    56    57    1
    33    73    72    1
    34    19    20    1
    35    57    58    1
    36    35    41   am
    37    35    36    2
    38    23    22    1
    39    41    42    1
    40     1     2    1
    41    47    46   ar
    42    20    21    1
    43    22    21    2
    44    22    24    1
    45    70    69    1
    46    70    71    1
    47     3     2    1
    48     3     4    2
    49    72    71    2
    50    72    74    1
    51    58    59    2
    52    58    64   am
    53    69    68    1
    54    52    51    2
    55    54    53    1
    56    46    48   ar
    57    46    45    1
    58    64    65    1
    59    42    45    1
    60    42    43    1
    61    51    50    1
    62    68    65    1
    63    44    43    2
    64    65    66    1
    65    53    50    1
    66    53    55    1
    67    50    49    1
    68    66    67    2
    69    66    75   am
    70    81    75    1
    71    81    80    1
    72    75    76    1
    73    80    79    1
    74    76    77    1
    75    76    79    1
    76    78    77    2
