@<TRIPOS>MOLECULE
tmp/3tbdA00.pdb
 91 87 0 0 0
SMALL
GASTEIGER

@<TRIPOS>ATOM
      1  N         -2.9130   50.3280   14.1920 N.3    38  GLU38      -0.1231
      2  CA        -1.8860   51.4430   14.2210 C.3    38  GLU38       0.1684
      3  C         -1.1880   51.4700   12.8970 C.2    38  GLU38       0.2434
      4  O         -1.0930   50.4440   12.2050 O.2    38  GLU38      -0.2733
      5  CB        -0.9020   51.2250   15.4360 C.3    38  GLU38       0.0402
      6  CG        -1.7090   51.3980   16.7290 C.3    38  GLU38       0.1161
      7  CD        -0.9820   50.9390   18.0070 C.2    38  GLU38       0.3649
      8  OE1       -0.5490   49.7430   18.0950 O.co2  38  GLU38      -0.2457
      9  OE2       -0.8540   51.7940   18.9430 O.co2  38  GLU38      -0.2457
     10  N         -0.5720   52.6160   12.5140 N.am   39  PRO39      -0.2729
     11  CA        -0.4740   53.8700   13.2440 C.3    39  PRO39       0.1401
     12  C         -1.7900   54.6670   13.1060 C.2    39  PRO39       0.2269
     13  O         -2.6360   54.3370   12.2850 O.2    39  PRO39      -0.2865
     14  CB         0.7450   54.5660   12.5700 C.3    39  PRO39       0.0296
     15  CG         0.7690   54.0620   11.1660 C.3    39  PRO39       0.0237
     16  CD         0.2720   52.5630   11.3110 C.3    39  PRO39       0.0939
     17  N          2.4150   50.4920    5.8790 N.3   103  GLU103     -0.1231
     18  CA         2.6850   49.6070    7.0630 C.3   103  GLU103      0.1699
     19  C          1.5240   49.7620    8.0080 C.2   103  GLU103      0.2592
     20  O          1.0340   50.8800    8.2090 O.2   103  GLU103     -0.2718
     21  CB         4.0110   50.0480    7.7600 C.3   103  GLU103      0.0402
     22  CG         5.2350   49.7720    6.9060 C.3   103  GLU103      0.1161
     23  CD         6.5300   50.1730    7.6360 C.2   103  GLU103      0.3649
     24  OE1        6.4190   50.9260    8.5850 O.co2 103  GLU103     -0.2457
     25  OE2        7.6150   49.7800    7.2500 O.co2 103  GLU103     -0.2457
     26  N          0.9900   48.6310    8.5200 N.am  104  ALA104     -0.1966
     27  CA        -0.0490   48.7020    9.5120 C.3   104  ALA104      0.1728
     28  C          0.2570   47.5840   10.5400 C.2   104  ALA104      0.2613
     29  O          0.6780   46.4660   10.1620 O.2   104  ALA104     -0.2715
     30  CB        -1.4420   48.4500    8.8610 C.3   104  ALA104      0.0334
     31  N         -0.0470   47.8770   11.8160 N.am  105  ASN105     -0.2025
     32  CA         0.0330   46.8210   12.8860 C.3   105  ASN105      0.1374
     33  C         -1.3900   46.5550   13.3420 C.3   105  ASN105      0.2041
     34  O         -2.2130   47.4780   13.6940 O.3   105  ASN105     -0.2185
     35  CB         0.8070   47.3440   14.0940 C.3   105  ASN105      0.1128
     36  CG         2.3150   47.3840   13.8310 C.2   105  ASN105      0.2626
     37  OD1        2.8390   46.7500   12.8820 O.2   105  ASN105     -0.2716
     38  ND2        3.0050   48.1320   14.6540 N.am  105  ASN105     -0.0877
     39  N          3.5680   38.2500   15.1380 N.3   135  GLU135     -0.1245
     40  CA         4.2820   38.2630   16.4450 C.3   135  GLU135      0.1567
     41  C          3.3410   37.7950   17.5430 C.2   135  GLU135      0.2260
     42  O          2.1140   37.8560   17.3680 O.2   135  GLU135     -0.2867
     43  CB         4.8120   39.6800   16.7250 C.3   135  GLU135      0.0388
     44  CG         5.8540   40.0660   15.6550 C.3   135  GLU135      0.1160
     45  CD         6.2730   41.5500   15.7530 C.2   135  GLU135      0.3649
     46  OE1        5.4140   42.4070   15.9710 O.co2 135  GLU135     -0.2457
     47  OE2        7.4380   41.8450   15.5210 O.co2 135  GLU135     -0.2457
     48  N          7.4310   41.2400   23.0640 N.3   144  TRP144     -0.1241
     49  CA         6.9660   40.5860   21.8490 C.3   144  TRP144      0.1605
     50  C          8.0490   39.7040   21.2760 C.2   144  TRP144      0.2264
     51  O          9.2650   39.9780   21.5130 O.2   144  TRP144     -0.2867
     52  CB         6.5430   41.6630   20.8250 C.3   144  TRP144      0.0550
     53  CG         5.3070   42.3900   21.2410 C.ar  144  TRP144      0.0003
     54  CD1        5.2020   43.5370   22.0130 C.ar  144  TRP144      0.0946
     55  CD2        3.9700   41.9730   20.9570 C.ar  144  TRP144      0.0152
     56  NE1        3.8590   43.8360   22.2000 N.ar  144  TRP144     -0.2442
     57  CE2        3.1000   42.9170   21.5030 C.ar  144  TRP144      0.0810
     58  CE3        3.4510   40.9030   20.2330 C.ar  144  TRP144      0.0012
     59  CZ2        1.7030   42.8000   21.3880 C.ar  144  TRP144      0.0191
     60  CZ3        2.0910   40.7750   20.0980 C.ar  144  TRP144      0.0001
     61  CH2        1.2360   41.7180   20.6570 C.ar  144  TRP144      0.0015
     62  N          0.1370   39.8670   16.9710 N.3   236  ARG236     -0.1245
     63  CA         0.1870   41.1230   16.2280 C.3   236  ARG236      0.1563
     64  C          0.5420   40.8270   14.7890 C.2   236  ARG236      0.2260
     65  O          1.5120   40.1180   14.4990 O.2   236  ARG236     -0.2867
     66  CB         1.1780   42.1290   16.8640 C.3   236  ARG236      0.0307
     67  CG         1.3420   43.4390   15.9910 C.3   236  ARG236      0.0489
     68  CD         2.2230   44.5090   16.7550 C.3   236  ARG236      0.2205
     69  NE         1.4760   45.1170   17.8500 N.pl3 236  ARG236     -0.0865
     70  CZ         2.0190   45.7540   18.9010 C.cat 236  ARG236      0.5346
     71  NH1        3.3580   45.8380   19.0270 N.pl3 236  ARG236      0.1354
     72  NH2        1.2350   46.2700   19.8320 N.pl3 236  ARG236      0.1354
     73  N          2.1050   42.4490   11.8040 N.3   238  ARG238     -0.1245
     74  CA         2.9380   43.5950   11.4560 C.3   238  ARG238      0.1563
     75  C          2.9960   43.5330    9.9020 C.2   238  ARG238      0.2260
     76  O          3.7640   42.7560    9.2810 O.2   238  ARG238     -0.2867
     77  CB         4.2630   43.3980   12.1790 C.3   238  ARG238      0.0307
     78  CG         5.3010   44.4730   12.0410 C.3   238  ARG238      0.0489
     79  CD         6.3630   44.1630   13.1110 C.3   238  ARG238      0.2205
     80  NE         7.3620   45.1620   12.9990 N.pl3 238  ARG238     -0.0865
     81  CZ         8.2690   45.3880   13.9300 C.cat 238  ARG238      0.5346
     82  NH1        8.3160   44.6200   15.0250 N.pl3 238  ARG238      0.1354
     83  NH2        9.1210   46.3780   13.7510 N.pl3 238  ARG238      0.1354
     84  N          3.8510   44.7470    6.4000 N.3   240  LEU240     -0.1245
     85  CA         5.0040   45.6050    6.0180 C.3   240  LEU240      0.1561
     86  C          4.9560   46.0210    4.5440 C.2   240  LEU240      0.2260
     87  O          5.5900   47.0020    4.2090 O.2   240  LEU240     -0.2867
     88  CB         6.3450   44.8690    6.3060 C.3   240  LEU240      0.0270
     89  CG         6.6250   44.6880    7.8480 C.3   240  LEU240      0.0019
     90  CD1        7.8980   43.7620    8.1330 C.3   240  LEU240      0.0001
     91  CD2        6.7840   45.9920    8.5220 C.3   240  LEU240      0.0001
@<TRIPOS>BOND
     1    87    86    2
     2    86    85    1
     3    17    18    1
     4    85    88    1
     5    85    84    1
     6    88    89    1
     7    22    23    1
     8    22    21    1
     9    18    21    1
    10    18    19    1
    11    25    23   ar
    12    23    24   ar
    13    89    90    1
    14    89    91    1
    15    19    20    2
    16    19    26   am
    17    26    27    1
    18    30    27    1
    19    76    75    2
    20    27    28    1
    21    75    74    1
    22    29    28    2
    23    28    31   am
    24    15    16    1
    25    15    14    1
    26    16    10    1
    27    74    73    1
    28    74    77    1
    29    31    32    1
    30    78    77    1
    31    78    79    1
    32     4     3    2
    33    13    12    2
    34    10     3   am
    35    10    11    1
    36    14    11    1
    37    37    36    2
    38    32    33    1
    39    32    35    1
    40     3     2    1
    41    80    79    1
    42    80    81    2
    43    12    11    1
    44    33    34    1
    45    83    81    1
    46    36    35    1
    47    36    38   am
    48    81    82    1
    49     1     2    1
    50     2     5    1
    51    65    64    2
    52    64    63    1
    53    39    40    1
    54     5     6    1
    55    47    45   ar
    56    44    45    1
    57    44    43    1
    58    45    46   ar
    59    67    68    1
    60    67    66    1
    61    63    66    1
    62    63    62    1
    63    40    43    1
    64    40    41    1
    65     6     7    1
    66    68    69    1
    67    42    41    2
    68    69    70    2
    69     7     8   ar
    70     7     9   ar
    71    70    71    1
    72    70    72    1
    73    60    58   ar
    74    60    61   ar
    75    58    55   ar
    76    61    59   ar
    77    52    53    1
    78    52    49    1
    79    55    53   ar
    80    55    57   ar
    81    53    54   ar
    82    50    51    2
    83    50    49    1
    84    59    57   ar
    85    57    56   ar
    86    49    48    1
    87    54    56   ar
