@<TRIPOS>MOLECULE
tmp/3tbgC01.pdb
 180 170 0 0 0
SMALL
GASTEIGER

@<TRIPOS>ATOM
      1  N         16.9700    9.6090   72.9440 N.3    21  PHE21      -0.1241
      2  CA        17.5450   10.8860   72.5290 C.3    21  PHE21       0.1605
      3  C         18.9290   10.7480   71.8950 C.2    21  PHE21       0.2264
      4  O         19.5270   11.7380   71.4690 O.2    21  PHE21      -0.2867
      5  CB        17.6040   11.8330   73.7300 C.3    21  PHE21       0.0534
      6  CG        16.2550   12.1470   74.3140 C.ar   21  PHE21      -0.0203
      7  CD1       15.3480   12.9390   73.6150 C.ar   21  PHE21      -0.0042
      8  CD2       15.8780   11.6250   75.5490 C.ar   21  PHE21      -0.0042
      9  CE1       14.0830   13.2070   74.1360 C.ar   21  PHE21      -0.0003
     10  CE2       14.6140   11.8860   76.0790 C.ar   21  PHE21      -0.0003
     11  CZ        13.7150   12.6790   75.3700 C.ar   21  PHE21      -0.0000
     12  N         17.1580    9.3100   68.2850 N.3    24  THR24      -0.1218
     13  CA        15.7500    9.6720   68.1700 C.3    24  THR24       0.1862
     14  C         15.1380    9.2950   66.8250 C.2    24  THR24       0.2287
     15  O         14.0390    8.7420   66.7730 O.2    24  THR24      -0.2866
     16  CB        15.5470   11.1790   68.4010 C.3    24  THR24       0.1770
     17  OG1       16.0350   11.5290   69.7010 O.3    24  THR24      -0.2211
     18  CG2       14.0740   11.5370   68.3100 C.3    24  THR24       0.0375
     19  N         11.9830    6.9640   66.4500 N.3    28  PHE28      -0.1241
     20  CA        10.7440    7.4480   65.8450 C.3    28  PHE28       0.1605
     21  C         10.3060    6.5630   64.6780 C.2    28  PHE28       0.2264
     22  O          9.1190    6.4890   64.3610 O.2    28  PHE28      -0.2867
     23  CB        10.9120    8.8980   65.3820 C.3    28  PHE28       0.0534
     24  CG        10.6740    9.9140   66.4680 C.ar   28  PHE28      -0.0203
     25  CD1       10.7340    9.5480   67.8130 C.ar   28  PHE28      -0.0042
     26  CD2       10.4060   11.2410   66.1490 C.ar   28  PHE28      -0.0042
     27  CE1       10.5300   10.4880   68.8200 C.ar   28  PHE28      -0.0003
     28  CE2       10.2020   12.1900   67.1490 C.ar   28  PHE28      -0.0003
     29  CZ        10.2630   11.8130   68.4860 C.ar   28  PHE28      -0.0000
     30  N          6.9010   14.1950   76.1050 N.3    43  LEU43      -0.1245
     31  CA         8.3140   14.3730   76.4010 C.3    43  LEU43       0.1561
     32  C          8.4710   15.3920   77.5220 C.2    43  LEU43       0.2260
     33  O          8.4450   16.6060   77.2900 O.2    43  LEU43      -0.2867
     34  CB         9.0690   14.8230   75.1480 C.3    43  LEU43       0.0270
     35  CG         9.0280   13.8460   73.9640 C.3    43  LEU43       0.0019
     36  CD1        9.8190   14.4220   72.7960 C.3    43  LEU43       0.0001
     37  CD2        9.6020   12.4970   74.3790 C.3    43  LEU43       0.0001
     38  N          6.2340   18.4940   78.0470 N.3    46  THR46      -0.1218
     39  CA         5.6460   18.8320   76.7610 C.3    46  THR46       0.1862
     40  C          4.8580   17.7490   76.0410 C.2    46  THR46       0.2287
     41  O          5.3420   16.6330   75.8460 O.2    46  THR46      -0.2866
     42  CB         6.7310   19.3290   75.7750 C.3    46  THR46       0.1770
     43  OG1        7.6130   20.2420   76.4430 O.3    46  THR46      -0.2211
     44  CG2        6.0800   20.0340   74.5900 C.3    46  THR46       0.0375
     45  N          3.4960   16.1990   72.8040 N.3    48  VAL48      -0.1245
     46  CA         3.9680   16.2470   71.4300 C.3    48  VAL48       0.1561
     47  C          3.2230   15.3420   70.4610 C.2    48  VAL48       0.2260
     48  O          2.7360   14.2700   70.8280 O.2    48  VAL48      -0.2867
     49  CB         5.4740   15.8680   71.3720 C.3    48  VAL48       0.0252
     50  CG1        5.9550   15.8280   69.9390 C.3    48  VAL48       0.0019
     51  CG2        6.2930   16.8630   72.1720 C.3    48  VAL48       0.0019
     52  N         14.0920   33.0250   63.6230 N.3    90  PHE90      -0.1227
     53  CA        14.0960   31.5840   63.8310 C.3    90  PHE90       0.1736
     54  C         13.0960   31.0530   64.8530 C.2    90  PHE90       0.2595
     55  O         12.2790   30.1950   64.5380 O.2    90  PHE90      -0.2718
     56  CB        15.5090   31.1230   64.2160 C.3    90  PHE90       0.0547
     57  CG        15.7730   29.6690   63.9310 C.ar   90  PHE90      -0.0202
     58  CD1       16.0330   29.2390   62.6350 C.ar   90  PHE90      -0.0042
     59  CD2       15.7420   28.7270   64.9510 C.ar   90  PHE90      -0.0042
     60  CE1       16.2560   27.8840   62.3550 C.ar   90  PHE90      -0.0003
     61  CE2       15.9640   27.3660   64.6860 C.ar   90  PHE90      -0.0003
     62  CZ        16.2210   26.9450   63.3880 C.ar   90  PHE90      -0.0000
     63  N         13.1790   31.5300   66.0880 N.am   91  LEU91      -0.1980
     64  CA        12.2650   31.0660   67.1210 C.3    91  LEU91       0.1596
     65  C         11.1980   32.1030   67.4550 C.2    91  LEU91       0.2287
     66  O         10.4910   31.9740   68.4470 O.2    91  LEU91      -0.2864
     67  CB        13.0450   30.7020   68.3860 C.3    91  LEU91       0.0297
     68  CG        13.9540   29.4730   68.2910 C.3    91  LEU91       0.0022
     69  CD1       14.6420   29.2630   69.6110 C.3    91  LEU91       0.0001
     70  CD2       13.1430   28.2440   67.9270 C.3    91  LEU91       0.0001
     71  N         21.2660   23.6180   72.7170 N.3   186  GLU186     -0.1231
     72  CA        19.9140   23.4240   72.2150 C.3   186  GLU186      0.1699
     73  C         19.4000   22.0840   72.7220 C.2   186  GLU186      0.2593
     74  O         18.2160   21.7730   72.5960 O.2   186  GLU186     -0.2718
     75  CB        19.8990   23.4270   70.6860 C.3   186  GLU186      0.0402
     76  CG        20.1100   24.7930   70.0750 C.3   186  GLU186      0.1161
     77  CD        19.1310   25.8130   70.6060 C.2   186  GLU186      0.3649
     78  OE1       17.9470   25.4670   70.7920 O.co2 186  GLU186     -0.2457
     79  OE2       19.5410   26.9670   70.8220 O.co2 186  GLU186     -0.2457
     80  N         20.3070   21.2940   73.2910 N.am  187  SER187     -0.1938
     81  CA        19.9700   19.9780   73.8330 C.3   187  SER187      0.2055
     82  C         20.3550   19.9280   75.3090 C.2   187  SER187      0.2643
     83  O         21.1800   20.7160   75.7620 O.2   187  SER187     -0.2714
     84  CB        20.7350   18.8880   73.0780 C.3   187  SER187      0.2130
     85  OG        20.5920   19.0420   71.6790 O.3   187  SER187     -0.2179
     86  N         19.7660   18.9990   76.0560 N.am  188  GLY188     -0.1954
     87  CA        20.0950   18.8860   77.4690 C.3   188  GLY188      0.1869
     88  C         18.9010   19.0000   78.3940 C.2   188  GLY188      0.2309
     89  O         17.8560   19.5310   78.0150 O.2   188  GLY188     -0.2863
     90  N         18.0420   22.9830   80.0540 N.3   191  ARG191     -0.1231
     91  CA        17.1500   23.8750   79.3200 C.3   191  ARG191      0.1694
     92  C         15.6970   23.4340   79.4500 C.2   191  ARG191      0.2591
     93  O         14.7920   24.2690   79.5220 O.2   191  ARG191     -0.2718
     94  CB        17.5440   23.9500   77.8340 C.3   191  ARG191      0.0321
     95  CG        17.4610   22.6340   77.0880 C.3   191  ARG191      0.0489
     96  CD        17.6130   22.8350   75.5800 C.3   191  ARG191      0.2205
     97  NE        16.5510   23.6850   75.0390 N.pl3 191  ARG191     -0.0865
     98  CZ        16.7310   24.9260   74.6050 C.cat 191  ARG191      0.5346
     99  NH1       17.9360   25.4760   74.6380 N.pl3 191  ARG191      0.1354
    100  NH2       15.7000   25.6200   74.1430 N.pl3 191  ARG191      0.1354
    101  N         15.4720   22.1230   79.4860 N.am  192  GLU192     -0.1979
    102  CA        14.1170   21.5960   79.6140 C.3   192  GLU192      0.1602
    103  C         13.4880   22.0510   80.9300 C.2   192  GLU192      0.2287
    104  O         12.3390   22.5010   80.9650 O.2   192  GLU192     -0.2864
    105  CB        14.1330   20.0650   79.5590 C.3   192  GLU192      0.0415
    106  CG        14.6370   19.4770   78.2440 C.3   192  GLU192      0.1163
    107  CD        13.7320   19.8000   77.0620 C.2   192  GLU192      0.3649
    108  OE1       12.4950   19.6860   77.2140 O.co2 192  GLU192     -0.2457
    109  OE2       14.2580   20.1510   75.9800 O.co2 192  GLU192     -0.2457
    110  N         12.9530   25.9870   81.1440 N.3   195  ASN195     -0.1240
    111  CA        11.8480   26.3940   80.2870 C.3   195  ASN195      0.1653
    112  C         10.5010   26.0230   80.9060 C.2   195  ASN195      0.2266
    113  O          9.5310   26.7750   80.7910 O.2   195  ASN195     -0.2867
    114  CB        11.9840   25.7650   78.8960 C.3   195  ASN195      0.1155
    115  CG        13.0400   26.4530   78.0520 C.2   195  ASN195      0.2627
    116  OD1       13.0900   27.6810   77.9870 O.2   195  ASN195     -0.2716
    117  ND2       13.8820   25.6660   77.3950 N.am  195  ASN195     -0.0877
    118  N         14.5150   15.8680   62.2800 N.3   342  LEU342     -0.1231
    119  CA        13.2810   16.2500   62.9610 C.3   342  LEU342      0.1693
    120  C         12.9170   17.7140   62.7580 C.2   342  LEU342      0.2593
    121  O         12.0320   18.2370   63.4320 O.2   342  LEU342     -0.2718
    122  CB        13.4070   15.9480   64.4590 C.3   342  LEU342      0.0284
    123  CG        13.6820   14.4670   64.7450 C.3   342  LEU342      0.0019
    124  CD1       14.0370   14.2680   66.1990 C.3   342  LEU342      0.0001
    125  CD2       12.4510   13.6530   64.3600 C.3   342  LEU342      0.0001
    126  N         13.6040   18.3670   61.8280 N.am  343  GLY343     -0.1942
    127  CA        13.3340   19.7680   61.5350 C.3   343  GLY343      0.2014
    128  C         13.3490   20.7050   62.7310 C.2   343  GLY343      0.2639
    129  O         14.1830   20.5680   63.6190 O.2   343  GLY343     -0.2714
    130  N         12.4420   21.6810   62.7360 N.am  344  VAL344     -0.1963
    131  CA        12.3350   22.6340   63.8360 C.3   344  VAL344      0.1727
    132  C         10.8870   22.5280   64.3110 C.2   344  VAL344      0.2616
    133  O          9.9610   22.5060   63.4900 O.2   344  VAL344     -0.2715
    134  CB        12.6560   24.0790   63.3670 C.3   344  VAL344      0.0290
    135  CG1       12.5740   25.0490   64.5400 C.3   344  VAL344      0.0023
    136  CG2       14.0550   24.1280   62.7780 C.3   344  VAL344      0.0023
    137  N         10.6890   22.4420   65.6260 N.am  345  THR345     -0.1951
    138  CA         9.3420   22.2890   66.1710 C.3   345  THR345      0.1897
    139  C          8.4290   23.4650   65.9230 C.2   345  THR345      0.2313
    140  O          8.8540   24.6150   65.9120 O.2   345  THR345     -0.2863
    141  CB         9.3460   22.0440   67.7100 C.3   345  THR345      0.1794
    142  OG1       10.0800   23.0870   68.3540 O.3   345  THR345     -0.2208
    143  CG2        9.9700   20.7010   68.0470 C.3   345  THR345      0.0378
    144  N          2.9480   20.8330   70.6890 N.3   364  THR364     -0.1218
    145  CA         4.2030   20.9620   69.9660 C.3   364  THR364      0.1862
    146  C          4.1650   19.9590   68.8170 C.2   364  THR364      0.2287
    147  O          3.8270   18.7860   69.0050 O.2   364  THR364     -0.2866
    148  CB         5.4050   20.6500   70.8540 C.3   364  THR364      0.1770
    149  OG1        5.6140   21.7340   71.7670 O.3   364  THR364     -0.2211
    150  CG2        6.6540   20.4460   70.0050 C.3   364  THR364      0.0375
    151  N          6.1950   17.9630   65.8630 N.3   366  ILE366     -0.1245
    152  CA         7.5080   17.5690   65.3910 C.3   366  ILE366      0.1561
    153  C          7.3180   17.0640   63.9620 C.2   366  ILE366      0.2260
    154  O          6.6180   16.0800   63.7220 O.2   366  ILE366     -0.2867
    155  CB         8.1380   16.4460   66.2290 C.3   366  ILE366      0.0252
    156  CG1        8.4740   16.9560   67.6380 C.3   366  ILE366      0.0019
    157  CG2        9.4100   15.9410   65.5400 C.3   366  ILE366      0.0019
    158  CD1        9.2630   15.9440   68.4680 C.3   366  ILE366      0.0001
    159  N         23.9000   11.1110   65.0690 N.3   451  PHE451     -0.1241
    160  CA        22.8340   12.0060   65.4700 C.3   451  PHE451      0.1605
    161  C         23.1910   12.7990   66.7160 C.2   451  PHE451      0.2264
    162  O         23.6920   12.2510   67.7000 O.2   451  PHE451     -0.2867
    163  CB        21.5370   11.2430   65.7330 C.3   451  PHE451      0.0534
    164  CG        20.4230   12.1240   66.2200 C.ar  451  PHE451     -0.0203
    165  CD1       19.9180   13.1360   65.4070 C.ar  451  PHE451     -0.0042
    166  CD2       19.9170   11.9840   67.5090 C.ar  451  PHE451     -0.0042
    167  CE1       18.9280   13.9990   65.8690 C.ar  451  PHE451     -0.0003
    168  CE2       18.9250   12.8430   67.9820 C.ar  451  PHE451     -0.0003
    169  CZ        18.4300   13.8530   67.1590 C.ar  451  PHE451     -0.0000
    170  N         21.0350   16.0200   67.3450 N.3   453  PHE453     -0.1241
    171  CA        20.0990   17.0860   66.9990 C.3   453  PHE453      0.1605
    172  C         20.2030   17.1780   65.4780 C.2   453  PHE453      0.2264
    173  O         19.2320   16.9270   64.7690 O.2   453  PHE453     -0.2867
    174  CB        20.5190   18.4030   67.6570 C.3   453  PHE453      0.0534
    175  CG        19.4060   19.3940   67.7940 C.ar  453  PHE453     -0.0203
    176  CD1       18.8890   20.0380   66.6760 C.ar  453  PHE453     -0.0042
    177  CD2       18.8620   19.6730   69.0470 C.ar  453  PHE453     -0.0042
    178  CE1       17.8420   20.9490   66.8030 C.ar  453  PHE453     -0.0003
    179  CE2       17.8150   20.5820   69.1880 C.ar  453  PHE453     -0.0003
    180  CZ        17.3030   21.2230   68.0620 C.ar  453  PHE453     -0.0000
@<TRIPOS>BOND
     1   127   126    1
     2   127   128    1
     3   126   120   am
     4   118   119    1
     5    60    58   ar
     6    60    62   ar
     7    58    57   ar
     8   128   130   am
     9   128   129    2
    10   130   131    1
    11   120   119    1
    12   120   121    2
    13   136   134    1
    14   119   122    1
    15   134   131    1
    16   134   135    1
    17    62    61   ar
    18   133   132    2
    19    52    53    1
    20   154   153    2
    21    53    56    1
    22    53    54    1
    23   131   132    1
    24    57    56    1
    25    57    59   ar
    26   153   152    1
    27   132   137   am
    28   125   123    1
    29    22    21    2
    30   122   123    1
    31    55    54    2
    32    21    20    1
    33    61    59   ar
    34   123   124    1
    35   173   172    2
    36    54    63   am
    37   159   160    1
    38    23    20    1
    39    23    24    1
    40   152   151    1
    41   152   155    1
    42   165   167   ar
    43   165   164   ar
    44   160   163    1
    45   160   161    1
    46   172   171    1
    47   157   155    1
    48   137   138    1
    49   163   164    1
    50    20    19    1
    51   167   169   ar
    52   140   139    2
    53   139   138    1
    54    63    64    1
    55    26    24   ar
    56    26    28   ar
    57   138   141    1
    58   164   166   ar
    59   155   156    1
    60    24    25   ar
    61   176   178   ar
    62   176   175   ar
    63   161   162    2
    64    15    14    2
    65   178   180   ar
    66    14    13    1
    67   171   170    1
    68   171   174    1
    69    64    65    1
    70    64    67    1
    71    28    29   ar
    72   169   168   ar
    73    65    66    2
    74   166   168   ar
    75   156   158    1
    76   174   175    1
    77   141   143    1
    78   141   142    1
    79   175   177   ar
    80    25    27   ar
    81    70    68    1
    82   180   179   ar
    83    13    12    1
    84    13    16    1
    85    68    67    1
    86    68    69    1
    87    18    16    1
    88    16    17    1
    89    29    27   ar
    90   146   147    2
    91   146   145    1
    92   177   179   ar
    93    50    49    1
    94   145   144    1
    95   145   148    1
    96   150   148    1
    97    76    77    1
    98    76    75    1
    99    47    48    2
   100    47    46    1
   101    77    78   ar
   102    77    79   ar
   103    75    72    1
   104   148   149    1
   105    49    46    1
   106    49    51    1
   107    46    45    1
   108     4     3    2
   109    85    84    1
   110     3     2    1
   111    72    71    1
   112    72    73    1
   113     2     1    1
   114     2     5    1
   115    74    73    2
   116    73    80   am
   117    36    35    1
   118    84    81    1
   119    80    81    1
   120     7     9   ar
   121     7     6   ar
   122     5     6    1
   123    81    82    1
   124    35    37    1
   125    35    34    1
   126     9    11   ar
   127   100    98    1
   128     6     8   ar
   129    44    42    1
   130    98    99    1
   131    98    97    2
   132    97    96    1
   133    34    31    1
   134    82    83    2
   135    82    86   am
   136    11    10   ar
   137     8    10   ar
   138    96    95    1
   139    42    43    1
   140    42    39    1
   141    41    40    2
   142   109   107   ar
   143    40    39    1
   144    86    87    1
   145    30    31    1
   146    31    32    1
   147    39    38    1
   148   107   108   ar
   149   107   106    1
   150    95    94    1
   151    33    32    2
   152   117   115   am
   153    87    88    1
   154    94    91    1
   155   116   115    2
   156    89    88    2
   157   115   114    1
   158   106   105    1
   159   114   111    1
   160    91    92    1
   161    91    90    1
   162    92   101   am
   163    92    93    2
   164   101   102    1
   165   105   102    1
   166   102   103    1
   167   111   112    1
   168   111   110    1
   169   113   112    2
   170   103   104    2
