@<TRIPOS>MOLECULE
tmp/3tbhA00.pdb
 176 173 0 0 0
SMALL
GASTEIGER

@<TRIPOS>ATOM
      1  N         17.6090  -13.2830    5.7490 N.3    76  SER76      -0.1202
      2  CA        17.4690  -12.4770    6.9220 C.3    76  SER76       0.2020
      3  C         17.0680  -11.0980    6.3840 C.2    76  SER76       0.2619
      4  O         17.7620  -10.5390    5.5300 O.2    76  SER76      -0.2717
      5  CB        18.8240  -12.4140    7.6280 C.3    76  SER76       0.2103
      6  OG        19.8550  -11.9810    6.7540 O.3    76  SER76      -0.2182
      7  N         15.9330  -10.5850    6.8190 N.am   77  SER77      -0.1937
      8  CA        15.4320   -9.2870    6.3370 C.3    77  SER77       0.2055
      9  C         14.3980   -8.7530    7.2810 C.2    77  SER77       0.2644
     10  O         13.4230   -9.4450    7.6020 O.2    77  SER77      -0.2714
     11  CB        14.7740   -9.4290    4.9620 C.3    77  SER77       0.2130
     12  OG        14.3180   -8.1420    4.5160 O.3    77  SER77      -0.2179
     13  N         14.5850   -7.5090    7.7070 N.am   78  SER78      -0.1935
     14  CA        13.5340   -6.7840    8.4490 C.3    78  SER78       0.2055
     15  C         12.9310   -5.8070    7.4940 C.2    78  SER78       0.2644
     16  O         12.1260   -4.9370    7.9140 O.2    78  SER78      -0.2714
     17  CB        14.1140   -6.0050    9.6430 C.3    78  SER78       0.2130
     18  OG        15.2670   -5.2450    9.2370 O.3    78  SER78      -0.2179
     19  N         13.2680   -5.9590    6.2050 N.am   79  GLY79      -0.1939
     20  CA        12.5510   -5.0240    5.2790 C.3    79  GLY79       0.2014
     21  C         11.8640   -5.6960    4.0930 C.2    79  GLY79       0.2639
     22  O         11.2700   -6.7920    4.2230 O.2    79  GLY79      -0.2714
     23  N         11.9090   -4.9820    2.9420 N.am   80  ASN80      -0.1958
     24  CA        11.0060   -5.3700    1.8600 C.3    80  ASN80       0.1819
     25  C         11.4180   -6.6140    1.1610 C.2    80  ASN80       0.2621
     26  O         10.5460   -7.2720    0.6020 O.2    80  ASN80      -0.2715
     27  CB        10.8990   -4.2520    0.8350 C.3    80  ASN80       0.1195
     28  CG        10.1950   -3.0170    1.3980 C.2    80  ASN80       0.2630
     29  OD1        9.2100   -3.1920    2.0540 O.2    80  ASN80      -0.2716
     30  ND2       10.6310   -1.8200    1.0250 N.am   80  ASN80      -0.0877
     31  N         12.7070   -6.9680    1.1550 N.am   81  THR81      -0.1951
     32  CA        13.0140   -8.2720    0.5630 C.3    81  THR81       0.1897
     33  C         12.3310   -9.4500    1.2210 C.2    81  THR81       0.2313
     34  O         11.7860  -10.3040    0.4950 O.2    81  THR81      -0.2863
     35  CB        14.5230   -8.5310    0.6650 C.3    81  THR81       0.1794
     36  OG1       15.1510   -7.5470   -0.1800 O.3    81  THR81      -0.2208
     37  CG2       14.8230   -9.9570    0.1040 C.3    81  THR81       0.0378
     38  N         11.8800   -6.3580   16.5250 N.3   104  MET104     -0.1245
     39  CA        11.1150   -5.7570   15.3700 C.3   104  MET104      0.1570
     40  C          9.5970   -5.6110   15.6420 C.2   104  MET104      0.2261
     41  O          8.9920   -6.3950   16.3890 O.2   104  MET104     -0.2867
     42  CB        11.3160   -6.6580   14.1360 C.3   104  MET104      0.0387
     43  CG        12.7630   -6.5690   13.5380 C.3   104  MET104      0.0595
     44  SD        13.1980   -4.9060   13.0520 S.3   104  MET104     -0.1393
     45  CE        15.0210   -4.8810   13.2710 C.3   104  MET104      0.0692
     46  N          5.9160   -5.6390   10.9870 N.3   108  ARG108     -0.1245
     47  CA         6.8960   -6.3990   10.1390 C.3   108  ARG108      0.1563
     48  C          6.6580   -7.9370   10.1990 C.2   108  ARG108      0.2260
     49  O          6.5360   -8.6090    9.1750 O.2   108  ARG108     -0.2867
     50  CB         8.3510   -6.0890   10.5580 C.3   108  ARG108      0.0307
     51  CG         8.6850   -4.5780   10.5410 C.3   108  ARG108      0.0489
     52  CD         8.9220   -4.1080    9.1820 C.3   108  ARG108      0.2205
     53  NE         9.3130   -2.6670    9.1550 N.pl3 108  ARG108     -0.0865
     54  CZ        10.5140   -2.1490    9.4910 C.cat 108  ARG108      0.5346
     55  NH1       11.5530   -2.9080    9.8600 N.pl3 108  ARG108      0.1354
     56  NH2       10.6850   -0.8270    9.4340 N.pl3 108  ARG108      0.1354
     57  N         20.7700   -7.2940   13.9700 N.3   128  MET128     -0.1245
     58  CA        20.7380   -7.8780   12.6300 C.3   128  MET128      0.1570
     59  C         21.8010   -8.9430   12.4670 C.2   128  MET128      0.2261
     60  O         21.5630   -9.8900   11.7370 O.2   128  MET128     -0.2867
     61  CB        20.8440   -6.8170   11.5310 C.3   128  MET128      0.0387
     62  CG        20.2930   -7.3950   10.1420 C.3   128  MET128      0.0595
     63  SD        18.4440   -7.5810   10.2500 S.3   128  MET128     -0.1393
     64  CE        18.3620   -8.9180    9.0340 C.3   128  MET128      0.0692
     65  N         20.3410  -11.8160   -1.1350 N.3   150  GLN150     -0.1231
     66  CA        20.0030  -10.5660   -1.8570 C.3   150  GLN150      0.1698
     67  C         21.2120   -9.6600   -2.2070 C.2   150  GLN150      0.2592
     68  O         21.1170   -8.8740   -3.1740 O.2   150  GLN150     -0.2718
     69  CB        18.9260   -9.8160   -1.1100 C.3   150  GLN150      0.0381
     70  CG        19.3950   -9.3480    0.3490 C.3   150  GLN150      0.0905
     71  CD        18.3570   -8.4930    0.9860 C.2   150  GLN150      0.2608
     72  OE1       17.6670   -7.6910    0.2920 O.2   150  GLN150     -0.2717
     73  NE2       18.2510   -8.5890    2.3270 N.am  150  GLN150     -0.0878
     74  N         22.2650   -9.6840   -1.3530 N.am  151  PHE151     -0.1976
     75  CA        23.3710   -8.7570   -1.5380 C.3   151  PHE151      0.1639
     76  C         24.3690   -9.3040   -2.5110 C.2   151  PHE151      0.2290
     77  O         25.3220   -8.5970   -2.8390 O.2   151  PHE151     -0.2864
     78  CB        24.0570   -8.4240   -0.2310 C.3   151  PHE151      0.0560
     79  CG        23.1510   -7.6570    0.7150 C.ar  151  PHE151     -0.0200
     80  CD1       22.9410   -6.2750    0.4880 C.ar  151  PHE151     -0.0042
     81  CD2       22.5600   -8.2630    1.8280 C.ar  151  PHE151     -0.0042
     82  CE1       22.0860   -5.5230    1.3620 C.ar  151  PHE151     -0.0003
     83  CE2       21.7540   -7.4970    2.7160 C.ar  151  PHE151     -0.0003
     84  CZ        21.5070   -6.1320    2.4650 C.ar  151  PHE151     -0.0000
     85  N         20.9650   -0.1270   -1.6850 N.3   184  GLY184     -0.1210
     86  CA        20.6820   -1.0800   -0.6100 C.3   184  GLY184      0.1956
     87  C         21.5060   -2.2980   -0.9100 C.2   184  GLY184      0.2612
     88  O         22.6860   -2.4740   -0.4550 O.2   184  GLY184     -0.2717
     89  N         20.9640   -3.1290   -1.8000 N.am  185  THR185     -0.1952
     90  CA        21.7760   -4.2230   -2.4120 C.3   185  THR185      0.1897
     91  C         22.6150   -3.7210   -3.5840 C.2   185  THR185      0.2313
     92  O         23.5650   -4.3620   -3.9950 O.2   185  THR185     -0.2863
     93  CB        20.8350   -5.3550   -2.9760 C.3   185  THR185      0.1794
     94  OG1       20.0570   -4.8040   -4.0890 O.3   185  THR185     -0.2208
     95  CG2       19.8670   -5.9100   -1.9580 C.3   185  THR185      0.0378
     96  N         27.8520    2.6750   10.1570 N.3   222  GLY222     -0.1210
     97  CA        27.2420    2.9970   11.4620 C.3   222  GLY222      0.1940
     98  C         25.7360    2.9830   11.2940 C.2   222  GLY222      0.2454
     99  O         25.2250    2.8970   10.1540 O.2   222  GLY222     -0.2732
    100  N         24.9960    3.0720   12.4050 N.am  223  PRO223     -0.2717
    101  CA        23.5900    2.9960   12.3730 C.3   223  PRO223      0.1535
    102  C         23.0050    4.2980   11.7910 C.2   223  PRO223      0.2599
    103  O         23.5550    5.3880   12.0020 O.2   223  PRO223     -0.2715
    104  CB        23.2060    2.8040   13.8640 C.3   223  PRO223      0.0310
    105  CG        24.4920    2.8020   14.6750 C.3   223  PRO223      0.0237
    106  CD        25.5460    3.3540   13.7620 C.3   223  PRO223      0.0939
    107  N         21.9220    4.1900   11.0140 N.am  224  HIS224     -0.1960
    108  CA        21.3580    5.3510   10.3500 C.3   224  HIS224      0.1787
    109  C         19.8590    5.1160   10.1850 C.2   224  HIS224      0.2620
    110  O         19.3660    4.0130   10.3890 O.2   224  HIS224     -0.2715
    111  CB        22.0680    5.5790    9.0120 C.3   224  HIS224      0.0785
    112  CG        21.7360    4.5370    8.0230 C.ar  224  HIS224      0.0821
    113  ND1       20.5760    4.5500    7.2440 N.ar  224  HIS224     -0.2267
    114  CD2       22.4030    3.3920    7.7110 C.ar  224  HIS224      0.1154
    115  CE1       20.5590    3.4570    6.5080 C.ar  224  HIS224      0.1986
    116  NE2       21.6230    2.7230    6.8060 N.ar  224  HIS224     -0.2212
    117  N         19.1540    6.1860    9.8330 N.am  225  LYS225     -0.1963
    118  CA        17.7030    6.1900    9.7720 C.3   225  LYS225      0.1728
    119  C         17.0770    5.7400    8.4620 C.2   225  LYS225      0.2616
    120  O         15.8770    5.4820    8.3970 O.2   225  LYS225     -0.2715
    121  CB        17.1880    7.5930   10.1170 C.3   225  LYS225      0.0311
    122  CG        17.2200    7.8750   11.6660 C.3   225  LYS225      0.0038
    123  CD        17.0660    9.3990   11.8310 C.3   225  LYS225      0.0206
    124  CE        17.2600    9.8980   13.2770 C.3   225  LYS225      0.1093
    125  NZ        17.1410   11.4010   13.2070 N.3   225  LYS225     -0.1314
    126  N         17.8800    5.7000    7.4040 N.am  226  ILE226     -0.1963
    127  CA        17.3050    5.6260    6.0240 C.3   226  ILE226      0.1727
    128  C         16.9980    4.1500    5.6350 C.2   226  ILE226      0.2616
    129  O         17.7770    3.5150    4.8960 O.2   226  ILE226     -0.2715
    130  CB        18.1700    6.3160    4.9670 C.3   226  ILE226      0.0290
    131  CG1       18.6350    7.6770    5.5000 C.3   226  ILE226      0.0022
    132  CG2       17.3030    6.4850    3.6700 C.3   226  ILE226      0.0023
    133  CD1       19.4080    8.4550    4.5080 C.3   226  ILE226      0.0001
    134  N         15.8310    3.6600    6.0880 N.am  227  GLN227     -0.1963
    135  CA        15.5030    2.2480    5.9400 C.3   227  GLN227      0.1733
    136  C         15.5060    1.8760    4.4260 C.2   227  GLN227      0.2617
    137  O         14.9500    2.6280    3.5480 O.2   227  GLN227     -0.2715
    138  CB        14.0990    1.9200    6.6190 C.3   227  GLN227      0.0408
    139  CG        13.8070    0.3930    6.6120 C.3   227  GLN227      0.0908
    140  CD        14.6960   -0.3560    7.5870 C.2   227  GLN227      0.2608
    141  OE1       15.2220    0.2340    8.5330 O.2   227  GLN227     -0.2717
    142  NE2       14.8290   -1.6730    7.3600 N.am  227  GLN227     -0.0878
    143  N         16.2120    0.8230    4.0740 N.am  228  GLY228     -0.1940
    144  CA        16.2020    0.3620    2.6610 C.3   228  GLY228      0.2014
    145  C         17.5400    0.5600    1.9920 C.2   228  GLY228      0.2639
    146  O         17.8680   -0.1030    1.0150 O.2   228  GLY228     -0.2714
    147  N         18.3570    1.4740    2.5400 N.am  229  ILE229     -0.1963
    148  CA        19.7060    1.6430    1.9790 C.3   229  ILE229      0.1727
    149  C         20.7480    1.5940    3.0680 C.2   229  ILE229      0.2617
    150  O         20.4480    1.4200    4.2480 O.2   229  ILE229     -0.2715
    151  CB        19.8700    2.9460    1.1580 C.3   229  ILE229      0.0290
    152  CG1       19.6520    4.2010    2.0170 C.3   229  ILE229      0.0022
    153  CG2       18.7320    3.0240    0.0970 C.3   229  ILE229      0.0023
    154  CD1       20.0640    5.5620    1.2220 C.3   229  ILE229      0.0001
    155  N         21.9850    1.7580    2.6660 N.am  230  GLY230     -0.1941
    156  CA        23.1060    1.7690    3.6320 C.3   230  GLY230      0.1998
    157  C         23.3250    0.4730    4.4480 C.2   230  GLY230      0.2480
    158  O         23.0740    0.4590    5.6550 O.2   230  GLY230     -0.2729
    159  N         23.7140   -0.6020    3.7880 N.am  231  PRO231     -0.2726
    160  CA        23.8390   -1.9020    4.4150 C.3   231  PRO231      0.1402
    161  C         25.0570   -1.9910    5.3560 C.2   231  PRO231      0.2269
    162  O         25.1170   -2.8480    6.2250 O.2   231  PRO231     -0.2865
    163  CB        24.0860   -2.8290    3.1920 C.3   231  PRO231      0.0296
    164  CG        24.6660   -1.9030    2.1410 C.3   231  PRO231      0.0237
    165  CD        23.9350   -0.6310    2.3120 C.3   231  PRO231      0.0939
    166  N         28.2370   -2.1010    4.2900 N.3   233  PHE233     -0.1241
    167  CA        29.2850   -2.8350    3.5910 C.3   233  PHE233      0.1605
    168  C         29.0400   -2.6300    2.1040 C.2   233  PHE233      0.2264
    169  O         28.0030   -2.1240    1.7420 O.2   233  PHE233     -0.2867
    170  CB        29.3340   -4.3440    3.9870 C.3   233  PHE233      0.0534
    171  CG        28.0290   -5.0640    3.7570 C.ar  233  PHE233     -0.0203
    172  CD1       27.7020   -5.5260    2.4980 C.ar  233  PHE233     -0.0042
    173  CD2       27.1070   -5.2410    4.8210 C.ar  233  PHE233     -0.0042
    174  CE1       26.4640   -6.1940    2.3120 C.ar  233  PHE233     -0.0003
    175  CE2       25.8660   -5.9040    4.6390 C.ar  233  PHE233     -0.0003
    176  CZ        25.5850   -6.4210    3.3540 C.ar  233  PHE233     -0.0000
@<TRIPOS>BOND
     1    94    93    1
     2    92    91    2
     3    91    90    1
     4    68    67    2
     5    93    90    1
     6    93    95    1
     7    77    76    2
     8    76    75    1
     9    90    89    1
    10    67    66    1
    11    67    74   am
    12    66    65    1
    13    66    69    1
    14    89    87   am
    15    85    86    1
    16    75    74    1
    17    75    78    1
    18    69    70    1
    19    87    86    1
    20    87    88    2
    21    78    79    1
    22    36    35    1
    23   153   151    1
    24    37    35    1
    25    72    71    2
    26    70    71    1
    27    80    79   ar
    28    80    82   ar
    29    34    33    2
    30    32    35    1
    31    32    31    1
    32    32    33    1
    33    26    25    2
    34    79    81   ar
    35    27    28    1
    36    27    24    1
    37    71    73   am
    38   146   145    2
    39    30    28   am
    40    31    25   am
    41   151   148    1
    42   151   152    1
    43    25    24    1
    44   154   152    1
    45    82    84   ar
    46    28    29    2
    47   169   168    2
    48    81    83   ar
    49    24    23    1
    50   148   147    1
    51   148   149    1
    52   145   147   am
    53   145   144    1
    54   168   167    1
    55   164   165    1
    56   164   163    1
    57   174   172   ar
    58   174   176   ar
    59   165   159    1
    60    84    83   ar
    61   172   171   ar
    62   144   143    1
    63   155   149   am
    64   155   156    1
    65    23    21   am
    66   149   150    2
    67   163   160    1
    68   176   175   ar
    69   137   136    2
    70   167   170    1
    71   167   166    1
    72   156   157    1
    73   132   130    1
    74   171   170    1
    75   171   173   ar
    76   159   160    1
    77   159   157   am
    78   143   136   am
    79    21    22    2
    80    21    20    1
    81   160   161    1
    82   136   135    1
    83   157   158    2
    84   133   131    1
    85    12    11    1
    86   175   173   ar
    87   129   128    2
    88    11     8    1
    89   130   131    1
    90   130   127    1
    91    20    19    1
    92   161   162    2
    93     4     3    2
    94   128   127    1
    95   128   134   am
    96     1     2    1
    97   135   134    1
    98   135   138    1
    99   127   126    1
   100    19    15   am
   101     8     7    1
   102     8     9    1
   103     3     7   am
   104     3     2    1
   105   115   116   ar
   106   115   113   ar
   107   139   138    1
   108   139   140    1
   109     6     5    1
   110   116   114   ar
   111     2     5    1
   112   113   112   ar
   113     9    10    2
   114     9    13   am
   115   142   140   am
   116   126   119   am
   117    15    16    2
   118    15    14    1
   119   140   141    2
   120    13    14    1
   121   114   112   ar
   122   112   111    1
   123   120   119    2
   124    14    17    1
   125   119   118    1
   126   111   108    1
   127    64    63    1
   128    53    52    1
   129    53    54    2
   130    49    48    2
   131    52    51    1
   132    18    17    1
   133    56    54    1
   134    54    55    1
   135   118   117    1
   136   118   121    1
   137   117   109   am
   138   121   122    1
   139    47    48    1
   140    47    50    1
   141    47    46    1
   142    62    63    1
   143    62    61    1
   144    99    98    2
   145    96    97    1
   146   109   108    1
   147   109   110    2
   148   108   107    1
   149    51    50    1
   150   107   102   am
   151    98    97    1
   152    98   100   am
   153    61    58    1
   154   122   123    1
   155    60    59    2
   156   102   103    2
   157   102   101    1
   158   123   124    1
   159   101   100    1
   160   101   104    1
   161   100   106    1
   162    59    58    1
   163    58    57    1
   164    44    45    1
   165    44    43    1
   166   125   124    1
   167    43    42    1
   168   106   105    1
   169   104   105    1
   170    42    39    1
   171    39    40    1
   172    39    38    1
   173    40    41    2
