@<TRIPOS>MOLECULE
tmp/3tbkA00.pdb
 94 90 0 0 0
SMALL
GASTEIGER

@<TRIPOS>ATOM
      1  N         22.8750   37.1680   35.6670 N.3     3  LEU3       -0.1231
      2  CA        24.0910   37.8740   36.0890 C.3     3  LEU3        0.1693
      3  C         25.2470   37.7790   35.0840 C.2     3  LEU3        0.2591
      4  O         25.4500   36.7570   34.4180 O.2     3  LEU3       -0.2718
      5  CB        24.5610   37.3680   37.4550 C.3     3  LEU3        0.0284
      6  CG        23.8790   37.8870   38.7290 C.3     3  LEU3        0.0019
      7  CD1       22.4460   38.3750   38.4820 C.3     3  LEU3        0.0001
      8  CD2       23.9210   36.8090   39.8130 C.3     3  LEU3        0.0001
      9  N         25.9910   38.8700   34.9740 N.am    4  LYS4       -0.1980
     10  CA        27.1880   38.8920   34.1590 C.3     4  LYS4        0.1596
     11  C         28.3150   38.2400   34.9740 C.2     4  LYS4        0.2287
     12  O         28.5170   38.5660   36.1420 O.2     4  LYS4       -0.2864
     13  CB        27.5330   40.3360   33.7740 C.3     4  LYS4        0.0298
     14  CG        28.5760   40.4470   32.6680 C.3     4  LYS4        0.0038
     15  CD        28.4480   41.7770   31.9480 C.3     4  LYS4        0.0206
     16  CE        29.5110   41.9330   30.8800 C.3     4  LYS4        0.1093
     17  NZ        30.8450   42.1360   31.4990 N.3     4  LYS4       -0.1314
     18  N         31.8600   37.6720   36.5040 N.3     6  ARG6       -0.1245
     19  CA        33.1330   38.3610   36.6950 C.3     6  ARG6        0.1563
     20  C         34.2030   37.6650   35.8750 C.2     6  ARG6        0.2260
     21  O         34.1280   36.4510   35.6390 O.2     6  ARG6       -0.2867
     22  CB        33.5320   38.3490   38.1710 C.3     6  ARG6        0.0307
     23  CG        32.6020   39.1930   39.0010 C.3     6  ARG6        0.0489
     24  CD        32.6930   38.9250   40.4840 C.3     6  ARG6        0.2205
     25  NE        31.5430   39.5450   41.1370 N.pl3   6  ARG6       -0.0865
     26  CZ        31.0170   39.1460   42.2850 C.cat   6  ARG6        0.5346
     27  NH1       31.5400   38.1180   42.9240 N.pl3   6  ARG6        0.1354
     28  NH2       29.9640   39.7840   42.7950 N.pl3   6  ARG6        0.1354
     29  N         35.7970   34.6960   37.4310 N.3     9  GLN9       -0.1245
     30  CA        34.8660   33.5710   37.4310 C.3     9  GLN9        0.1566
     31  C         34.9710   32.7740   36.1400 C.2     9  GLN9        0.2260
     32  O         34.9710   31.5310   36.1620 O.2     9  GLN9       -0.2867
     33  CB        33.4330   34.0390   37.7050 C.3     9  GLN9        0.0367
     34  CG        33.2750   34.4560   39.1600 C.3     9  GLN9        0.0905
     35  CD        31.9240   35.0650   39.4770 C.2     9  GLN9        0.2608
     36  OE1       31.3050   35.7360   38.6330 O.2     9  GLN9       -0.2717
     37  NE2       31.4560   34.8360   40.7030 N.am    9  GLN9       -0.0878
     38  N         36.7960   32.2330   50.2400 N.3    28  THR28      -0.1203
     39  CA        35.4310   32.3760   50.7200 C.3    28  THR28       0.1994
     40  C         34.8860   33.7190   50.2880 C.2    28  THR28       0.2618
     41  O         35.5570   34.7310   50.4300 O.2    28  THR28      -0.2717
     42  CB        35.3590   32.2930   52.2490 C.3    28  THR28       0.1784
     43  OG1       35.8490   31.0160   52.6690 O.3    28  THR28      -0.2211
     44  CG2       33.9110   32.4330   52.7180 C.3    28  THR28       0.0376
     45  N         33.6850   33.7260   49.7310 N.am   29  GLY29      -0.1942
     46  CA        33.0420   34.9770   49.3810 C.3    29  GLY29       0.2014
     47  C         33.1380   35.3500   47.9150 C.2    29  GLY29       0.2639
     48  O         32.4250   36.2380   47.4700 O.2    29  GLY29      -0.2714
     49  N         33.9960   34.6800   47.1480 N.am   30  CYS30      -0.1953
     50  CA        34.1890   35.0950   45.7540 C.3    30  CYS30       0.1843
     51  C         33.1590   34.4760   44.7930 C.2    30  CYS30       0.2626
     52  O         33.1590   34.7540   43.5890 O.2    30  CYS30      -0.2714
     53  CB        35.6170   34.8220   45.2820 C.3    30  CYS30       0.0997
     54  SG        35.9160   33.1120   44.8070 S.3    30  CYS30      -0.0797
     55  N         32.2740   33.6500   45.3310 N.am   31  GLY31      -0.1940
     56  CA        31.1610   33.1390   44.5570 C.3    31  GLY31       0.2014
     57  C         31.4670   31.9120   43.7300 C.2    31  GLY31       0.2639
     58  O         31.2040   31.9000   42.5340 O.2    31  GLY31      -0.2714
     59  N         32.0160   30.8810   44.3670 N.am   32  LYS32      -0.1963
     60  CA        32.3110   29.6180   43.6820 C.3    32  LYS32       0.1728
     61  C         31.0520   28.8860   43.1920 C.2    32  LYS32       0.2617
     62  O         31.0850   28.1550   42.1900 O.2    32  LYS32      -0.2715
     63  CB        33.1520   28.7030   44.5830 C.3    32  LYS32       0.0311
     64  CG        34.5860   29.1910   44.8070 C.3    32  LYS32       0.0038
     65  CD        35.3850   28.2250   45.6910 C.3    32  LYS32       0.0206
     66  CE        34.8650   28.1970   47.1340 C.3    32  LYS32       0.1093
     67  NZ        35.0110   29.5210   47.8160 N.3    32  LYS32      -0.1314
     68  N         29.9420   29.0800   43.8910 N.am   33  THR33      -0.1937
     69  CA        28.7010   28.4270   43.4870 C.3    33  THR33       0.2028
     70  C         28.2780   28.9200   42.1190 C.2    33  THR33       0.2642
     71  O         27.8910   28.1290   41.2550 O.2    33  THR33      -0.2714
     72  CB        27.5680   28.6360   44.5100 C.3    33  THR33       0.1808
     73  OG1       27.8660   27.8870   45.6890 O.3    33  THR33      -0.2208
     74  CG2       26.2260   28.1510   43.9470 C.3    33  THR33       0.0379
     75  N         28.3900   30.2230   41.9120 N.am   34  PHE34      -0.1973
     76  CA        28.1110   30.8060   40.6080 C.3    34  PHE34       0.1639
     77  C         29.0240   30.2500   39.4900 C.2    34  PHE34       0.2290
     78  O         28.5750   29.9950   38.3630 O.2    34  PHE34      -0.2864
     79  CB        28.2060   32.3310   40.7010 C.3    34  PHE34       0.0560
     80  CG        27.7850   33.0370   39.4500 C.ar   34  PHE34      -0.0200
     81  CD1       28.7180   33.5840   38.6020 C.ar   34  PHE34      -0.0042
     82  CD2       26.4430   33.1540   39.1230 C.ar   34  PHE34      -0.0042
     83  CE1       28.3280   34.2450   37.4410 C.ar   34  PHE34      -0.0003
     84  CE2       26.0470   33.8070   37.9570 C.ar   34  PHE34      -0.0003
     85  CZ        27.0010   34.3490   37.1150 C.ar   34  PHE34      -0.0000
     86  N         21.8900   25.7870   47.8710 N.3    68  GLN68      -0.1245
     87  CA        22.2750   25.3410   46.5220 C.3    68  GLN68       0.1566
     88  C         21.0870   24.7920   45.7520 C.2    68  GLN68       0.2260
     89  O         20.8710   25.1510   44.6050 O.2    68  GLN68      -0.2867
     90  CB        23.3720   24.2640   46.5510 C.3    68  GLN68       0.0367
     91  CG        24.5630   24.5140   47.4710 C.3    68  GLN68       0.0905
     92  CD        25.4170   25.6990   47.0590 C.2    68  GLN68       0.2608
     93  OE1       24.8960   26.7520   46.6720 O.2    68  GLN68      -0.2717
     94  NE2       26.7480   25.5340   47.1430 N.am   68  GLN68      -0.0878
@<TRIPOS>BOND
     1    16    17    1
     2    16    15    1
     3    15    14    1
     4    14    13    1
     5    13    10    1
     6    10     9    1
     7    10    11    1
     8     4     3    2
     9     9     3   am
    10    11    12    2
    11     3     2    1
    12    21    20    2
    13     1     2    1
    14    20    19    1
    15     2     5    1
    16    31    32    2
    17    31    30    1
    18    18    19    1
    19    19    22    1
    20    85    83   ar
    21    85    84   ar
    22    29    30    1
    23    30    33    1
    24    83    81   ar
    25     5     6    1
    26    33    34    1
    27    84    82   ar
    28    22    23    1
    29    78    77    2
    30     7     6    1
    31    81    80   ar
    32    36    35    2
    33     6     8    1
    34    23    24    1
    35    82    80   ar
    36    34    35    1
    37    80    79    1
    38    35    37   am
    39    77    76    1
    40    24    25    1
    41    76    79    1
    42    76    75    1
    43    25    26    2
    44    71    70    2
    45    75    70   am
    46    70    69    1
    47    62    61    2
    48    26    28    1
    49    26    27    1
    50    58    57    2
    51    61    60    1
    52    61    68   am
    53    69    68    1
    54    69    72    1
    55    52    51    2
    56    60    59    1
    57    60    63    1
    58    57    59   am
    59    57    56    1
    60    74    72    1
    61    72    73    1
    62    56    55    1
    63    63    64    1
    64    89    88    2
    65    51    55   am
    66    51    50    1
    67    64    65    1
    68    54    53    1
    69    53    50    1
    70    65    66    1
    71    88    87    1
    72    50    49    1
    73    87    90    1
    74    87    86    1
    75    90    91    1
    76    93    92    2
    77    92    94   am
    78    92    91    1
    79    66    67    1
    80    49    47   am
    81    48    47    2
    82    47    46    1
    83    46    45    1
    84    45    40   am
    85    38    39    1
    86    40    41    2
    87    40    39    1
    88    39    42    1
    89    42    43    1
    90    42    44    1
