@<TRIPOS>MOLECULE
tmp/3tbmB00.pdb
 92 91 0 0 0
SMALL
GASTEIGER

@<TRIPOS>ATOM
      1  N          9.3330   10.4500   17.7680 N.3    10  PRO10      -0.2116
      2  CA        10.1570   11.4760   17.0900 C.3    10  PRO10       0.1372
      3  C          9.7720   11.8720   15.6360 C.2    10  PRO10       0.2244
      4  O          9.0180   11.1740   14.9860 O.2    10  PRO10      -0.2868
      5  CB        11.5470   10.8390   17.0990 C.3    10  PRO10       0.0268
      6  CG        11.2760    9.3520   17.0630 C.3    10  PRO10       0.0207
      7  CD        10.0340    9.1510   17.8960 C.3    10  PRO10       0.0892
      8  N         23.7900   11.0410   10.2650 N.3    30  GLU30      -0.1245
      9  CA        24.1990    9.7150    9.8050 C.3    30  GLU30       0.1567
     10  C         23.3770    9.2360    8.6050 C.2    30  GLU30       0.2260
     11  O         22.1750    9.0170    8.7210 O.2    30  GLU30      -0.2867
     12  CB        24.0890    8.6970   10.9470 C.3    30  GLU30       0.0388
     13  CG        22.7090    8.6470   11.6240 C.3    30  GLU30       0.1160
     14  CD        21.9500    7.3410   11.3570 C.2    30  GLU30       0.3649
     15  OE1       21.9850    6.4360   12.2210 O.co2  30  GLU30      -0.2457
     16  OE2       21.3090    7.2210   10.2910 O.co2  30  GLU30      -0.2457
     17  N         16.4140   10.8700   13.5500 N.3    35  TRP35      -0.1241
     18  CA        15.1890   10.9400   14.3440 C.3    35  TRP35       0.1605
     19  C         15.3310   12.0690   15.3480 C.2    35  TRP35       0.2264
     20  O         16.1730   11.9890   16.2350 O.2    35  TRP35      -0.2867
     21  CB        14.9260    9.6230   15.0900 C.3    35  TRP35       0.0550
     22  CG        14.6080    8.5280   14.1320 C.ar   35  TRP35       0.0003
     23  CD1       13.3730    8.1200   13.7500 C.ar   35  TRP35       0.0946
     24  CD2       15.5470    7.7360   13.3790 C.ar   35  TRP35       0.0152
     25  NE1       13.4710    7.1090   12.8250 N.ar   35  TRP35      -0.2442
     26  CE2       14.7910    6.8620   12.5670 C.ar   35  TRP35       0.0810
     27  CE3       16.9360    7.6880   13.3080 C.ar   35  TRP35       0.0012
     28  CZ2       15.3820    5.9270   11.7130 C.ar   35  TRP35       0.0191
     29  CZ3       17.5310    6.7750   12.4520 C.ar   35  TRP35       0.0001
     30  CH2       16.7470    5.9100   11.6540 C.ar   35  TRP35       0.0015
     31  N         17.4480   13.6230   26.3730 N.3    43  LEU43      -0.1245
     32  CA        18.6500   14.1230   27.0550 C.3    43  LEU43       0.1561
     33  C         19.8220   14.2120   26.0680 C.2    43  LEU43       0.2260
     34  O         20.9670   14.3960   26.4540 O.2    43  LEU43      -0.2867
     35  CB        18.9890   13.2560   28.2730 C.3    43  LEU43       0.0270
     36  CG        17.9090   13.3690   29.3640 C.3    43  LEU43       0.0019
     37  CD1       18.1450   12.4510   30.5630 C.3    43  LEU43       0.0001
     38  CD2       17.7850   14.8410   29.8100 C.3    43  LEU43       0.0001
     39  N         16.2630   12.2730   19.1800 N.3    48  CYS48      -0.1221
     40  CA        15.4560   11.3740   20.0040 C.3    48  CYS48       0.1808
     41  C         16.3350   10.3570   20.7510 C.2    48  CYS48       0.2601
     42  O         17.2450    9.7090   20.1600 O.2    48  CYS48      -0.2717
     43  CB        14.4370   10.6530   19.1210 C.3    48  CYS48       0.0970
     44  SG        13.5120    9.3830   19.9800 S.3    48  CYS48      -0.0800
     45  N         16.0950   10.1840   22.0430 N.am   49  ASP49      -0.1959
     46  CA        16.8420    9.1110   22.7630 C.3    49  ASP49       0.1840
     47  C         15.9160    8.0990   23.4460 C.2    49  ASP49       0.2623
     48  O         16.3350    7.3930   24.3620 O.2    49  ASP49      -0.2715
     49  CB        17.8330    9.7000   23.7650 C.3    49  ASP49       0.1450
     50  CG        17.1380   10.3480   24.9530 C.2    49  ASP49       0.3671
     51  OD1       17.8080   10.7150   25.9570 O.co2  49  ASP49      -0.2456
     52  OD2       15.8920   10.4480   24.9140 O.co2  49  ASP49      -0.2456
     53  N         14.6380    8.0820   23.0530 N.am   50  GLY50      -0.1940
     54  CA        13.7010    7.0920   23.5870 C.3    50  GLY50       0.2014
     55  C         12.9260    7.6380   24.7830 C.2    50  GLY50       0.2640
     56  O         12.0280    6.9830   25.3120 O.2    50  GLY50      -0.2714
     57  N         13.2700    8.8580   25.2020 N.am   51  SER51      -0.1935
     58  CA        12.5830    9.5300   26.3190 C.3    51  SER51       0.2055
     59  C         11.1090    9.7200   26.0930 C.2    51  SER51       0.2643
     60  O         10.3700    9.7760   27.0490 O.2    51  SER51      -0.2714
     61  CB        13.1950   10.9120   26.6480 C.3    51  SER51       0.2130
     62  OG        14.4180   10.7230   27.3190 O.3    51  SER51      -0.2179
     63  N         10.6950    9.8660   24.8430 N.am   52  HIS52      -0.1959
     64  CA         9.2660    9.8970   24.5400 C.3    52  HIS52       0.1787
     65  C          8.4510    8.7320   25.2160 C.2    52  HIS52       0.2620
     66  O          7.2740    8.9150   25.6170 O.2    52  HIS52      -0.2715
     67  CB         9.0720    9.9740   22.9990 C.3    52  HIS52       0.0785
     68  CG         9.5730    8.7590   22.2930 C.ar   52  HIS52       0.0821
     69  ND1       10.8810    8.6250   21.8920 N.ar   52  HIS52      -0.2267
     70  CD2        8.9650    7.5790   21.9990 C.ar   52  HIS52       0.1154
     71  CE1       11.0530    7.4430   21.3420 C.ar   52  HIS52       0.1986
     72  NE2        9.9120    6.7780   21.4080 N.ar   52  HIS52      -0.2212
     73  N          9.0450    7.5290   25.3690 N.am   53  LYS53      -0.1963
     74  CA         8.3270    6.4130   25.9900 C.3    53  LYS53       0.1728
     75  C          8.2770    6.5270   27.5150 C.2    53  LYS53       0.2616
     76  O          7.2890    6.1470   28.1490 O.2    53  LYS53      -0.2715
     77  CB         8.9340    5.0340   25.5900 C.3    53  LYS53       0.0311
     78  CG         9.2750    4.9320   24.0800 C.3    53  LYS53       0.0038
     79  CD         9.5170    3.4770   23.6830 C.3    53  LYS53       0.0206
     80  CE        10.2010    3.3950   22.3060 C.3    53  LYS53       0.1093
     81  NZ         9.3430    3.8310   21.1720 N.3    53  LYS53      -0.1314
     82  N          9.3660    7.0390   28.0810 N.am   54  ARG54      -0.1977
     83  CA         9.4770    7.2230   29.5280 C.3    54  ARG54       0.1597
     84  C          8.4380    8.2300   30.0470 C.2    54  ARG54       0.2287
     85  O          7.8380    8.0250   31.0930 O.2    54  ARG54      -0.2864
     86  CB        10.8960    7.6890   29.8950 C.3    54  ARG54       0.0334
     87  CG        11.0990    8.0150   31.3820 C.3    54  ARG54       0.0492
     88  CD        12.5500    8.3670   31.7170 C.3    54  ARG54       0.2205
     89  NE        13.0760    9.4750   30.9210 N.pl3  54  ARG54      -0.0865
     90  CZ        12.8790   10.7670   31.1900 C.cat  54  ARG54       0.5346
     91  NH1       12.1500   11.1310   32.2410 N.pl3  54  ARG54       0.1354
     92  NH2       13.4120   11.7020   30.4010 N.pl3  54  ARG54       0.1354
@<TRIPOS>BOND
     1    10    11    2
     2    10     9    1
     3     9     8    1
     4     9    12    1
     5    16    14   ar
     6    12    13    1
     7    14    13    1
     8    14    15   ar
     9    30    28   ar
    10    30    29   ar
    11    28    26   ar
    12    29    27   ar
    13    26    25   ar
    14    26    24   ar
    15    25    23   ar
    16    27    24   ar
    17    24    22   ar
    18    17    18    1
    19    23    22   ar
    20    22    21    1
    21    18    21    1
    22    18    19    1
    23     4     3    2
    24    19    20    2
    25     3     2    1
    26     6     5    1
    27     6     7    1
    28     2     5    1
    29     2     1    1
    30     1     7    1
    31    43    44    1
    32    43    40    1
    33    39    40    1
    34    40    41    1
    35    42    41    2
    36    41    45   am
    37    81    80    1
    38    71    72   ar
    39    71    69   ar
    40    72    70   ar
    41    69    68   ar
    42    70    68   ar
    43    45    46    1
    44    68    67    1
    45    80    79    1
    46    46    47    1
    47    46    49    1
    48    67    64    1
    49    53    47   am
    50    53    54    1
    51    47    48    2
    52    54    55    1
    53    79    78    1
    54    49    50    1
    55    78    77    1
    56    64    63    1
    57    64    65    1
    58    55    57   am
    59    55    56    2
    60    63    59   am
    61    52    50   ar
    62    50    51   ar
    63    57    58    1
    64    65    73   am
    65    65    66    2
    66    73    74    1
    67    77    74    1
    68    74    75    1
    69    33    34    2
    70    33    32    1
    71    59    58    1
    72    59    60    2
    73    58    61    1
    74    31    32    1
    75    61    62    1
    76    32    35    1
    77    75    82   am
    78    75    76    2
    79    82    83    1
    80    35    36    1
    81    36    38    1
    82    36    37    1
    83    83    86    1
    84    83    84    1
    85    86    87    1
    86    84    85    2
    87    92    90    1
    88    89    90    2
    89    89    88    1
    90    90    91    1
    91    87    88    1
