@<TRIPOS>MOLECULE
tmp/3tc5A00.pdb
 139 131 0 0 0
SMALL
GASTEIGER

@<TRIPOS>ATOM
      1  N         31.4900  -20.0370   18.2980 N.3    40  HIS40      -0.1241
      2  CA        31.7740  -20.7310   17.0540 C.3    40  HIS40       0.1621
      3  C         32.4970  -22.0400   17.2640 C.2    40  HIS40       0.2264
      4  O         33.0820  -22.2920   18.3230 O.2    40  HIS40      -0.2867
      5  CB        32.5040  -19.8260   16.0500 C.3    40  HIS40       0.0745
      6  CG        33.9820  -19.7090   16.2640 C.ar   40  HIS40       0.0817
      7  ND1       34.8670  -19.6320   15.2100 N.ar   40  HIS40      -0.2268
      8  CD2       34.7280  -19.6250   17.3910 C.ar   40  HIS40       0.1154
      9  CE1       36.0960  -19.5090   15.6790 C.ar   40  HIS40       0.1986
     10  NE2       36.0400  -19.5040   16.9990 N.ar   40  HIS40      -0.2212
     11  N         35.2640  -23.9480   14.8930 N.3    42  LEU42      -0.1245
     12  CA        36.1190  -23.7930   13.7190 C.3    42  LEU42       0.1561
     13  C         36.7550  -25.1230   13.3580 C.2    42  LEU42       0.2260
     14  O         37.3060  -25.7940   14.2180 O.2    42  LEU42      -0.2867
     15  CB        37.2210  -22.7760   14.0190 C.3    42  LEU42       0.0270
     16  CG        38.3100  -22.5260   12.9600 C.3    42  LEU42       0.0019
     17  CD1       37.7180  -22.0360   11.6360 C.3    42  LEU42       0.0001
     18  CD2       39.3230  -21.5370   13.5020 C.3    42  LEU42       0.0001
     19  N         39.7390  -26.1370   10.8740 N.3    44  LYS44      -0.1245
     20  CA        40.7840  -25.6380    9.9890 C.3    44  LYS44       0.1561
     21  C         41.1410  -26.6770    8.9330 C.2    44  LYS44       0.2260
     22  O         40.7620  -27.8450    9.0320 O.2    44  LYS44      -0.2867
     23  CB        42.0200  -25.2280   10.7960 C.3    44  LYS44       0.0271
     24  CG        41.8080  -23.9770   11.6310 C.3    44  LYS44       0.0035
     25  CD        43.1160  -23.4920   12.2690 C.3    44  LYS44       0.0206
     26  CE        42.9360  -22.1680   12.9950 C.3    44  LYS44       0.1093
     27  NZ        44.2390  -21.5880   13.4570 N.3    44  LYS44      -0.1314
     28  N         44.9120  -19.8700    7.0230 N.3    49  ARG49      -0.1231
     29  CA        46.0110  -18.9080    7.1530 C.3    49  ARG49       0.1694
     30  C         46.9970  -19.3360    8.2470 C.2    49  ARG49       0.2591
     31  O         48.2000  -19.1230    8.1120 O.2    49  ARG49      -0.2718
     32  CB        45.4850  -17.4880    7.3790 C.3    49  ARG49       0.0321
     33  CG        44.7600  -17.2590    8.6860 C.3    49  ARG49       0.0489
     34  CD        44.1720  -15.8700    8.7510 C.3    49  ARG49       0.2205
     35  NE        43.6800  -15.5590   10.0910 N.pl3  49  ARG49      -0.0865
     36  CZ        43.1530  -14.3940   10.4610 C.cat  49  ARG49       0.5346
     37  NH1       42.7480  -14.2310   11.7150 N.pl3  49  ARG49       0.1354
     38  NH2       43.0300  -13.3920    9.5960 N.pl3  49  ARG49       0.1354
     39  N         46.4830  -19.9510    9.3100 N.am   50  ARG50      -0.1980
     40  CA        47.2980  -20.5370   10.3720 C.3    50  ARG50       0.1597
     41  C         46.9250  -22.0180   10.5550 C.2    50  ARG50       0.2287
     42  O         46.0790  -22.3310   11.3900 O.2    50  ARG50      -0.2864
     43  CB        47.0400  -19.8050   11.6910 C.3    50  ARG50       0.0334
     44  CG        47.6990  -18.4430   11.8590 C.3    50  ARG50       0.0492
     45  CD        47.6670  -18.0060   13.3360 C.3    50  ARG50       0.2205
     46  NE        47.7730  -19.1560   14.2430 N.pl3  50  ARG50      -0.0865
     47  CZ        46.9130  -19.4750   15.2180 C.cat  50  ARG50       0.5346
     48  NH1       47.1360  -20.5680   15.9460 N.pl3  50  ARG50       0.1354
     49  NH2       45.8480  -18.7200   15.5010 N.pl3  50  ARG50       0.1354
     50  N         40.0010  -23.7520   17.4920 N.3    94  CYS94      -0.1235
     51  CA        40.1790  -22.3950   17.9940 C.3    94  CYS94       0.1677
     52  C         40.3810  -22.4940   19.4960 C.2    94  CYS94       0.2270
     53  O         39.7870  -23.3590   20.1470 O.2    94  CYS94      -0.2867
     54  CB        38.9440  -21.5410   17.6870 C.3    94  CYS94       0.0956
     55  SG        39.0420  -19.8140   18.2380 S.3    94  CYS94      -0.0801
     56  N         32.9260  -16.4580   22.0220 N.3   103  LEU103     -0.1245
     57  CA        33.8210  -15.3710   21.6090 C.3   103  LEU103      0.1561
     58  C         33.5020  -14.0630   22.3210 C.2   103  LEU103      0.2260
     59  O         34.2320  -13.0850   22.1610 O.2   103  LEU103     -0.2867
     60  CB        33.7220  -15.1510   20.0960 C.3   103  LEU103      0.0270
     61  CG        34.1890  -16.3300   19.2420 C.3   103  LEU103      0.0019
     62  CD1       33.8600  -16.0890   17.7710 C.3   103  LEU103      0.0001
     63  CD2       35.6750  -16.5570   19.4450 C.3   103  LEU103      0.0001
     64  N         30.9680  -10.6750   23.2430 N.3   105  ALA105     -0.1231
     65  CA        30.1600   -9.7280   22.4800 C.3   105  ALA105      0.1694
     66  C         31.0450   -8.8080   21.6500 C.2   105  ALA105      0.2592
     67  O         32.2020   -8.5680   21.9880 O.2   105  ALA105     -0.2718
     68  CB        29.2730   -8.9170   23.4070 C.3   105  ALA105      0.0304
     69  N         30.4900   -8.3110   20.5520 N.am  106  PHE106     -0.1976
     70  CA        31.2310   -7.4360   19.6480 C.3   106  PHE106      0.1639
     71  C         30.2930   -6.6330   18.7540 C.2   106  PHE106      0.2290
     72  O         29.1350   -7.0010   18.5500 O.2   106  PHE106     -0.2864
     73  CB        32.2310   -8.2430   18.8040 C.3   106  PHE106      0.0560
     74  CG        31.6310   -9.4560   18.1280 C.ar  106  PHE106     -0.0200
     75  CD1       30.9750   -9.3370   16.9060 C.ar  106  PHE106     -0.0042
     76  CD2       31.7390  -10.7160   18.7050 C.ar  106  PHE106     -0.0042
     77  CE1       30.4260  -10.4580   16.2770 C.ar  106  PHE106     -0.0003
     78  CE2       31.1950  -11.8340   18.0830 C.ar  106  PHE106     -0.0003
     79  CZ        30.5400  -11.7040   16.8710 C.ar  106  PHE106     -0.0000
     80  N         35.3610   -5.3570   13.6930 N.3   110  GLN110     -0.1231
     81  CA        36.3880   -5.9900   14.5110 C.3   110  GLN110      0.1698
     82  C         37.0290   -7.2350   13.8850 C.2   110  GLN110      0.2592
     83  O         38.0560   -7.7030   14.3770 O.2   110  GLN110     -0.2718
     84  CB        35.7920   -6.3670   15.8810 C.3   110  GLN110      0.0381
     85  CG        34.9990   -5.2620   16.5490 C.3   110  GLN110      0.0905
     86  CD        34.5740   -5.6210   17.9700 C.2   110  GLN110      0.2608
     87  OE1       33.6260   -5.0370   18.5240 O.2   110  GLN110     -0.2717
     88  NE2       35.2720   -6.5880   18.5790 N.am  110  GLN110     -0.0878
     89  N         36.4500   -7.7740   12.8100 N.am  111  MET111     -0.1965
     90  CA        36.8000   -9.1350   12.3850 C.3   111  MET111      0.1736
     91  C         36.6280   -9.4260   10.8900 C.2   111  MET111      0.2616
     92  O         36.1950   -8.5740   10.1160 O.2   111  MET111     -0.2715
     93  CB        35.9340  -10.1180   13.1690 C.3   111  MET111      0.0427
     94  CG        34.5240  -10.2490   12.6120 C.3   111  MET111      0.0599
     95  SD        33.2260  -10.1240   13.8340 S.3   111  MET111     -0.1393
     96  CE        33.3520   -8.3940   14.2860 C.3   111  MET111      0.0692
     97  N         36.9470  -10.6630   10.5120 N.am  112  GLN112     -0.1977
     98  CA        36.8220  -11.1140    9.1290 C.3   112  GLN112      0.1601
     99  C         35.3700  -11.0100    8.6620 C.2   112  GLN112      0.2287
    100  O         34.4390  -11.4160    9.3670 O.2   112  GLN112     -0.2864
    101  CB        37.3480  -12.5420    8.9800 C.3   112  GLN112      0.0394
    102  CG        38.8260  -12.6890    9.3490 C.3   112  GLN112      0.0908
    103  CD        39.3740  -14.0770    9.0880 C.2   112  GLN112      0.2608
    104  OE1       39.7060  -14.8140   10.0170 O.2   112  GLN112     -0.2717
    105  NE2       39.4680  -14.4430    7.8150 N.am  112  GLN112     -0.0878
    106  N         32.4820  -13.8050    8.5790 N.3   115  PHE115     -0.1241
    107  CA        32.0910  -14.1460    9.9450 C.3   115  PHE115      0.1605
    108  C         31.2150  -13.0520   10.5410 C.2   115  PHE115      0.2264
    109  O         30.1850  -13.3290   11.1430 O.2   115  PHE115     -0.2867
    110  CB        33.3320  -14.3630   10.8160 C.3   115  PHE115      0.0534
    111  CG        33.0280  -14.9560   12.1660 C.ar  115  PHE115     -0.0203
    112  CD1       32.5580  -14.1600   13.2060 C.ar  115  PHE115     -0.0042
    113  CD2       33.2250  -16.3120   12.4010 C.ar  115  PHE115     -0.0042
    114  CE1       32.2640  -14.7180   14.4460 C.ar  115  PHE115     -0.0003
    115  CE2       32.9440  -16.8710   13.6390 C.ar  115  PHE115     -0.0003
    116  CZ        32.4590  -16.0780   14.6560 C.ar  115  PHE115     -0.0000
    117  N         36.0040  -18.5950    6.0030 N.3   133  THR133     -0.1218
    118  CA        36.9180  -17.4590    6.1470 C.3   133  THR133      0.1862
    119  C         38.3390  -17.9030    5.8230 C.2   133  THR133      0.2287
    120  O         38.5870  -19.0720    5.5190 O.2   133  THR133     -0.2866
    121  CB        36.9050  -16.8660    7.5790 C.3   133  THR133      0.1770
    122  OG1       37.5250  -17.7820    8.4840 O.3   133  THR133     -0.2211
    123  CG2       35.4900  -16.5450    8.0480 C.3   133  THR133      0.0375
    124  N         40.4640  -18.2810    7.9810 N.3   135  SER135     -0.1217
    125  CA        40.8500  -19.1480    9.0920 C.3   135  SER135      0.1889
    126  C         40.4750  -20.6090    8.8810 C.2   135  SER135      0.2288
    127  O         41.1290  -21.4930    9.4160 O.2   135  SER135     -0.2866
    128  CB        40.2240  -18.6690   10.3970 C.3   135  SER135      0.2089
    129  OG        40.5840  -17.3310   10.6570 O.3   135  SER135     -0.2183
    130  N         33.5690  -22.3160    9.6800 N.3   138  HIS138     -0.1241
    131  CA        32.9570  -22.0440   10.9790 C.3   138  HIS138      0.1621
    132  C         31.4960  -22.4710   11.0100 C.2   138  HIS138      0.2264
    133  O         30.7870  -22.3490   10.0100 O.2   138  HIS138     -0.2867
    134  CB        32.9770  -20.5420   11.3000 C.3   138  HIS138      0.0745
    135  CG        34.3240  -19.8970   11.1820 C.ar  138  HIS138      0.0817
    136  ND1       35.0810  -19.5590   12.2830 N.ar  138  HIS138     -0.2268
    137  CD2       35.0360  -19.5040   10.0990 C.ar  138  HIS138      0.1154
    138  CE1       36.2030  -18.9840   11.8800 C.ar  138  HIS138      0.1986
    139  NE2       36.2040  -18.9470   10.5600 N.ar  138  HIS138     -0.2212
@<TRIPOS>BOND
     1   120   119    2
     2   119   118    1
     3   117   118    1
     4   118   121    1
     5    28    29    1
     6    29    32    1
     7    29    30    1
     8    32    33    1
     9   121   123    1
    10   121   122    1
    11   105   103   am
    12   124   125    1
    13    31    30    2
    14    30    39   am
    15   106   107    1
    16    99    98    1
    17    99   100    2
    18    33    34    1
    19    34    35    1
    20   126   125    1
    21   126   127    2
    22    21    22    2
    23    21    20    1
    24   101    98    1
    25   101   102    1
    26   103   102    1
    27   103   104    2
    28   125   128    1
    29    98    97    1
    30    39    40    1
    31    38    36    1
    32   130   131    1
    33   107   108    1
    34   107   110    1
    35    20    23    1
    36    20    19    1
    37   133   132    2
    38    35    36    2
    39   137   139   ar
    40   137   135   ar
    41    92    91    2
    42    40    41    1
    43    40    43    1
    44   128   129    1
    45    36    37    1
    46    97    91   am
    47   108   109    2
    48    41    42    2
    49   139   138   ar
    50    23    24    1
    51   110   111    1
    52    91    90    1
    53   131   132    1
    54   131   134    1
    55   135   134    1
    56   135   136   ar
    57    24    25    1
    58    17    16    1
    59    43    44    1
    60    44    45    1
    61   138   136   ar
    62   111   113   ar
    63   111   112   ar
    64    25    26    1
    65    90    89    1
    66    90    93    1
    67   113   115   ar
    68    94    93    1
    69    94    95    1
    70    89    82   am
    71    16    18    1
    72    16    15    1
    73    26    27    1
    74   112   114   ar
    75    45    46    1
    76    13    12    1
    77    13    14    2
    78   115   116   ar
    79    80    81    1
    80    12    15    1
    81    12    11    1
    82    95    96    1
    83    82    83    2
    84    82    81    1
    85    46    47    2
    86   114   116   ar
    87    81    84    1
    88     7     9   ar
    89     7     6   ar
    90    47    49    1
    91    47    48    1
    92     9    10   ar
    93    84    85    1
    94     5     6    1
    95     5     2    1
    96     6     8   ar
    97    77    79   ar
    98    77    75   ar
    99    85    86    1
   100    79    78   ar
   101    75    74   ar
   102    10     8   ar
   103     2     3    1
   104     2     1    1
   105     3     4    2
   106    50    51    1
   107    54    51    1
   108    54    55    1
   109    62    61    1
   110    86    87    2
   111    86    88   am
   112    51    52    1
   113    78    76   ar
   114    74    76   ar
   115    74    73    1
   116    72    71    2
   117    71    70    1
   118    73    70    1
   119    61    63    1
   120    61    60    1
   121    52    53    2
   122    70    69    1
   123    60    57    1
   124    69    66   am
   125    57    56    1
   126    57    58    1
   127    66    67    2
   128    66    65    1
   129    59    58    2
   130    65    64    1
   131    65    68    1
