@<TRIPOS>MOLECULE
tmp/3tc5A01.pdb
 122 120 0 0 0
SMALL
GASTEIGER

@<TRIPOS>ATOM
      1  N         13.2120  -28.1780   -2.1870 N.3    10  SER10      -0.1202
      2  CA        14.0410  -29.3050   -1.7730 C.3    10  SER10       0.2020
      3  C         14.3440  -30.2150   -2.9600 C.2    10  SER10       0.2618
      4  O         13.4310  -30.6610   -3.6560 O.2    10  SER10      -0.2717
      5  CB        13.3460  -30.1180   -0.6850 C.3    10  SER10       0.2103
      6  OG        14.1160  -31.2650   -0.3650 O.3    10  SER10      -0.2182
      7  N         15.6290  -30.4840   -3.1750 N.am   11  ARG11      -0.1979
      8  CA        16.0780  -31.2950   -4.3040 C.3    11  ARG11       0.1597
      9  C         15.5980  -32.7380   -4.1710 C.2    11  ARG11       0.2287
     10  O         15.3150  -33.3970   -5.1730 O.2    11  ARG11      -0.2864
     11  CB        17.6080  -31.2420   -4.4100 C.3    11  ARG11       0.0334
     12  CG        18.2020  -31.8500   -5.6750 C.3    11  ARG11       0.0492
     13  CD        17.6770  -31.1880   -6.9370 C.3    11  ARG11       0.2205
     14  NE        17.8730  -29.7390   -6.9390 N.pl3  11  ARG11      -0.0865
     15  CZ        18.9760  -29.1150   -7.3570 C.cat  11  ARG11       0.5346
     16  NH1       20.0210  -29.7980   -7.8160 N.pl3  11  ARG11       0.1354
     17  NH2       19.0330  -27.7880   -7.3070 N.pl3  11  ARG11       0.1354
     18  N         11.5230  -24.6960    1.0050 N.3    17  TYR17      -0.1241
     19  CA        12.3010  -24.3300    2.1810 C.3    17  TYR17       0.1605
     20  C         12.9360  -22.9710    1.9730 C.2    17  TYR17       0.2264
     21  O         12.7800  -22.3590    0.9200 O.2    17  TYR17      -0.2867
     22  CB        13.3510  -25.3960    2.5090 C.3    17  TYR17       0.0534
     23  CG        14.5470  -25.4240    1.5920 C.ar   17  TYR17      -0.0201
     24  CD1       14.5010  -26.0920    0.3780 C.ar   17  TYR17      -0.0009
     25  CD2       15.7380  -24.8000    1.9520 C.ar   17  TYR17      -0.0009
     26  CE1       15.6090  -26.1240   -0.4650 C.ar   17  TYR17       0.0417
     27  CE2       16.8480  -24.8350    1.1230 C.ar   17  TYR17       0.0417
     28  CZ        16.7740  -25.4900   -0.0860 C.ar   17  TYR17       0.1957
     29  OH        17.8700  -25.5240   -0.9080 O.3    17  TYR17      -0.2866
     30  N         24.3230  -19.0190    5.4560 N.3    24  ASN24      -0.1225
     31  CA        24.2310  -20.3990    4.9450 C.3    24  ASN24       0.1785
     32  C         23.2710  -21.2860    5.7440 C.2    24  ASN24       0.2597
     33  O         23.3200  -22.5110    5.6370 O.2    24  ASN24      -0.2718
     34  CB        25.6210  -21.0340    4.7900 C.3    24  ASN24       0.1169
     35  CG        26.3840  -20.4620    3.6130 C.2    24  ASN24       0.2627
     36  OD1       27.6050  -20.2460    3.6760 O.2    24  ASN24      -0.2716
     37  ND2       25.6670  -20.2150    2.5250 N.am   24  ASN24      -0.0877
     38  N         22.3800  -20.6560    6.5070 N.am   25  ALA25      -0.1966
     39  CA        21.3230  -21.3800    7.2140 C.3    25  ALA25       0.1728
     40  C         20.2390  -21.8230    6.2430 C.2    25  ALA25       0.2617
     41  O         19.9570  -21.1530    5.2420 O.2    25  ALA25      -0.2715
     42  CB        20.7080  -20.5100    8.3100 C.3    25  ALA25       0.0334
     43  N         19.6220  -22.9570    6.5600 N.am   26  SER26      -0.1936
     44  CA        18.4730  -23.4330    5.8100 C.3    26  SER26       0.2055
     45  C         17.4510  -24.0170    6.7730 C.2    26  SER26       0.2643
     46  O         17.8220  -24.6460    7.7610 O.2    26  SER26      -0.2714
     47  CB        18.8850  -24.4650    4.7610 C.3    26  SER26       0.2130
     48  OG        19.7500  -25.4410    5.2960 O.3    26  SER26      -0.2179
     49  N         16.1740  -23.7870    6.4760 N.am   27  GLN27      -0.1963
     50  CA        15.0740  -24.1750    7.3670 C.3    27  GLN27       0.1733
     51  C         13.7790  -24.3600    6.5750 C.2    27  GLN27       0.2616
     52  O         13.6110  -23.7860    5.5040 O.2    27  GLN27      -0.2715
     53  CB        14.8880  -23.1250    8.4770 C.3    27  GLN27       0.0408
     54  CG        14.4290  -21.7560    7.9940 C.3    27  GLN27       0.0908
     55  CD        14.3340  -20.7330    9.1130 C.2    27  GLN27       0.2608
     56  OE1       15.2910  -20.5120    9.8450 O.2    27  GLN27      -0.2717
     57  NE2       13.1820  -20.0890    9.2310 N.am   27  GLN27      -0.0878
     58  N         12.8620  -25.1590    7.1160 N.am   28  TRP28      -0.1974
     59  CA        11.5690  -25.3960    6.4720 C.3    28  TRP28       0.1640
     60  C         10.5770  -24.2420    6.6470 C.2    28  TRP28       0.2290
     61  O          9.8380  -23.9210    5.7210 O.2    28  TRP28      -0.2864
     62  CB        10.9390  -26.6920    6.9940 C.3    28  TRP28       0.0576
     63  CG        11.6920  -27.9340    6.6120 C.ar   28  TRP28       0.0006
     64  CD1       12.3310  -28.8000    7.4560 C.ar   28  TRP28       0.0946
     65  CD2       11.8960  -28.4490    5.2890 C.ar   28  TRP28       0.0152
     66  NE1       12.8940  -29.8220    6.7460 N.ar   28  TRP28      -0.2442
     67  CE2       12.6540  -29.6290    5.4120 C.ar   28  TRP28       0.0810
     68  CE3       11.5010  -28.0340    4.0130 C.ar   28  TRP28       0.0012
     69  CZ2       13.0270  -30.3970    4.3080 C.ar   28  TRP28       0.0191
     70  CZ3       11.8700  -28.8000    2.9160 C.ar   28  TRP28       0.0001
     71  CH2       12.6310  -29.9630    3.0680 C.ar   28  TRP28       0.0015
     72  N         27.0100  -30.1160   12.1960 N.3    74  ILE74      -0.1231
     73  CA        25.7210  -29.4510   12.0190 C.3    74  ILE74       0.1692
     74  C         24.5810  -30.4650   12.1200 C.2    74  ILE74       0.2591
     75  O         23.5760  -30.1980   12.7780 O.2    74  ILE74      -0.2718
     76  CB        25.6440  -28.6610   10.6940 C.3    74  ILE74       0.0266
     77  CG1       26.5580  -27.4350   10.7520 C.3    74  ILE74       0.0019
     78  CG2       24.2100  -28.2120   10.4130 C.3    74  ILE74       0.0020
     79  CD1       26.7470  -26.7350    9.4200 C.3    74  ILE74       0.0001
     80  N         24.7420  -31.6280   11.4890 N.am   75  GLN75      -0.1979
     81  CA        23.7240  -32.6790   11.5790 C.3    75  GLN75       0.1601
     82  C         23.4630  -33.0920   13.0210 C.2    75  GLN75       0.2287
     83  O         22.3010  -33.1700   13.4470 O.2    75  GLN75      -0.2864
     84  CB        24.1180  -33.9040   10.7530 C.3    75  GLN75       0.0394
     85  CG        23.9930  -33.6930    9.2670 C.3    75  GLN75       0.0908
     86  CD        24.4020  -34.9070    8.4650 C.2    75  GLN75       0.2608
     87  OE1       25.3990  -35.5610    8.7750 O.2    75  GLN75      -0.2717
     88  NE2       23.6400  -35.2110    7.4220 N.am   75  GLN75      -0.0878
     89  N         21.7450  -30.2260   15.0300 N.3    78  LYS78      -0.1245
     90  CA        20.3400  -30.0810   14.6340 C.3    78  LYS78       0.1561
     91  C         19.4610  -31.2440   15.0950 C.2    78  LYS78       0.2260
     92  O         18.2740  -31.0540   15.3600 O.2    78  LYS78      -0.2867
     93  CB        20.2220  -29.9240   13.1210 C.3    78  LYS78       0.0271
     94  CG        20.5940  -28.5510   12.6050 C.3    78  LYS78       0.0035
     95  CD        20.0270  -28.3480   11.2040 C.3    78  LYS78       0.0206
     96  CE        20.1180  -26.9090   10.7660 C.3    78  LYS78       0.1093
     97  NZ        19.4280  -26.6640    9.4750 N.3    78  LYS78      -0.1314
     98  N         21.6300  -20.6340   14.5220 N.3   127  MET127     -0.1230
     99  CA        22.9220  -21.1630   14.1310 C.3   127  MET127      0.1702
    100  C         23.1100  -21.0460   12.6260 C.2   127  MET127      0.2593
    101  O         22.1780  -21.2410   11.8380 O.2   127  MET127     -0.2718
    102  CB        23.0290  -22.6260   14.5630 C.3   127  MET127      0.0401
    103  CG        24.3980  -23.2570   14.4000 C.3   127  MET127      0.0596
    104  SD        24.4140  -24.9830   14.9160 S.3   127  MET127     -0.1393
    105  CE        23.4630  -25.7680   13.6150 C.3   127  MET127      0.0692
    106  N         24.3370  -20.7330   12.2310 N.am  128  SER128     -0.1938
    107  CA        24.6740  -20.6020   10.8210 C.3   128  SER128      0.2055
    108  C         24.8480  -21.9700   10.1680 C.2   128  SER128      0.2644
    109  O         24.9220  -22.9960   10.8460 O.2   128  SER128     -0.2714
    110  CB        25.9750  -19.8070   10.6540 C.3   128  SER128      0.2130
    111  OG        27.1100  -20.5950   10.9890 O.3   128  SER128     -0.2179
    112  N         24.9340  -21.9700    8.8420 N.am  129  GLY129     -0.1940
    113  CA        25.5100  -23.0900    8.1150 C.3   129  GLY129      0.1998
    114  C         27.0220  -22.9300    8.1000 C.2   129  GLY129      0.2480
    115  O         27.5870  -22.1350    8.8690 O.2   129  GLY129     -0.2729
    116  N         27.7060  -23.6780    7.2270 N.am  130  PRO130     -0.2726
    117  CA        29.1560  -23.5010    7.1100 C.3   130  PRO130      0.1402
    118  C         29.4880  -22.0980    6.6360 C.2   130  PRO130      0.2269
    119  O         28.9340  -21.6540    5.6400 O.2   130  PRO130     -0.2865
    120  CB        29.5610  -24.5440    6.0620 C.3   130  PRO130      0.0296
    121  CG        28.4280  -25.5360    6.0500 C.3   130  PRO130      0.0237
    122  CD        27.1970  -24.7580    6.3640 C.3   130  PRO130      0.0939
@<TRIPOS>BOND
     1    16    15    1
     2    15    17    1
     3    15    14    2
     4    14    13    1
     5    13    12    1
     6    12    11    1
     7    10     9    2
     8    11     8    1
     9     8     9    1
    10     8     7    1
    11     4     3    2
    12     7     3   am
    13     3     2    1
    14     1     2    1
    15     2     5    1
    16    29    28    1
    17     5     6    1
    18    26    28   ar
    19    26    24   ar
    20    28    27   ar
    21    24    23   ar
    22    21    20    2
    23    18    19    1
    24    27    25   ar
    25    23    25   ar
    26    23    22    1
    27    20    19    1
    28    19    22    1
    29    37    35   am
    30    70    71   ar
    31    70    68   ar
    32    71    69   ar
    33    35    36    2
    34    35    34    1
    35    68    65   ar
    36    69    67   ar
    37    47    48    1
    38    47    44    1
    39    34    31    1
    40    31    30    1
    41    31    32    1
    42    41    40    2
    43    65    67   ar
    44    65    63   ar
    45    67    66   ar
    46    52    51    2
    47    33    32    2
    48   119   118    2
    49    61    60    2
    50    32    38   am
    51    44    43    1
    52    44    45    1
    53   121   120    1
    54   121   122    1
    55   120   117    1
    56    40    43   am
    57    40    39    1
    58   122   116    1
    59    59    60    1
    60    59    62    1
    61    59    58    1
    62    49    45   am
    63    49    50    1
    64    38    39    1
    65    51    58   am
    66    51    50    1
    67    63    62    1
    68    63    64   ar
    69   118   117    1
    70    66    64   ar
    71    45    46    2
    72   117   116    1
    73    39    42    1
    74   116   114   am
    75    50    53    1
    76    88    86   am
    77    54    53    1
    78    54    55    1
    79   114   113    1
    80   114   115    2
    81   113   112    1
    82    86    87    2
    83    86    85    1
    84   112   108   am
    85    55    57   am
    86    55    56    2
    87    85    84    1
    88    79    77    1
    89    97    96    1
    90   108   107    1
    91   108   109    2
    92    78    76    1
    93   110   107    1
    94   110   111    1
    95    76    77    1
    96    76    73    1
    97    84    81    1
    98    96    95    1
    99   107   106    1
   100    95    94    1
   101    80    81    1
   102    80    74   am
   103    81    82    1
   104   101   100    2
   105    73    74    1
   106    73    72    1
   107    74    75    2
   108   106   100   am
   109    94    93    1
   110   100    99    1
   111    82    83    2
   112    93    90    1
   113   105   104    1
   114    99    98    1
   115    99   102    1
   116   103   102    1
   117   103   104    1
   118    90    89    1
   119    90    91    1
   120    91    92    2
