@<TRIPOS>MOLECULE
tmp/3tc6A00.pdb
 73 71 0 0 0
SMALL
GASTEIGER

@<TRIPOS>ATOM
      1  N        -15.6100   44.1370   62.4570 N.3   197  ILE197     -0.1231
      2  CA       -16.1580   44.9660   61.3910 C.3   197  ILE197      0.1692
      3  C        -16.6200   46.3200   61.9260 C.2   197  ILE197      0.2593
      4  O        -16.4170   47.3500   61.2800 O.2   197  ILE197     -0.2718
      5  CB       -17.3440   44.2450   60.7090 C.3   197  ILE197      0.0266
      6  CG1      -16.8110   43.0650   59.8920 C.3   197  ILE197      0.0019
      7  CG2      -18.1330   45.2150   59.8440 C.3   197  ILE197      0.0020
      8  CD1      -17.8740   42.0660   59.4790 C.3   197  ILE197      0.0001
      9  N        -17.2190   46.3170   63.1150 N.am  198  SER198     -0.1938
     10  CA       -17.7280   47.5450   63.7200 C.3   198  SER198      0.2055
     11  C        -16.6380   48.5140   64.1820 C.2   198  SER198      0.2643
     12  O        -16.9250   49.6750   64.4760 O.2   198  SER198     -0.2714
     13  CB       -18.6390   47.2120   64.9110 C.3   198  SER198      0.2130
     14  OG       -17.8930   46.7920   66.0460 O.3   198  SER198     -0.2179
     15  N        -15.5280   48.0090   64.1230 N.am  199  MET199     -0.1962
     16  CA       -14.3790   48.7720   64.6140 C.3   199  MET199      0.1736
     17  C        -13.5320   49.3970   63.5080 C.2   199  MET199      0.2616
     18  O        -12.5510   50.0920   63.7850 O.2   199  MET199     -0.2715
     19  CB       -13.4740   47.8640   65.4620 C.3   199  MET199      0.0427
     20  CG       -14.0700   47.4050   66.7830 C.3   199  MET199      0.0599
     21  SD       -12.9930   46.2570   67.7190 S.3   199  MET199     -0.1393
     22  CE       -11.7120   47.3220   68.2810 C.3   199  MET199      0.0692
     23  N        -13.8070   49.1400   62.3060 N.am  200  ILE200     -0.1964
     24  CA       -13.0540   49.6160   61.1490 C.3   200  ILE200      0.1712
     25  C        -13.5630   50.9320   60.5620 C.2   200  ILE200      0.2458
     26  O        -14.7630   51.1220   60.3910 O.2   200  ILE200     -0.2730
     27  CB       -13.0540   48.5480   60.0350 C.3   200  ILE200      0.0289
     28  CG1      -12.4640   47.2400   60.5700 C.3   200  ILE200      0.0022
     29  CG2      -12.2590   49.0350   58.8440 C.3   200  ILE200      0.0023
     30  CD1      -12.5460   46.0890   59.5870 C.3   200  ILE200      0.0001
     31  N        -12.6440   51.8610   60.2440 N.am  201  PRO201     -0.2716
     32  CA       -13.0240   53.1560   59.6680 C.3   201  PRO201      0.1536
     33  C        -13.8930   52.9480   58.4250 C.2   201  PRO201      0.2599
     34  O        -13.6580   52.0330   57.6400 O.2   201  PRO201     -0.2715
     35  CB       -11.6750   53.7910   59.3430 C.3   201  PRO201      0.0310
     36  CG       -10.8080   53.2810   60.4530 C.3   201  PRO201      0.0237
     37  CD       -11.1970   51.8150   60.5200 C.3   201  PRO201      0.0939
     38  N        -14.8230   53.8510   58.2300 N.am  202  SER202     -0.1950
     39  CA       -15.7360   53.6730   57.1550 C.3   202  SER202      0.1924
     40  C        -15.0610   53.7670   55.7770 C.2   202  SER202      0.2314
     41  O        -15.5380   53.2060   54.8410 O.2   202  SER202     -0.2863
     42  CB       -16.9030   54.6270   57.2670 C.3   202  SER202      0.2116
     43  OG       -16.4230   55.8940   57.2540 O.3   202  SER202     -0.2180
     44  N        -14.0600   47.0130   53.1210 N.3   206  LYS206     -0.1245
     45  CA       -14.1550   45.8320   53.9670 C.3   206  LYS206      0.1561
     46  C        -14.7170   44.5860   53.3050 C.2   206  LYS206      0.2260
     47  O        -15.7790   44.6240   52.6900 O.2   206  LYS206     -0.2867
     48  CB       -15.0010   46.1790   55.1960 C.3   206  LYS206      0.0271
     49  CG       -14.3800   47.2520   56.0810 C.3   206  LYS206      0.0035
     50  CD       -15.3820   47.8170   57.0760 C.3   206  LYS206      0.0206
     51  CE       -16.3800   48.7420   56.4080 C.3   206  LYS206      0.1093
     52  NZ       -15.7520   49.9950   55.9080 N.3   206  LYS206     -0.1314
     53  N        -25.4450   46.2490   55.7120 N.3   223  LYS223     -0.1231
     54  CA       -25.9390   47.3190   56.5710 C.3   223  LYS223      0.1693
     55  C        -24.9440   47.6640   57.6720 C.2   223  LYS223      0.2592
     56  O        -24.9620   48.7700   58.2160 O.2   223  LYS223     -0.2718
     57  CB       -27.2830   46.9230   57.1870 C.3   223  LYS223      0.0285
     58  CG       -28.4400   47.0460   56.2140 C.3   223  LYS223      0.0035
     59  CD       -29.7330   46.4900   56.7810 C.3   223  LYS223      0.0206
     60  CE       -30.8940   46.7800   55.8380 C.3   223  LYS223      0.1093
     61  NZ       -32.0690   45.9040   56.1020 N.3   223  LYS223     -0.1314
     62  N        -24.0760   46.7130   58.0000 N.am  224  LEU224     -0.1966
     63  CA       -23.0740   46.9320   59.0310 C.3   224  LEU224      0.1728
     64  C        -21.7970   47.5320   58.4450 C.2   224  LEU224      0.2616
     65  O        -20.8140   47.7280   59.1570 O.2   224  LEU224     -0.2715
     66  CB       -22.7660   45.6190   59.7590 C.3   224  LEU224      0.0311
     67  CG       -23.9020   45.1130   60.6580 C.3   224  LEU224      0.0022
     68  CD1      -23.6020   43.6990   61.1390 C.3   224  LEU224      0.0001
     69  CD2      -24.0780   46.0630   61.8400 C.3   224  LEU224      0.0001
     70  N        -21.8190   47.8160   57.1450 N.am  225  GLY225     -0.1955
     71  CA       -20.6650   48.4250   56.5010 C.3   225  GLY225      0.1869
     72  C        -19.7900   47.5580   55.6120 C.2   225  GLY225      0.2309
     73  O        -18.8510   48.0630   54.9920 O.2   225  GLY225     -0.2863
@<TRIPOS>BOND
     1    47    46    2
     2    44    45    1
     3    46    45    1
     4    45    48    1
     5    41    40    2
     6    73    72    2
     7    48    49    1
     8    72    71    1
     9    53    54    1
    10    40    39    1
    11    60    61    1
    12    60    59    1
    13    52    51    1
    14    49    50    1
    15    58    59    1
    16    58    57    1
    17    51    50    1
    18    71    70    1
    19    54    57    1
    20    54    55    1
    21    70    64   am
    22    39    42    1
    23    39    38    1
    24    43    42    1
    25    34    33    2
    26    55    62   am
    27    55    56    2
    28    62    63    1
    29    38    33   am
    30    33    32    1
    31    64    63    1
    32    64    65    2
    33    29    27    1
    34    63    66    1
    35    35    32    1
    36    35    36    1
    37     8     6    1
    38    30    28    1
    39    32    31    1
    40    66    67    1
    41     7     5    1
    42     6     5    1
    43    27    28    1
    44    27    24    1
    45    31    37    1
    46    31    25   am
    47    26    25    2
    48    36    37    1
    49    25    24    1
    50    67    68    1
    51    67    69    1
    52     5     2    1
    53    24    23    1
    54     4     3    2
    55     2     3    1
    56     2     1    1
    57     3     9   am
    58    23    17   am
    59     9    10    1
    60    17    18    2
    61    17    16    1
    62    10    11    1
    63    10    13    1
    64    15    11   am
    65    15    16    1
    66    11    12    2
    67    16    19    1
    68    13    14    1
    69    19    20    1
    70    20    21    1
    71    21    22    1
