@<TRIPOS>MOLECULE
tmp/3tceA00.pdb
 89 84 0 0 0
SMALL
GASTEIGER

@<TRIPOS>ATOM
      1  N        -14.6380   -4.4100   -1.3800 N.3    48  ALA48      -0.1231
      2  CA       -15.6450   -3.4670   -1.8610 C.3    48  ALA48       0.1694
      3  C        -15.3470   -2.1010   -1.2580 C.2    48  ALA48       0.2592
      4  O        -15.4660   -1.0760   -1.9260 O.2    48  ALA48      -0.2718
      5  CB       -17.0380   -3.9180   -1.4360 C.3    48  ALA48       0.0304
      6  N        -14.9380   -2.1170    0.0100 N.am   49  SER49      -0.1952
      7  CA       -14.6360   -0.9180    0.7810 C.3    49  SER49       0.1924
      8  C        -13.6550    0.0760    0.2000 C.2    49  SER49       0.2314
      9  O        -13.8650    1.2850    0.3140 O.2    49  SER49      -0.2863
     10  CB       -14.1510   -1.3010    2.1780 C.3    49  SER49       0.2116
     11  OG       -15.2240   -1.7050    3.0060 O.3    49  SER49      -0.2180
     12  N        -12.7050    0.3590   -3.0900 N.3    51  LEU51      -0.1231
     13  CA       -12.7980    0.5460   -4.5290 C.3    51  LEU51       0.1693
     14  C        -13.8950    1.5730   -4.7560 C.2    51  LEU51       0.2593
     15  O        -14.9790    1.4880   -4.1600 O.2    51  LEU51      -0.2718
     16  CB       -13.1480   -0.7590   -5.2490 C.3    51  LEU51       0.0284
     17  CG       -12.1370   -1.9160   -5.2090 C.3    51  LEU51       0.0019
     18  CD1      -12.7800   -3.1460   -5.8470 C.3    51  LEU51       0.0001
     19  CD2      -10.8350   -1.5420   -5.9320 C.3    51  LEU51       0.0001
     20  N        -13.5960    2.5530   -5.6040 N.am   52  SER52      -0.1938
     21  CA       -14.5370    3.6140   -5.9360 C.3    52  SER52       0.2055
     22  C        -15.7450    3.0220   -6.6230 C.2    52  SER52       0.2642
     23  O        -15.7310    1.8640   -7.0390 O.2    52  SER52      -0.2714
     24  CB       -13.8880    4.5980   -6.9000 C.3    52  SER52       0.2130
     25  OG       -13.7060    3.9880   -8.1700 O.3    52  SER52      -0.2179
     26  N        -16.7910    3.8220   -6.7510 N.am   53  MET53      -0.1976
     27  CA       -17.9690    3.3600   -7.4520 C.3    53  MET53       0.1605
     28  C        -17.5500    3.0220   -8.8960 C.2    53  MET53       0.2287
     29  O        -18.0840    2.0850   -9.4880 O.2    53  MET53      -0.2864
     30  CB       -19.0560    4.4410   -7.4350 C.3    53  MET53       0.0413
     31  CG       -19.9770    4.3980   -6.2250 C.3    53  MET53       0.0598
     32  SD       -21.5350    3.5850   -6.6220 S.3    53  MET53      -0.1393
     33  CE       -22.5430    5.0130   -7.2080 C.3    53  MET53       0.0692
     34  N        -15.8500   -0.3150   -8.6100 N.3    56  HIS56      -0.1241
     35  CA       -16.8480   -1.2640   -8.1410 C.3    56  HIS56       0.1621
     36  C        -17.5550   -1.8260   -9.3760 C.2    56  HIS56       0.2264
     37  O        -17.7050   -3.0370   -9.5300 O.2    56  HIS56      -0.2867
     38  CB       -17.8480   -0.5340   -7.2430 C.3    56  HIS56       0.0745
     39  CG       -18.3500   -1.3530   -6.0940 C.ar   56  HIS56       0.0817
     40  ND1      -18.2640   -0.9260   -4.7850 N.ar   56  HIS56      -0.2268
     41  CD2      -18.9590   -2.5610   -6.0570 C.ar   56  HIS56       0.1154
     42  CE1      -18.7970   -1.8380   -3.9920 C.ar   56  HIS56       0.1986
     43  NE2      -19.2270   -2.8400   -4.7390 N.ar   56  HIS56      -0.2212
     44  N        -23.5710   -4.0170   -1.5120 N.3    78  GLY78      -0.1210
     45  CA       -23.8280   -3.4660   -0.1940 C.3    78  GLY78       0.1956
     46  C        -23.2600   -2.1060    0.1910 C.2    78  GLY78       0.2612
     47  O        -22.1390   -1.7300   -0.1870 O.2    78  GLY78      -0.2717
     48  N        -24.0590   -1.3860    0.9800 N.am   79  ALA79      -0.1965
     49  CA       -23.7260   -0.0670    1.5070 C.3    79  ALA79       0.1728
     50  C        -24.5290    0.1560    2.7960 C.2    79  ALA79       0.2616
     51  O        -25.6050   -0.4250    2.9930 O.2    79  ALA79      -0.2715
     52  CB       -24.0680    1.0190    0.4840 C.3    79  ALA79       0.0334
     53  N        -23.9970    0.9980    3.6760 N.am   80  ASN80      -0.1972
     54  CA       -24.6780    1.3020    4.9260 C.3    80  ASN80       0.1688
     55  C        -25.5990    2.5200    4.7500 C.2    80  ASN80       0.2292
     56  O        -26.1230    3.0680    5.7200 O.2    80  ASN80      -0.2864
     57  CB       -23.6220    1.7090    5.9490 C.3    80  ASN80       0.1181
     58  CG       -22.8230    2.9530    5.7660 C.2    80  ASN80       0.2629
     59  OD1      -22.5260    3.3490    4.6440 O.2    80  ASN80      -0.2716
     60  ND2      -22.4480    3.5820    6.8730 N.am   80  ASN80      -0.0877
     61  N        -27.6220    4.8300   -1.2840 N.3    84  GLU84      -0.1245
     62  CA       -26.4020    4.4150   -1.9580 C.3    84  GLU84       0.1567
     63  C        -26.5350    2.9530   -2.3670 C.2    84  GLU84       0.2260
     64  O        -26.2090    2.5780   -3.4940 O.2    84  GLU84      -0.2867
     65  CB       -25.1890    4.6310   -1.0460 C.3    84  GLU84       0.0388
     66  CG       -23.8530    4.4600   -1.7380 C.3    84  GLU84       0.1160
     67  CD       -22.6930    4.9180   -0.8790 C.2    84  GLU84       0.3649
     68  OE1      -21.5230    4.7710   -1.3160 O.co2  84  GLU84      -0.2457
     69  OE2      -22.9590    5.4260    0.2360 O.co2  84  GLU84      -0.2457
     70  N        -25.9040    1.2710   -6.1290 N.3    88  LEU88      -0.1245
     71  CA       -24.9650    0.1850   -6.3930 C.3    88  LEU88       0.1561
     72  C        -25.6800   -1.0470   -6.9400 C.2    88  LEU88       0.2260
     73  O        -25.1660   -1.7360   -7.8220 O.2    88  LEU88      -0.2867
     74  CB       -24.1930   -0.1760   -5.1220 C.3    88  LEU88       0.0270
     75  CG       -22.8950    0.5950   -4.8760 C.3    88  LEU88       0.0019
     76  CD1      -23.1820    2.0720   -4.6500 C.3    88  LEU88       0.0001
     77  CD2      -22.1350    0.0070   -3.6970 C.3    88  LEU88       0.0001
     78  N        -23.4970   -1.2210    7.9300 N.3   106  TYR106     -0.1241
     79  CA       -22.4760   -1.3100    8.9720 C.3   106  TYR106      0.1605
     80  C        -22.2910    0.0270    9.6350 C.2   106  TYR106      0.2264
     81  O        -22.6180    1.0720    9.0680 O.2   106  TYR106     -0.2867
     82  CB       -21.1270   -1.7430    8.3760 C.3   106  TYR106      0.0534
     83  CG       -20.8580   -1.1390    7.0160 C.ar  106  TYR106     -0.0201
     84  CD1      -20.4300    0.1860    6.8710 C.ar  106  TYR106     -0.0009
     85  CD2      -21.1350   -1.8670    5.8670 C.ar  106  TYR106     -0.0009
     86  CE1      -20.3010    0.7700    5.6070 C.ar  106  TYR106      0.0417
     87  CE2      -21.0120   -1.3000    4.6020 C.ar  106  TYR106      0.0417
     88  CZ       -20.6040    0.0170    4.4760 C.ar  106  TYR106      0.1957
     89  OH       -20.5650    0.5650    3.2130 O.3   106  TYR106     -0.2866
@<TRIPOS>BOND
     1    37    36    2
     2    29    28    2
     3    36    35    1
     4    28    27    1
     5    34    35    1
     6    25    24    1
     7    35    38    1
     8    73    72    2
     9    27    30    1
    10    27    26    1
    11    30    31    1
    12    38    39    1
    13    33    32    1
    14    23    22    2
    15    72    71    1
    16    24    21    1
    17    26    22   am
    18    22    21    1
    19    32    31    1
    20    71    70    1
    21    71    74    1
    22    39    41   ar
    23    39    40   ar
    24    41    43   ar
    25    21    20    1
    26    19    17    1
    27    18    17    1
    28    20    14   am
    29    16    17    1
    30    16    13    1
    31    74    75    1
    32    75    76    1
    33    75    77    1
    34    40    42   ar
    35    14    13    1
    36    14    15    2
    37    43    42   ar
    38    13    12    1
    39    64    63    2
    40    63    62    1
    41    62    61    1
    42    62    65    1
    43     4     3    2
    44     2     5    1
    45     2     1    1
    46     2     3    1
    47    66    65    1
    48    66    67    1
    49    44    45    1
    50    68    67   ar
    51     3     6   am
    52    67    69   ar
    53    45    46    1
    54    47    46    2
    55     6     7    1
    56    46    48   am
    57     8     9    2
    58     8     7    1
    59    52    49    1
    60     7    10    1
    61    48    49    1
    62    49    50    1
    63    10    11    1
    64    50    51    2
    65    50    53   am
    66    89    88    1
    67    53    54    1
    68    88    87   ar
    69    88    86   ar
    70    87    85   ar
    71    59    58    2
    72    55    54    1
    73    55    56    2
    74    54    57    1
    75    86    84   ar
    76    58    57    1
    77    58    60   am
    78    85    83   ar
    79    84    83   ar
    80    83    82    1
    81    78    79    1
    82    82    79    1
    83    79    80    1
    84    81    80    2
