@<TRIPOS>MOLECULE
tmp/3tcfE00.pdb
 67 64 0 0 0
SMALL
GASTEIGER

@<TRIPOS>ATOM
      1  N        -14.3040  -50.3300   64.3660 N.3    32  GLU32      -0.1231
      2  CA       -15.5310  -50.6740   65.0470 C.3    32  GLU32       0.1699
      3  C        -15.6330  -50.1300   66.4860 C.2    32  GLU32       0.2593
      4  O        -16.6720  -50.3110   67.1160 O.2    32  GLU32      -0.2718
      5  CB       -15.6660  -52.2000   65.0540 C.3    32  GLU32       0.0402
      6  CG       -14.6640  -52.8960   65.9070 C.3    32  GLU32       0.1161
      7  CD       -14.6050  -54.3800   65.6530 C.2    32  GLU32       0.3649
      8  OE1      -13.5220  -54.8850   65.3170 O.co2  32  GLU32      -0.2457
      9  OE2      -15.6350  -55.0270   65.8140 O.co2  32  GLU32      -0.2457
     10  N        -14.5600  -49.5270   67.0140 N.am   33  GLY33      -0.1942
     11  CA       -14.5450  -49.0410   68.4150 C.3    33  GLY33       0.2014
     12  C        -14.7480  -47.5360   68.6190 C.2    33  GLY33       0.2638
     13  O        -14.5970  -46.7320   67.7020 O.2    33  GLY33      -0.2714
     14  N        -15.0850  -47.1600   69.8490 N.am   34  VAL34      -0.1977
     15  CA       -15.2010  -45.7550   70.2460 C.3    34  VAL34       0.1596
     16  C        -13.8820  -44.9970   70.0570 C.2    34  VAL34       0.2287
     17  O        -13.8890  -43.8920   69.4960 O.2    34  VAL34      -0.2864
     18  CB       -15.7070  -45.6020   71.7010 C.3    34  VAL34       0.0276
     19  CG1      -15.6610  -44.1460   72.1490 C.3    34  VAL34       0.0022
     20  CG2      -17.1490  -46.1520   71.8120 C.3    34  VAL34       0.0022
     21  N        -13.3590  -44.2290   66.3370 N.3    37  SER37      -0.1217
     22  CA       -14.2840  -43.2160   65.8890 C.3    37  SER37       0.1889
     23  C        -13.9020  -41.8130   66.3580 C.2    37  SER37       0.2288
     24  O        -14.1060  -40.8500   65.6180 O.2    37  SER37      -0.2866
     25  CB       -15.7210  -43.5190   66.3680 C.3    37  SER37       0.2089
     26  OG       -16.3220  -44.5020   65.5410 O.3    37  SER37      -0.2183
     27  N        -17.6570  -52.9400   60.0190 N.3   109  TYR109     -0.1241
     28  CA       -18.9160  -52.1880   59.8640 C.3   109  TYR109      0.1605
     29  C        -19.6080  -52.3830   58.4580 C.2   109  TYR109      0.2264
     30  O        -20.3270  -51.4980   57.9580 O.2   109  TYR109     -0.2867
     31  CB       -18.6390  -50.7060   60.2110 C.3   109  TYR109      0.0534
     32  CG       -19.0950  -50.3310   61.6090 C.ar  109  TYR109     -0.0201
     33  CD1      -20.0120  -49.3100   61.8080 C.ar  109  TYR109     -0.0009
     34  CD2      -18.6690  -51.0510   62.7350 C.ar  109  TYR109     -0.0009
     35  CE1      -20.4690  -49.0060   63.0600 C.ar  109  TYR109      0.0417
     36  CE2      -19.1230  -50.7430   63.9980 C.ar  109  TYR109      0.0417
     37  CZ       -20.0410  -49.7150   64.1530 C.ar  109  TYR109      0.1957
     38  OH       -20.5290  -49.3760   65.3880 O.3   109  TYR109     -0.2866
     39  N        -21.9030  -41.2750   61.3070 N.3   161  HIS161     -0.1241
     40  CA       -20.9650  -42.2860   61.7690 C.3   161  HIS161      0.1621
     41  C        -19.7650  -42.3910   60.8620 C.2   161  HIS161      0.2264
     42  O        -19.9040  -42.4890   59.6350 O.2   161  HIS161     -0.2867
     43  CB       -21.6180  -43.6730   61.9150 C.3   161  HIS161      0.0745
     44  CG       -20.7470  -44.6480   62.6640 C.ar  161  HIS161      0.0817
     45  ND1      -20.5740  -44.5780   63.9950 N.ar  161  HIS161     -0.2268
     46  CD2      -19.9370  -45.6800   62.2230 C.ar  161  HIS161      0.1154
     47  CE1      -19.6930  -45.5210   64.3800 C.ar  161  HIS161      0.1986
     48  NE2      -19.3240  -46.2040   63.3050 N.ar  161  HIS161     -0.2212
     49  N        -22.0140  -48.9950   72.4280 N.3   417  CYS417     -0.1221
     50  CA       -22.5250  -47.6160   72.4590 C.3   417  CYS417      0.1808
     51  C        -23.3020  -47.4110   71.1630 C.2   417  CYS417      0.2601
     52  O        -22.8920  -47.9200   70.1140 O.2   417  CYS417     -0.2717
     53  CB       -21.3500  -46.6200   72.5270 C.3   417  CYS417      0.0970
     54  SG       -20.5670  -46.4820   74.1640 S.3   417  CYS417     -0.0800
     55  N        -24.4300  -46.7000   71.2290 N.am  418  ALA418     -0.1965
     56  CA       -25.2000  -46.3750   70.0390 C.3   418  ALA418      0.1728
     57  C        -24.3950  -45.5650   69.0270 C.2   418  ALA418      0.2616
     58  O        -23.5880  -44.7090   69.4050 O.2   418  ALA418     -0.2715
     59  CB       -26.5020  -45.5980   70.4070 C.3   418  ALA418      0.0334
     60  N        -24.6330  -45.8500   67.7440 N.am  419  ASP419     -0.1971
     61  CA       -24.0950  -45.0780   66.5990 C.3   419  ASP419      0.1709
     62  C        -25.0610  -43.9650   66.1760 C.2   419  ASP419      0.2293
     63  O        -24.6560  -42.9160   65.6650 O.2   419  ASP419     -0.2864
     64  CB       -23.8520  -46.0490   65.4510 C.3   419  ASP419      0.1436
     65  CG       -22.8140  -47.1170   65.8160 C.2   419  ASP419      0.3671
     66  OD1      -21.9430  -46.7490   66.6030 O.co2 419  ASP419     -0.2456
     67  OD2      -22.9020  -48.2830   65.3660 O.co2 419  ASP419     -0.2456
@<TRIPOS>BOND
     1    30    29    2
     2    29    28    1
     3    42    41    2
     4    28    27    1
     5    28    31    1
     6    31    32    1
     7    41    40    1
     8    39    40    1
     9    32    33   ar
    10    32    34   ar
    11    40    43    1
    12    33    35   ar
    13    43    44    1
    14    46    44   ar
    15    46    48   ar
    16    44    45   ar
    17    34    36   ar
    18    35    37   ar
    19    48    47   ar
    20    45    47   ar
    21    36    37   ar
    22    37    38    1
    23     1     2    1
    24     2     5    1
    25     2     3    1
    26     5     6    1
    27     8     7   ar
    28    67    65   ar
    29    64    65    1
    30    64    61    1
    31    26    25    1
    32    24    23    2
    33     7     9   ar
    34     7     6    1
    35    63    62    2
    36    65    66   ar
    37    22    21    1
    38    22    23    1
    39    22    25    1
    40    62    61    1
    41     3    10   am
    42     3     4    2
    43    61    60    1
    44    10    11    1
    45    13    12    2
    46    60    57   am
    47    11    12    1
    48    12    14   am
    49    57    58    2
    50    57    56    1
    51    17    16    2
    52    14    15    1
    53    56    59    1
    54    56    55    1
    55    16    15    1
    56    52    51    2
    57    15    18    1
    58    51    55   am
    59    51    50    1
    60    18    20    1
    61    18    19    1
    62    49    50    1
    63    50    53    1
    64    53    54    1
