@<TRIPOS>MOLECULE
tmp/3tcgB00.pdb
 87 86 0 0 0
SMALL
GASTEIGER

@<TRIPOS>ATOM
      1  N        -22.0710   80.9510   99.4750 N.3    37  SER37      -0.1217
      2  CA       -21.4250   81.9760   98.6560 C.3    37  SER37       0.1889
      3  C        -21.7160   83.3980   99.1450 C.2    37  SER37       0.2288
      4  O        -20.8330   84.2370   99.1210 O.2    37  SER37      -0.2866
      5  CB       -21.8700   81.8610   97.2010 C.3    37  SER37       0.2089
      6  OG       -21.1780   80.8280   96.5400 O.3    37  SER37      -0.2183
      7  N        -18.6330   85.8690  100.0100 N.3    41  ARG41      -0.1245
      8  CA       -18.3140   87.1000   99.2820 C.3    41  ARG41       0.1563
      9  C        -18.0180   88.2750  100.2270 C.2    41  ARG41       0.2260
     10  O        -17.2930   89.1900   99.8570 O.2    41  ARG41      -0.2867
     11  CB       -19.4310   87.4760   98.2820 C.3    41  ARG41       0.0307
     12  CG       -19.4640   86.5990   97.0400 C.3    41  ARG41       0.0489
     13  CD       -20.4130   87.1110   95.9690 C.3    41  ARG41       0.2205
     14  NE       -21.7140   87.5040   96.4990 N.pl3  41  ARG41      -0.0865
     15  CZ       -22.7390   86.6860   96.7350 C.cat  41  ARG41       0.5346
     16  NH1      -22.6620   85.3820   96.4980 N.pl3  41  ARG41       0.1354
     17  NH2      -23.8640   87.1830   97.2340 N.pl3  41  ARG41       0.1354
     18  N        -16.1800   71.9070   94.7380 N.3   109  TYR109     -0.1241
     19  CA       -15.7940   72.7240   93.5750 C.3   109  TYR109      0.1605
     20  C        -14.3650   72.4100   93.0940 C.2   109  TYR109      0.2264
     21  O        -13.7170   73.2290   92.4380 O.2   109  TYR109     -0.2867
     22  CB       -15.9660   74.2340   93.9030 C.3   109  TYR109      0.0534
     23  CG       -17.2910   74.7740   93.4010 C.ar  109  TYR109     -0.0201
     24  CD1      -17.3490   75.7630   92.4120 C.ar  109  TYR109     -0.0009
     25  CD2      -18.4830   74.2370   93.8540 C.ar  109  TYR109     -0.0009
     26  CE1      -18.5970   76.2470   91.9320 C.ar  109  TYR109      0.0417
     27  CE2      -19.7070   74.6920   93.3740 C.ar  109  TYR109      0.0417
     28  CZ       -19.7620   75.6980   92.4120 C.ar  109  TYR109      0.1957
     29  OH       -21.0120   76.1190   91.9440 O.3   109  TYR109     -0.2866
     30  N        -15.9260   83.7870   91.5810 N.3   161  HIS161     -0.1227
     31  CA       -16.5350   82.7630   92.4240 C.3   161  HIS161      0.1737
     32  C        -15.7390   82.5120   93.6790 C.2   161  HIS161      0.2438
     33  O        -14.5340   82.3770   93.6100 O.2   161  HIS161     -0.2733
     34  CB       -16.6930   81.4490   91.6550 C.3   161  HIS161      0.0758
     35  CG       -17.5730   80.4600   92.3620 C.ar  161  HIS161      0.0818
     36  ND1      -18.9220   80.6090   92.4410 N.ar  161  HIS161     -0.2268
     37  CD2      -17.2600   79.3350   93.0930 C.ar  161  HIS161      0.1154
     38  CE1      -19.4280   79.5940   93.1660 C.ar  161  HIS161      0.1986
     39  NE2      -18.4060   78.8300   93.5780 N.ar  161  HIS161     -0.2212
     40  N        -16.4080   82.4360   94.8400 N.am  162  PRO162     -0.2729
     41  CA       -15.7640   82.1700   96.1370 C.3   162  PRO162      0.1401
     42  C        -14.7420   81.0240   96.2100 C.2   162  PRO162      0.2269
     43  O        -13.7700   81.1570   96.9420 O.2   162  PRO162     -0.2865
     44  CB       -16.9400   81.8560   97.0340 C.3   162  PRO162      0.0296
     45  CG       -18.0360   82.7050   96.4940 C.3   162  PRO162      0.0237
     46  CD       -17.8450   82.7180   95.0110 C.3   162  PRO162      0.0939
     47  N        -29.9300   74.8300   90.2160 N.3   416  TRP416     -0.1227
     48  CA       -28.6020   75.2670   89.8740 C.3   416  TRP416      0.1737
     49  C        -28.6440   76.6820   89.3940 C.2   416  TRP416      0.2596
     50  O        -29.4840   77.0390   88.5720 O.2   416  TRP416     -0.2718
     51  CB       -27.9850   74.3750   88.8090 C.3   416  TRP416      0.0564
     52  CG       -26.5090   74.6260   88.6450 C.ar  416  TRP416      0.0003
     53  CD1      -25.8670   75.2470   87.5870 C.ar  416  TRP416      0.0946
     54  CD2      -25.4470   74.2820   89.5880 C.ar  416  TRP416      0.0152
     55  NE1      -24.5090   75.2890   87.7900 N.ar  416  TRP416     -0.2442
     56  CE2      -24.1940   74.7190   88.9730 C.ar  416  TRP416      0.0810
     57  CE3      -25.4080   73.6410   90.8180 C.ar  416  TRP416      0.0012
     58  CZ2      -22.9850   74.5530   89.5950 C.ar  416  TRP416      0.0191
     59  CZ3      -24.1730   73.4630   91.4350 C.ar  416  TRP416      0.0001
     60  CH2      -22.9890   73.9090   90.8390 C.ar  416  TRP416      0.0015
     61  N        -27.7210   77.4820   89.9290 N.am  417  CYS417     -0.1956
     62  CA       -27.5470   78.8850   89.5780 C.3   417  CYS417      0.1843
     63  C        -26.1670   79.0590   88.9560 C.2   417  CYS417      0.2625
     64  O        -25.1910   78.4980   89.4580 O.2   417  CYS417     -0.2714
     65  CB       -27.6300   79.7450   90.8350 C.3   417  CYS417      0.0997
     66  SG       -29.2700   79.9020   91.5230 S.3   417  CYS417     -0.0797
     67  N        -26.1000   79.8270   87.8700 N.am  418  ALA418     -0.1963
     68  CA       -24.8320   80.1070   87.2110 C.3   418  ALA418      0.1728
     69  C        -23.8220   80.6940   88.1910 C.2   418  ALA418      0.2616
     70  O        -24.1890   81.4540   89.0990 O.2   418  ALA418     -0.2715
     71  CB       -25.0270   81.0430   86.0230 C.3   418  ALA418      0.0334
     72  N        -22.5650   80.2890   88.0160 N.am  419  ASP419     -0.1971
     73  CA       -21.4340   80.8430   88.7480 C.3   419  ASP419      0.1709
     74  C        -20.7210   81.9390   87.9350 C.2   419  ASP419      0.2293
     75  O        -20.1500   82.8810   88.4990 O.2   419  ASP419     -0.2864
     76  CB       -20.4280   79.7420   89.1140 C.3   419  ASP419      0.1436
     77  CG       -21.0040   78.6950   90.0450 C.2   419  ASP419      0.3671
     78  OD1      -20.7180   77.4880   89.8300 O.co2 419  ASP419     -0.2456
     79  OD2      -21.7370   79.0720   90.9980 O.co2 419  ASP419     -0.2456
     80  N        -24.9210   88.1420   92.6360 N.3   506  ASN506     -0.1240
     81  CA       -23.7230   88.1900   93.4590 C.3   506  ASN506      0.1653
     82  C        -23.5590   89.5610   94.0890 C.2   506  ASN506      0.2266
     83  O        -22.8290   90.4140   93.5880 O.2   506  ASN506     -0.2867
     84  CB       -22.5020   87.7940   92.6460 C.3   506  ASN506      0.1155
     85  CG       -22.5210   86.3260   92.2750 C.2   506  ASN506      0.2627
     86  OD1      -22.9730   85.4920   93.0580 O.2   506  ASN506     -0.2716
     87  ND2      -22.0680   86.0050   91.0660 N.am  506  ASN506     -0.0877
@<TRIPOS>BOND
     1    71    68    1
     2    68    67    1
     3    68    69    1
     4    53    55   ar
     5    53    52   ar
     6    55    56   ar
     7    67    63   am
     8    74    75    2
     9    74    73    1
    10    72    69   am
    11    72    73    1
    12    69    70    2
    13    50    49    2
    14    52    51    1
    15    52    54   ar
    16    73    76    1
    17    51    48    1
    18    63    64    2
    19    63    62    1
    20    56    54   ar
    21    56    58   ar
    22    76    77    1
    23    49    48    1
    24    49    61   am
    25    62    61    1
    26    62    65    1
    27    54    57   ar
    28    58    60   ar
    29    78    77   ar
    30    48    47    1
    31    77    79   ar
    32    57    59   ar
    33    65    66    1
    34    60    59   ar
    35    87    85   am
    36    30    31    1
    37    34    35    1
    38    34    31    1
    39    26    24   ar
    40    26    28   ar
    41    29    28    1
    42    85    84    1
    43    85    86    2
    44    35    36   ar
    45    35    37   ar
    46    24    23   ar
    47    28    27   ar
    48    31    32    1
    49    21    20    2
    50    36    38   ar
    51    80    81    1
    52    84    81    1
    53    37    39   ar
    54    20    19    1
    55    38    39   ar
    56    27    25   ar
    57    23    25   ar
    58    23    22    1
    59    81    82    1
    60    19    22    1
    61    19    18    1
    62    83    82    2
    63    33    32    2
    64    32    40   am
    65    40    46    1
    66    40    41    1
    67    46    45    1
    68    13    14    1
    69    13    12    1
    70    41    42    1
    71    41    44    1
    72    42    43    2
    73    45    44    1
    74    16    15    1
    75    14    15    2
    76     6     5    1
    77    15    17    1
    78    12    11    1
    79     5     2    1
    80    11     8    1
    81     2     3    1
    82     2     1    1
    83     4     3    2
    84     8     7    1
    85     8     9    1
    86    10     9    2
