@<TRIPOS>MOLECULE
tmp/3tcmB00.pdb
 189 177 0 0 0
SMALL
GASTEIGER

@<TRIPOS>ATOM
      1  N        -48.0110  -38.0900    8.9030 N.3    17  TYR17      -0.1241
      2  CA       -48.3420  -37.8610   10.3010 C.3    17  TYR17       0.1605
      3  C        -49.8470  -37.7980   10.4350 C.2    17  TYR17       0.2264
      4  O        -50.4190  -36.7210   10.3400 O.2    17  TYR17      -0.2867
      5  CB       -47.7160  -36.5450   10.7840 C.3    17  TYR17       0.0534
      6  CG       -47.9800  -36.2450   12.2480 C.ar   17  TYR17      -0.0201
      7  CD1      -47.4030  -37.0230   13.2510 C.ar   17  TYR17      -0.0009
      8  CD2      -48.8210  -35.1970   12.6300 C.ar   17  TYR17      -0.0009
      9  CE1      -47.6690  -36.7520   14.6140 C.ar   17  TYR17       0.0417
     10  CE2      -49.0840  -34.9190   13.9760 C.ar   17  TYR17       0.0417
     11  CZ       -48.5040  -35.6960   14.9530 C.ar   17  TYR17       0.1957
     12  OH       -48.7420  -35.4410   16.2610 O.3    17  TYR17      -0.2866
     13  N        -52.1640  -38.1790   12.8560 N.3    19  VAL19      -0.1245
     14  CA       -52.8260  -37.4950   13.9680 C.3    19  VAL19       0.1561
     15  C        -53.3560  -36.1110   13.5310 C.2    19  VAL19       0.2260
     16  O        -54.3550  -35.6010   14.0750 O.2    19  VAL19      -0.2867
     17  CB       -51.9170  -37.4640   15.2290 C.3    19  VAL19       0.0252
     18  CG1      -52.1530  -36.2260   16.0670 C.3    19  VAL19       0.0019
     19  CG2      -52.1550  -38.7030   16.0140 C.3    19  VAL19       0.0019
     20  N        -56.8760  -36.2750   18.9990 N.3    51  ILE51      -0.1231
     21  CA       -55.6170  -35.7440   19.4820 C.3    51  ILE51       0.1692
     22  C        -55.6900  -35.6240   20.9770 C.2    51  ILE51       0.2592
     23  O        -56.6800  -35.1360   21.5090 O.2    51  ILE51      -0.2718
     24  CB       -55.3660  -34.3700   18.8650 C.3    51  ILE51       0.0266
     25  CG1      -54.0290  -33.7660   19.3370 C.3    51  ILE51       0.0019
     26  CG2      -56.5830  -33.4440   19.1180 C.3    51  ILE51       0.0020
     27  CD1      -53.6720  -32.4370   18.6190 C.3    51  ILE51       0.0001
     28  N        -54.6640  -36.0750   21.6730 N.am   52  GLY52      -0.1957
     29  CA       -54.6740  -36.0140   23.1390 C.3    52  GLY52       0.1869
     30  C        -54.5190  -34.5820   23.6070 C.2    52  GLY52       0.2309
     31  O        -53.4030  -34.1270   23.8530 O.2    52  GLY52      -0.2863
     32  N        -41.5130  -29.3260   24.8680 N.3   145  GLY145     -0.1210
     33  CA       -42.2440  -30.5930   24.8260 C.3   145  GLY145      0.1956
     34  C        -41.3180  -31.7990   24.6760 C.2   145  GLY145      0.2612
     35  O        -40.0920  -31.6850   24.6180 O.2   145  GLY145     -0.2717
     36  N        -41.9010  -32.9790   24.6220 N.am  146  ALA146     -0.1965
     37  CA       -41.1150  -34.1580   24.4490 C.3   146  ALA146      0.1728
     38  C        -40.5920  -34.2310   23.0170 C.2   146  ALA146      0.2616
     39  O        -39.4890  -34.6940   22.7870 O.2   146  ALA146     -0.2715
     40  CB       -41.9660  -35.3710   24.7570 C.3   146  ALA146      0.0334
     41  N        -41.3750  -33.7710   22.0540 N.am  147  SER147     -0.1950
     42  CA       -41.1270  -34.0440   20.6400 C.3   147  SER147      0.1924
     43  C        -39.7100  -33.6860   20.1140 C.2   147  SER147      0.2314
     44  O        -39.0600  -34.5080   19.4740 O.2   147  SER147     -0.2863
     45  CB       -42.1880  -33.3330   19.7920 C.3   147  SER147      0.2116
     46  OG       -43.4820  -33.8650   19.9940 O.3   147  SER147     -0.2180
     47  N        -37.0180  -36.1390   20.5260 N.3   150  VAL150     -0.1245
     48  CA       -37.0640  -37.3160   19.6790 C.3   150  VAL150      0.1561
     49  C        -36.4040  -37.0100   18.3420 C.2   150  VAL150      0.2260
     50  O        -35.5640  -37.7890   17.9140 O.2   150  VAL150     -0.2867
     51  CB       -38.5130  -37.8460   19.5420 C.3   150  VAL150      0.0252
     52  CG1      -38.6710  -38.7750   18.3610 C.3   150  VAL150      0.0019
     53  CG2      -38.9310  -38.5640   20.8290 C.3   150  VAL150      0.0019
     54  N        -47.4500  -44.2170   18.1790 N.3   172  TYR172     -0.1241
     55  CA       -47.7420  -42.7990   17.9750 C.3   172  TYR172      0.1605
     56  C        -46.8740  -42.3030   16.7770 C.2   172  TYR172      0.2264
     57  O        -45.6700  -42.5200   16.7580 O.2   172  TYR172     -0.2867
     58  CB       -47.5780  -42.0020   19.2920 C.3   172  TYR172      0.0534
     59  CG       -47.6500  -40.5140   19.1000 C.ar  172  TYR172     -0.0201
     60  CD1      -46.5880  -39.6870   19.4660 C.ar  172  TYR172     -0.0009
     61  CD2      -48.7870  -39.9290   18.5340 C.ar  172  TYR172     -0.0009
     62  CE1      -46.6440  -38.3290   19.2530 C.ar  172  TYR172      0.0417
     63  CE2      -48.8680  -38.5600   18.3120 C.ar  172  TYR172      0.0417
     64  CZ       -47.7930  -37.7560   18.6620 C.ar  172  TYR172      0.1957
     65  OH       -47.8890  -36.4040   18.4110 O.3   172  TYR172     -0.2866
     66  N        -45.2960  -39.8230   15.5730 N.3   174  LEU174     -0.1231
     67  CA       -44.0670  -39.0160   15.6820 C.3   174  LEU174      0.1693
     68  C        -42.8050  -39.8410   15.3350 C.2   174  LEU174      0.2592
     69  O        -41.8110  -39.3160   14.7950 O.2   174  LEU174     -0.2718
     70  CB       -43.9490  -38.4570   17.0950 C.3   174  LEU174      0.0284
     71  CG       -42.5810  -37.9250   17.5060 C.3   174  LEU174      0.0019
     72  CD1      -42.2630  -36.7160   16.6800 C.3   174  LEU174      0.0001
     73  CD2      -42.4980  -37.6020   19.0220 C.3   174  LEU174      0.0001
     74  N        -42.8620  -41.1330   15.6500 N.am  175  TYR175     -0.1976
     75  CA       -41.7330  -42.0250   15.4440 C.3   175  TYR175      0.1639
     76  C        -41.5490  -42.4370   14.0090 C.2   175  TYR175      0.2290
     77  O        -40.4450  -42.3230   13.4790 O.2   175  TYR175     -0.2864
     78  CB       -41.8440  -43.2500   16.3540 C.3   175  TYR175      0.0560
     79  CG       -41.5760  -42.8520   17.7690 C.ar  175  TYR175     -0.0198
     80  CD1      -42.6180  -42.6460   18.6500 C.ar  175  TYR175     -0.0009
     81  CD2      -40.2670  -42.5880   18.1940 C.ar  175  TYR175     -0.0009
     82  CE1      -42.3700  -42.2120   19.9700 C.ar  175  TYR175      0.0417
     83  CE2      -39.9950  -42.1640   19.5070 C.ar  175  TYR175      0.0417
     84  CZ       -41.0590  -41.9840   20.3810 C.ar  175  TYR175      0.1957
     85  OH       -40.8080  -41.5830   21.6620 O.3   175  TYR175     -0.2866
     86  N        -42.5730  -47.3130   24.3690 N.3   224  ILE224     -0.1245
     87  CA       -43.5250  -46.2530   24.7590 C.3   224  ILE224      0.1561
     88  C        -44.3110  -46.7440   25.9990 C.2   224  ILE224      0.2260
     89  O        -45.1570  -47.6050   25.8920 O.2   224  ILE224     -0.2867
     90  CB       -44.4950  -45.9270   23.5590 C.3   224  ILE224      0.0252
     91  CG1      -43.7060  -45.3720   22.3670 C.3   224  ILE224      0.0019
     92  CG2      -45.6130  -44.9970   23.9840 C.3   224  ILE224      0.0019
     93  CD1      -44.4610  -45.3150   21.0660 C.3   224  ILE224      0.0001
     94  N        -49.0980  -45.5720   23.3720 N.3   228  ASN228     -0.1240
     95  CA       -50.0370  -44.7680   22.6460 C.3   228  ASN228      0.1653
     96  C        -49.8690  -45.3190   21.2680 C.2   228  ASN228      0.2266
     97  O        -48.7590  -45.2880   20.7530 O.2   228  ASN228     -0.2867
     98  CB       -49.6270  -43.3140   22.6960 C.3   228  ASN228      0.1155
     99  CG       -50.4100  -42.4540   21.7610 C.2   228  ASN228      0.2627
    100  OD1      -51.3360  -42.9110   21.1080 O.2   228  ASN228     -0.2716
    101  ND2      -50.0540  -41.1830   21.6930 N.am  228  ASN228     -0.0877
    102  N        -40.0630  -43.5560   26.0940 N.3   256  ASP256     -0.1239
    103  CA       -40.9830  -42.4460   25.9840 C.3   256  ASP256      0.1674
    104  C        -42.0200  -42.5730   27.0900 C.2   256  ASP256      0.2266
    105  O        -42.9430  -43.3390   26.9650 O.2   256  ASP256     -0.2867
    106  CB       -41.6240  -42.4720   24.6040 C.3   256  ASP256      0.1410
    107  CG       -42.5490  -41.2540   24.3440 C.2   256  ASP256      0.3668
    108  OD1      -43.2760  -40.8200   25.3030 O.co2 256  ASP256     -0.2456
    109  OD2      -42.5560  -40.7360   23.1730 O.co2 256  ASP256     -0.2456
    110  N        -44.0240  -40.2460   28.5040 N.3   258  VAL258     -0.1231
    111  CA       -44.8570  -39.0590   28.5220 C.3   258  VAL258      0.1692
    112  C        -46.1710  -39.2320   29.3330 C.2   258  VAL258      0.2592
    113  O        -46.7660  -38.2620   29.7820 O.2   258  VAL258     -0.2718
    114  CB       -45.0200  -38.5810   27.0330 C.3   258  VAL258      0.0266
    115  CG1      -46.4360  -38.4130   26.5930 C.3   258  VAL258      0.0020
    116  CG2      -44.2630  -37.3180   26.8450 C.3   258  VAL258      0.0020
    117  N        -46.5680  -40.4770   29.5490 N.am  259  TYR259     -0.1976
    118  CA       -47.7970  -40.8080   30.2650 C.3   259  TYR259      0.1639
    119  C        -47.5970  -41.4360   31.6590 C.2   259  TYR259      0.2290
    120  O        -48.4950  -42.0740   32.1800 O.2   259  TYR259     -0.2864
    121  CB       -48.6850  -41.7340   29.4010 C.3   259  TYR259      0.0560
    122  CG       -49.1510  -41.1070   28.1050 C.ar  259  TYR259     -0.0198
    123  CD1      -50.1720  -40.1480   28.1010 C.ar  259  TYR259     -0.0009
    124  CD2      -48.5760  -41.4610   26.8870 C.ar  259  TYR259     -0.0009
    125  CE1      -50.6160  -39.5680   26.9270 C.ar  259  TYR259      0.0417
    126  CE2      -49.0120  -40.8870   25.6990 C.ar  259  TYR259      0.0417
    127  CZ       -50.0350  -39.9450   25.7340 C.ar  259  TYR259      0.1957
    128  OH       -50.4640  -39.3590   24.5710 O.3   259  TYR259     -0.2866
    129  N        -42.9680  -35.2980   29.4800 N.3   294  SER294     -0.1217
    130  CA       -43.6630  -34.1300   29.0340 C.3   294  SER294      0.1889
    131  C        -44.7800  -33.6320   29.9000 C.2   294  SER294      0.2288
    132  O        -45.4380  -34.3670   30.5600 O.2   294  SER294     -0.2866
    133  CB       -44.2210  -34.3860   27.6490 C.3   294  SER294      0.2089
    134  OG       -44.8500  -33.2550   27.1230 O.3   294  SER294     -0.2183
    135  N        -47.4470  -31.8100   28.7410 N.3   296  SER296     -0.1202
    136  CA       -48.6870  -31.9140   28.0400 C.3   296  SER296      0.2020
    137  C        -49.6740  -32.9060   28.5550 C.2   296  SER296      0.2618
    138  O        -50.8490  -32.6850   28.5260 O.2   296  SER296     -0.2717
    139  CB       -48.3520  -32.3300   26.6330 C.3   296  SER296      0.2103
    140  OG       -47.2940  -31.5720   26.1550 O.3   296  SER296     -0.2182
    141  N        -49.1860  -34.0240   28.9910 N.am  297  LYS297     -0.1979
    142  CA       -49.9540  -35.1380   29.5050 C.3   297  LYS297      0.1596
    143  C        -50.3560  -35.1610   30.9740 C.2   297  LYS297      0.2287
    144  O        -50.4200  -34.1860   31.6320 O.2   297  LYS297     -0.2864
    145  CB       -49.3830  -36.4480   29.0530 C.3   297  LYS297      0.0298
    146  CG       -49.9560  -36.9110   27.7770 C.3   297  LYS297      0.0038
    147  CD       -49.8730  -35.8500   26.7640 C.3   297  LYS297      0.0206
    148  CE       -50.5840  -36.1700   25.5030 C.3   297  LYS297      0.1093
    149  NZ       -50.1580  -35.2770   24.4720 N.3   297  LYS297     -0.1314
    150  N        -50.5730  -28.9370   26.9810 N.3   303  CYS303     -0.1235
    151  CA       -49.9020  -29.1570   25.7300 C.3   303  CYS303      0.1677
    152  C        -49.4010  -27.8960   25.0510 C.2   303  CYS303      0.2270
    153  O        -48.3740  -27.9150   24.4920 O.2   303  CYS303     -0.2867
    154  CB       -50.8320  -29.9070   24.7740 C.3   303  CYS303      0.0956
    155  SG       -51.2910  -31.5650   25.3270 S.3   303  CYS303     -0.0801
    156  N        -45.7990  -26.4840   25.9150 N.3   306  ARG306     -0.1245
    157  CA       -44.6270  -27.0940   25.3230 C.3   306  ARG306      0.1563
    158  C        -43.4480  -27.1600   26.2070 C.2   306  ARG306      0.2260
    159  O        -42.4710  -26.5150   26.0190 O.2   306  ARG306     -0.2867
    160  CB       -44.1950  -26.4420   24.0220 C.3   306  ARG306      0.0307
    161  CG       -45.2480  -25.9650   23.1120 C.3   306  ARG306      0.0489
    162  CD       -46.0750  -26.9910   22.5150 C.3   306  ARG306      0.2205
    163  NE       -45.2820  -27.9210   21.7810 N.pl3 306  ARG306     -0.0865
    164  CZ       -45.3430  -29.2220   21.9310 C.cat 306  ARG306      0.5346
    165  NH1      -46.1670  -29.7330   22.7560 N.pl3 306  ARG306      0.1354
    166  NH2      -44.5770  -30.0090   21.2500 N.pl3 306  ARG306      0.1354
    167  N        -56.2220  -42.9230   25.3690 N.3   396  TYR396     -0.1241
    168  CA       -57.0090  -43.4460   24.3050 C.3   396  TYR396      0.1605
    169  C        -57.4330  -44.8560   24.1680 C.2   396  TYR396      0.2264
    170  O        -56.8530  -45.7250   24.7310 O.2   396  TYR396     -0.2867
    171  CB       -56.0980  -43.3130   23.0510 C.3   396  TYR396      0.0534
    172  CG       -55.1110  -42.2070   23.0820 C.ar  396  TYR396     -0.0201
    173  CD1      -55.3900  -41.0090   22.5360 C.ar  396  TYR396     -0.0009
    174  CD2      -53.9180  -42.3490   23.6700 C.ar  396  TYR396     -0.0009
    175  CE1      -54.5240  -40.0000   22.5950 C.ar  396  TYR396      0.0417
    176  CE2      -53.0710  -41.3250   23.7510 C.ar  396  TYR396      0.0417
    177  CZ       -53.3820  -40.1530   23.2080 C.ar  396  TYR396      0.1957
    178  OH       -52.5420  -39.1080   23.2500 O.3   396  TYR396     -0.2866
    179  N        -58.2630  -44.9310   16.5150 N.3   450  ARG450     -0.1245
    180  CA       -58.0420  -44.3660   17.8210 C.3   450  ARG450      0.1563
    181  C        -59.0110  -43.2360   18.1890 C.2   450  ARG450      0.2260
    182  O        -59.0270  -42.1760   17.5670 O.2   450  ARG450     -0.2867
    183  CB       -56.6100  -43.8600   17.9380 C.3   450  ARG450      0.0307
    184  CG       -56.2120  -43.4780   19.3630 C.3   450  ARG450      0.0489
    185  CD       -54.8250  -42.8610   19.3810 C.3   450  ARG450      0.2205
    186  NE       -54.8750  -41.4460   19.0620 N.pl3 450  ARG450     -0.0865
    187  CZ       -53.8410  -40.6440   19.1950 C.cat 450  ARG450      0.5346
    188  NH1      -52.6890  -41.1490   19.6570 N.pl3 450  ARG450      0.1354
    189  NH2      -53.9460  -39.3560   18.8850 N.pl3 450  ARG450      0.1354
@<TRIPOS>BOND
     1     1     2    1
     2     2     3    1
     3     2     5    1
     4     4     3    2
     5     5     6    1
     6     6     8   ar
     7     6     7   ar
     8     8    10   ar
     9    13    14    1
    10     7     9   ar
    11    77    76    2
    12    15    14    1
    13    15    16    2
    14    14    17    1
    15    10    11   ar
    16    76    75    1
    17     9    11   ar
    18    69    68    2
    19    11    12    1
    20    17    19    1
    21    17    18    1
    22    68    74   am
    23    68    67    1
    24    75    74    1
    25    75    78    1
    26    66    67    1
    27    67    70    1
    28    78    79    1
    29   179   180    1
    30    72    71    1
    31    57    56    2
    32    56    55    1
    33    70    71    1
    34    71    73    1
    35   182   181    2
    36    79    81   ar
    37    79    80   ar
    38   180   183    1
    39   180   181    1
    40    50    49    2
    41   183   184    1
    42    55    54    1
    43    55    58    1
    44    81    83   ar
    45    63    61   ar
    46    63    64   ar
    47    49    48    1
    48    52    51    1
    49    65    64    1
    50    61    59   ar
    51    27    25    1
    52    80    82   ar
    53    64    62   ar
    54    24    26    1
    55    24    25    1
    56    24    21    1
    57   189   187    1
    58    20    21    1
    59   186   187    2
    60   186   185    1
    61    59    58    1
    62    59    60   ar
    63   187   188    1
    64    62    60   ar
    65   184   185    1
    66    44    43    2
    67    21    22    1
    68    83    84   ar
    69    51    48    1
    70    51    53    1
    71    48    47    1
    72    45    46    1
    73    45    42    1
    74    82    84   ar
    75    43    42    1
    76    84    85    1
    77    42    41    1
    78    97    96    2
    79    22    23    2
    80    22    28   am
    81    93    91    1
    82   100    99    2
    83   166   164    1
    84    96    95    1
    85    28    29    1
    86   101    99   am
    87    99    98    1
    88   163   164    2
    89   163   162    1
    90   164   165    1
    91    41    38   am
    92    91    90    1
    93   162   161    1
    94   173   175   ar
    95   173   172   ar
    96   175   177   ar
    97    95    98    1
    98    95    94    1
    99    39    38    2
   100    38    37    1
   101   171   172    1
   102   171   168    1
   103   172   174   ar
   104   161   160    1
   105    29    30    1
   106   109   107   ar
   107   177   178    1
   108   177   176   ar
   109    90    92    1
   110    90    87    1
   111    30    31    2
   112   174   176   ar
   113   160   157    1
   114   169   168    1
   115   169   170    2
   116   168   167    1
   117   107   106    1
   118   107   108   ar
   119    86    87    1
   120    37    36    1
   121    37    40    1
   122   149   148    1
   123   153   152    2
   124   128   127    1
   125   106   103    1
   126    35    34    2
   127    36    34   am
   128    34    33    1
   129    87    88    1
   130   154   155    1
   131   154   151    1
   132    33    32    1
   133   152   151    1
   134   157   156    1
   135   157   158    1
   136   148   147    1
   137   126   127   ar
   138   126   124   ar
   139   151   150    1
   140   127   125   ar
   141    89    88    2
   142   103   102    1
   143   103   104    1
   144   159   158    2
   145   140   139    1
   146   115   114    1
   147   139   136    1
   148   147   146    1
   149   116   114    1
   150   124   122   ar
   151   125   123   ar
   152   105   104    2
   153   114   111    1
   154   134   133    1
   155   133   130    1
   156   146   145    1
   157   136   137    1
   158   136   135    1
   159   123   122   ar
   160   122   121    1
   161   110   111    1
   162   111   112    1
   163   138   137    2
   164   137   141   am
   165   141   142    1
   166   130   129    1
   167   130   131    1
   168   145   142    1
   169   112   117   am
   170   112   113    2
   171   121   118    1
   172   142   143    1
   173   117   118    1
   174   131   132    2
   175   118   119    1
   176   143   144    2
   177   119   120    2
