@<TRIPOS>MOLECULE
tmp/3tcpA00.pdb
 148 142 0 0 0
SMALL
GASTEIGER

@<TRIPOS>ATOM
      1  N          9.9540  -17.7580   13.5820 N.3    17  LEU17      -0.1231
      2  CA         8.6170  -17.1670   13.5320 C.3    17  LEU17       0.1693
      3  C          8.5680  -15.7560   14.1190 C.2    17  LEU17       0.2592
      4  O          8.2490  -14.8000   13.4130 O.2    17  LEU17      -0.2718
      5  CB         7.5920  -18.0850   14.2060 C.3    17  LEU17       0.0284
      6  CG         7.3430  -19.4290   13.5040 C.3    17  LEU17       0.0019
      7  CD1        6.6850  -20.4320   14.4420 C.3    17  LEU17       0.0001
      8  CD2        6.5250  -19.2530   12.2280 C.3    17  LEU17       0.0001
      9  N          8.8830  -15.6300   15.4040 N.am   18  GLY18      -0.1957
     10  CA         8.9960  -14.3230   16.0560 C.3    18  GLY18       0.1869
     11  C         10.4420  -13.9910   16.3870 C.2    18  GLY18       0.2309
     12  O         11.2090  -14.8540   16.8220 O.2    18  GLY18      -0.2863
     13  N         12.0000  -17.6410   18.7280 N.3    20  VAL20      -0.1245
     14  CA        11.0210  -18.7270   18.5770 C.3    20  VAL20       0.1561
     15  C         10.9430  -19.2670   17.1420 C.2    20  VAL20       0.2260
     16  O         10.6830  -18.5290   16.1840 O.2    20  VAL20      -0.2867
     17  CB         9.6130  -18.3420   19.1350 C.3    20  VAL20       0.0252
     18  CG1        9.1540  -16.9960   18.5950 C.3    20  VAL20       0.0019
     19  CG2        8.5760  -19.4390   18.8570 C.3    20  VAL20       0.0019
     20  N          6.1320  -25.0440   18.4170 N.3    36  ALA36      -0.1245
     21  CA         6.9360  -23.8260   18.4730 C.3    36  ALA36       0.1562
     22  C          8.0410  -23.9870   19.5210 C.2    36  ALA36       0.2260
     23  O          7.8140  -24.4750   20.6330 O.2    36  ALA36      -0.2867
     24  CB         6.0810  -22.6280   18.7770 C.3    36  ALA36       0.0290
     25  N         10.7420  -22.0030   21.5690 N.3    38  LYS38      -0.1245
     26  CA        11.3970  -20.8220   22.1100 C.3    38  LYS38       0.1561
     27  C         12.7740  -21.2030   22.6500 C.2    38  LYS38       0.2260
     28  O         12.8860  -22.0250   23.5620 O.2    38  LYS38      -0.2867
     29  CB        10.5430  -20.1690   23.2060 C.3    38  LYS38       0.0271
     30  CG        11.0310  -18.7920   23.6200 C.3    38  LYS38       0.0035
     31  CD        10.2200  -18.2240   24.7660 C.3    38  LYS38       0.0206
     32  CE        10.5730  -16.7580   25.0010 C.3    38  LYS38       0.1093
     33  NZ         9.9210  -16.1990   26.2270 N.3    38  LYS38      -0.1314
     34  N         -1.6360  -22.7390   27.6580 N.3    69  ILE69      -0.1245
     35  CA        -0.7770  -23.4810   26.7450 C.3    69  ILE69       0.1561
     36  C         -0.1430  -24.6790   27.4720 C.2    69  ILE69       0.2260
     37  O          0.0970  -24.6140   28.6790 O.2    69  ILE69      -0.2867
     38  CB         0.2860  -22.5510   26.0700 C.3    69  ILE69       0.0252
     39  CG1        0.7480  -23.1370   24.7330 C.3    69  ILE69       0.0019
     40  CG2        1.4540  -22.2440   27.0180 C.3    69  ILE69       0.0019
     41  CD1        1.2630  -22.1110   23.7380 C.3    69  ILE69       0.0001
     42  N          6.4540  -26.0710   22.5860 N.3    84  LEU84      -0.1231
     43  CA         5.0610  -25.6760   22.7550 C.3    84  LEU84       0.1678
     44  C          4.1970  -26.0560   21.5530 C.2    84  LEU84       0.2434
     45  O          4.6850  -26.0850   20.4370 O.2    84  LEU84      -0.2733
     46  CB         4.9890  -24.1600   22.9860 C.3    84  LEU84       0.0284
     47  CG         5.5130  -23.6380   24.3290 C.3    84  LEU84       0.0019
     48  CD1        6.1310  -22.2370   24.1980 C.3    84  LEU84       0.0001
     49  CD2        4.4020  -23.6640   25.3660 C.3    84  LEU84       0.0001
     50  N          2.8970  -26.3250   21.7720 N.am   85  PRO85      -0.2718
     51  CA         1.9830  -26.5170   20.6460 C.3    85  PRO85       0.1535
     52  C          2.0000  -25.3260   19.7030 C.2    85  PRO85       0.2599
     53  O          1.9950  -24.1820   20.1450 O.2    85  PRO85      -0.2715
     54  CB         0.6140  -26.6150   21.3200 C.3    85  PRO85       0.0310
     55  CG         0.9080  -27.1440   22.6550 C.3    85  PRO85       0.0237
     56  CD         2.2050  -26.4970   23.0580 C.3    85  PRO85       0.0939
     57  N          2.0380  -25.6000   18.4090 N.am   86  PHE86      -0.1960
     58  CA         1.9520  -24.5580   17.3960 C.3    86  PHE86       0.1771
     59  C          0.4720  -24.2290   17.1730 C.2    86  PHE86       0.2619
     60  O         -0.3570  -25.1310   16.9910 O.2    86  PHE86      -0.2715
     61  CB         2.6300  -25.0450   16.1100 C.3    86  PHE86       0.0574
     62  CG         2.5510  -24.0820   14.9540 C.ar   86  PHE86      -0.0200
     63  CD1        3.5870  -23.1860   14.7070 C.ar   86  PHE86      -0.0042
     64  CD2        1.4600  -24.1080   14.0770 C.ar   86  PHE86      -0.0042
     65  CE1        3.5240  -22.3120   13.6230 C.ar   86  PHE86      -0.0003
     66  CE2        1.3860  -23.2370   13.0020 C.ar   86  PHE86      -0.0003
     67  CZ         2.4190  -22.3450   12.7680 C.ar   86  PHE86      -0.0000
     68  N          0.1570  -22.9360   17.2070 N.am   87  MET87      -0.1963
     69  CA        -1.1910  -22.4330   16.9630 C.3    87  MET87       0.1736
     70  C         -1.2510  -21.7070   15.6190 C.2    87  MET87       0.2616
     71  O         -0.8050  -20.5640   15.5110 O.2    87  MET87      -0.2715
     72  CB        -1.6040  -21.4570   18.0700 C.3    87  MET87       0.0427
     73  CG        -1.1670  -21.8440   19.4720 C.3    87  MET87       0.0599
     74  SD        -2.0940  -23.2350   20.1310 S.3    87  MET87      -0.1393
     75  CE        -1.7420  -23.0430   21.8700 C.3    87  MET87       0.0692
     76  N         -1.8200  -22.3560   14.6060 N.am   88  LYS88      -0.1963
     77  CA        -1.8730  -21.7760   13.2580 C.3    88  LYS88       0.1728
     78  C         -2.5740  -20.4080   13.1740 C.2    88  LYS88       0.2616
     79  O         -2.2550  -19.6060   12.2880 O.2    88  LYS88      -0.2715
     80  CB        -2.4470  -22.7640   12.2320 C.3    88  LYS88       0.0311
     81  CG        -3.8730  -23.2140   12.4880 C.3    88  LYS88       0.0038
     82  CD        -4.3500  -24.1610   11.3980 C.3    88  LYS88       0.0206
     83  CE        -5.7630  -24.6470   11.6690 C.3    88  LYS88       0.1093
     84  NZ        -6.2780  -25.5010   10.5700 N.3    88  LYS88      -0.1314
     85  N         -3.5000  -20.1360   14.0950 N.am   89  TYR89      -0.1960
     86  CA        -4.2220  -18.8500   14.1060 C.3    89  TYR89       0.1771
     87  C         -3.4440  -17.6940   14.7470 C.2    89  TYR89       0.2620
     88  O         -3.8190  -16.5270   14.5860 O.2    89  TYR89      -0.2715
     89  CB        -5.6140  -18.9890   14.7320 C.3    89  TYR89       0.0574
     90  CG        -6.5660  -19.8260   13.9090 C.ar   89  TYR89      -0.0198
     91  CD1       -6.8540  -19.4930   12.5790 C.ar   89  TYR89      -0.0009
     92  CD2       -7.1780  -20.9480   14.4520 C.ar   89  TYR89      -0.0009
     93  CE1       -7.7330  -20.2610   11.8110 C.ar   89  TYR89       0.0417
     94  CE2       -8.0520  -21.7220   13.6970 C.ar   89  TYR89       0.0417
     95  CZ        -8.3300  -21.3750   12.3770 C.ar   89  TYR89       0.1957
     96  OH        -9.2070  -22.1500   11.6310 O.3    89  TYR89      -0.2866
     97  N         -2.3640  -18.0200   15.4580 N.am   90  GLY90      -0.1940
     98  CA        -1.4120  -17.0180   15.9450 C.3    90  GLY90       0.2014
     99  C         -1.8860  -16.2990   17.1880 C.2    90  GLY90       0.2638
    100  O         -2.8630  -16.7140   17.8280 O.2    90  GLY90      -0.2714
    101  N         -1.1940  -15.2100   17.5260 N.am   91  ASP91      -0.1971
    102  CA        -1.5330  -14.3970   18.6960 C.3    91  ASP91       0.1709
    103  C         -2.8320  -13.6290   18.5020 C.2    91  ASP91       0.2293
    104  O         -3.1920  -13.2900   17.3730 O.2    91  ASP91      -0.2864
    105  CB        -0.3980  -13.4300   19.0310 C.3    91  ASP91       0.1436
    106  CG        -0.2210  -12.3450   17.9860 C.2    91  ASP91       0.3671
    107  OD1        0.3740  -12.6120   16.9200 O.co2  91  ASP91      -0.2456
    108  OD2       -0.6650  -11.2080   18.2400 O.co2  91  ASP91      -0.2456
    109  N         -0.6810   -9.9080   23.0670 N.3   140  ARG140     -0.1231
    110  CA         0.2370  -10.5010   22.0920 C.3   140  ARG140      0.1694
    111  C          0.7580  -11.8630   22.5450 C.2   140  ARG140      0.2592
    112  O          1.3120  -12.6190   21.7420 O.2   140  ARG140     -0.2718
    113  CB         1.3940   -9.5540   21.7770 C.3   140  ARG140      0.0321
    114  CG         2.4740   -9.4990   22.8460 C.3   140  ARG140      0.0489
    115  CD         3.5270   -8.4410   22.5220 C.3   140  ARG140      0.2205
    116  NE         4.2040   -7.9630   23.7280 N.pl3 140  ARG140     -0.0865
    117  CZ         3.6740   -7.1030   24.5970 C.cat 140  ARG140      0.5346
    118  NH1        2.4470   -6.6250   24.4080 N.pl3 140  ARG140      0.1354
    119  NH2        4.3670   -6.7220   25.6630 N.pl3 140  ARG140      0.1354
    120  N          0.5600  -12.1690   23.8280 N.am  141  ASN141     -0.1974
    121  CA         0.9790  -13.4350   24.4150 C.3   141  ASN141      0.1688
    122  C         -0.1630  -14.4180   24.6120 C.2   141  ASN141      0.2292
    123  O          0.0450  -15.5450   25.0570 O.2   141  ASN141     -0.2864
    124  CB         1.7260  -13.1910   25.7300 C.3   141  ASN141      0.1181
    125  CG         3.0350  -12.4700   25.5180 C.2   141  ASN141      0.2629
    126  OD1        3.5200  -12.3700   24.3880 O.2   141  ASN141     -0.2716
    127  ND2        3.6160  -11.9610   26.5970 N.am  141  ASN141     -0.0877
    128  N         -2.4840  -16.8550   22.8050 N.3   143  MET143     -0.1245
    129  CA        -2.6170  -17.5740   21.5430 C.3   143  MET143      0.1570
    130  C         -4.0650  -18.0370   21.3340 C.2   143  MET143      0.2261
    131  O         -4.8360  -18.1570   22.3030 O.2   143  MET143     -0.2867
    132  CB        -1.6310  -18.7370   21.4910 C.3   143  MET143      0.0387
    133  CG        -0.1580  -18.3260   21.7000 C.3   143  MET143      0.0595
    134  SD         0.4990  -17.1360   20.4900 S.3   143  MET143     -0.1393
    135  CE         0.4420  -18.1080   18.9980 C.3   143  MET143      0.0692
    136  N         -0.0460  -17.7640   27.0940 N.3   153  ALA153     -0.1231
    137  CA         1.2690  -18.3180   26.7920 C.3   153  ALA153      0.1694
    138  C          2.3880  -17.3770   27.2190 C.2   153  ALA153      0.2592
    139  O          2.1350  -16.3150   27.7850 O.2   153  ALA153     -0.2718
    140  CB         1.3750  -18.6410   25.3050 C.3   153  ALA153      0.0304
    141  N          3.6270  -17.7950   26.9470 N.am  154  ASP154     -0.1974
    142  CA         4.8420  -16.9960   27.1750 C.3   154  ASP154      0.1709
    143  C          5.0190  -16.5820   28.6390 C.2   154  ASP154      0.2293
    144  O          5.4160  -15.4590   28.9380 O.2   154  ASP154     -0.2864
    145  CB         4.8740  -15.7830   26.2350 C.3   154  ASP154      0.1436
    146  CG         6.2620  -15.2100   26.0660 C.2   154  ASP154      0.3671
    147  OD1        7.1310  -15.8980   25.4850 O.co2 154  ASP154     -0.2456
    148  OD2        6.4780  -14.0580   26.5040 O.co2 154  ASP154     -0.2456
@<TRIPOS>BOND
     1    84    83    1
     2    82    83    1
     3    82    81    1
     4    96    95    1
     5    93    95   ar
     6    93    91   ar
     7     8     6    1
     8    80    81    1
     9    80    77    1
    10    79    78    2
    11    95    94   ar
    12    91    90   ar
    13    67    66   ar
    14    67    65   ar
    15    66    64   ar
    16    78    77    1
    17    78    85   am
    18    77    76    1
    19     4     3    2
    20     6     5    1
    21     6     7    1
    22     2     1    1
    23     2     3    1
    24     2     5    1
    25    65    63   ar
    26    94    92   ar
    27    90    92   ar
    28    90    89    1
    29    64    62   ar
    30    85    86    1
    31    86    89    1
    32    86    87    1
    33     3     9   am
    34    88    87    2
    35    76    70   am
    36    63    62   ar
    37    87    97   am
    38    62    61    1
    39     9    10    1
    40    97    98    1
    41    71    70    2
    42    70    69    1
    43    98    99    1
    44    10    11    1
    45    61    58    1
    46    16    15    2
    47    11    12    2
    48   107   106   ar
    49    69    68    1
    50    69    72    1
    51    60    59    2
    52    15    14    1
    53    59    68   am
    54    59    58    1
    55    99   101   am
    56    99   100    2
    57   104   103    2
    58    58    57    1
    59   101   102    1
    60   106   108   ar
    61   106   105    1
    62    72    73    1
    63    57    52   am
    64    20    21    1
    65    21    24    1
    66    21    22    1
    67   103   102    1
    68    14    13    1
    69    14    17    1
    70    18    17    1
    71   102   105    1
    72    19    17    1
    73   135   134    1
    74    73    74    1
    75    22    23    2
    76    52    53    2
    77    52    51    1
    78    74    75    1
    79    45    44    2
    80   134   133    1
    81    51    54    1
    82    51    50    1
    83    54    55    1
    84   130   129    1
    85   130   131    2
    86   132   129    1
    87   132   133    1
    88   129   128    1
    89    44    50   am
    90    44    43    1
    91    25    26    1
    92   112   111    2
    93    50    56    1
    94   113   110    1
    95   113   114    1
    96   110   111    1
    97   110   109    1
    98    26    27    1
    99    26    29    1
   100   115   114    1
   101   115   116    1
   102   111   120   am
   103    42    43    1
   104    27    28    2
   105    55    56    1
   106    43    46    1
   107    46    47    1
   108    29    30    1
   109    30    31    1
   110   116   117    2
   111    41    39    1
   112   120   121    1
   113    48    47    1
   114    47    49    1
   115   126   125    2
   116   118   117    1
   117   121   122    1
   118   121   124    1
   119   117   119    1
   120   122   123    2
   121    39    38    1
   122    31    32    1
   123    32    33    1
   124   140   137    1
   125   147   146   ar
   126   125   124    1
   127   125   127   am
   128   146   145    1
   129   146   148   ar
   130    38    35    1
   131    38    40    1
   132   145   142    1
   133    35    36    1
   134    35    34    1
   135   137   136    1
   136   137   138    1
   137   141   142    1
   138   141   138   am
   139   142   143    1
   140   138   139    2
   141    36    37    2
   142   143   144    2
