@<TRIPOS>MOLECULE
tmp/3tcsB00.pdb
 117 115 0 0 0
SMALL
GASTEIGER

@<TRIPOS>ATOM
      1  N         32.1380  -12.0320   -7.3230 N.3   136  LEU136     -0.1245
      2  CA        31.4550  -10.7720   -7.6010 C.3   136  LEU136      0.1561
      3  C         32.3210   -9.9080   -8.5130 C.2   136  LEU136      0.2260
      4  O         31.8110   -9.1410   -9.3250 O.2   136  LEU136     -0.2867
      5  CB        31.1580  -10.0300   -6.2970 C.3   136  LEU136      0.0270
      6  CG        30.0570  -10.6700   -5.4510 C.3   136  LEU136      0.0019
      7  CD1       30.1200  -10.1530   -4.0170 C.3   136  LEU136      0.0001
      8  CD2       28.7060  -10.3730   -6.0900 C.3   136  LEU136      0.0001
      9  N         30.0070   -9.1180  -11.5080 N.3   140  GLN140     -0.1245
     10  CA        29.4750   -7.7570  -11.3960 C.3   140  GLN140      0.1566
     11  C         30.4210   -6.6640  -11.9020 C.2   140  GLN140      0.2260
     12  O         29.9870   -5.5480  -12.1930 O.2   140  GLN140     -0.2867
     13  CB        29.1070   -7.4540   -9.9380 C.3   140  GLN140      0.0367
     14  CG        28.0260   -8.3440   -9.3360 C.3   140  GLN140      0.0905
     15  CD        26.6900   -8.2250  -10.0470 C.2   140  GLN140      0.2608
     16  OE1       26.2580   -7.1260  -10.4070 O.2   140  GLN140     -0.2717
     17  NE2       26.0200   -9.3560  -10.2390 N.am  140  GLN140     -0.0878
     18  N         33.0950   -5.3920  -10.1390 N.3   142  PHE142     -0.1241
     19  CA        33.6780   -4.5590   -9.0840 C.3   142  PHE142      0.1605
     20  C         35.1980   -4.5620   -9.1970 C.2   142  PHE142      0.2264
     21  O         35.7900   -5.5910   -9.5360 O.2   142  PHE142     -0.2867
     22  CB        33.3140   -5.0950   -7.6960 C.3   142  PHE142      0.0534
     23  CG        31.8630   -4.9550   -7.3390 C.ar  142  PHE142     -0.0203
     24  CD1       31.3020   -3.7020   -7.1230 C.ar  142  PHE142     -0.0042
     25  CD2       31.0680   -6.0830   -7.1810 C.ar  142  PHE142     -0.0042
     26  CE1       29.9630   -3.5740   -6.7480 C.ar  142  PHE142     -0.0003
     27  CE2       29.7300   -5.9690   -6.8080 C.ar  142  PHE142     -0.0003
     28  CZ        29.1770   -4.7110   -6.5900 C.ar  142  PHE142     -0.0000
     29  N         20.9150   -1.8620    1.5560 N.3   290  TRP290     -0.1241
     30  CA        20.0990   -1.4990    0.4170 C.3   290  TRP290      0.1605
     31  C         18.7920   -0.7960    0.7410 C.2   290  TRP290      0.2264
     32  O         17.7990   -0.9460    0.0220 O.2   290  TRP290     -0.2867
     33  CB        19.8440   -2.7190   -0.4690 C.3   290  TRP290      0.0550
     34  CG        21.0980   -3.2440   -1.1120 C.ar  290  TRP290      0.0003
     35  CD1       22.3510   -2.6970   -1.0480 C.ar  290  TRP290      0.0946
     36  CD2       21.2230   -4.4380   -1.8920 C.ar  290  TRP290      0.0152
     37  NE1       23.2500   -3.4830   -1.7370 N.ar  290  TRP290     -0.2442
     38  CE2       22.5820   -4.5580   -2.2630 C.ar  290  TRP290      0.0810
     39  CE3       20.3160   -5.4220   -2.3110 C.ar  290  TRP290      0.0012
     40  CZ2       23.0570   -5.6250   -3.0340 C.ar  290  TRP290      0.0191
     41  CZ3       20.7900   -6.4840   -3.0790 C.ar  290  TRP290      0.0001
     42  CH2       22.1500   -6.5750   -3.4310 C.ar  290  TRP290      0.0015
     43  N         29.1960   -0.1570   -1.3630 N.3   313  PHE313     -0.1241
     44  CA        28.0840   -0.9660   -1.8430 C.3   313  PHE313      0.1605
     45  C         28.0410   -2.3170   -1.1440 C.2   313  PHE313      0.2264
     46  O         28.8530   -3.1910   -1.4210 O.2   313  PHE313     -0.2867
     47  CB        28.2110   -1.1680   -3.3510 C.3   313  PHE313      0.0534
     48  CG        26.9590   -1.6880   -3.9990 C.ar  313  PHE313     -0.0203
     49  CD1       25.9080   -0.8270   -4.3020 C.ar  313  PHE313     -0.0042
     50  CD2       26.8240   -3.0420   -4.2850 C.ar  313  PHE313     -0.0042
     51  CE1       24.7360   -1.3100   -4.8850 C.ar  313  PHE313     -0.0003
     52  CE2       25.6540   -3.5370   -4.8670 C.ar  313  PHE313     -0.0003
     53  CZ        24.6100   -2.6660   -5.1670 C.ar  313  PHE313     -0.0000
     54  N         27.3840   -6.0010   -0.2880 N.3   315  ILE315     -0.1231
     55  CA        27.1390   -7.1630   -1.1330 C.3   315  ILE315      0.1692
     56  C         26.5630   -8.3300   -0.3270 C.2   315  ILE315      0.2592
     57  O         26.5500   -9.4670   -0.7880 O.2   315  ILE315     -0.2718
     58  CB        28.4280   -7.6050   -1.9060 C.3   315  ILE315      0.0266
     59  CG1       29.6510   -7.6340   -0.9880 C.3   315  ILE315      0.0019
     60  CG2       28.6930   -6.6270   -3.0580 C.3   315  ILE315      0.0020
     61  CD1       29.6470   -8.7450    0.0390 C.3   315  ILE315      0.0001
     62  N         26.0680   -8.0360    0.8740 N.am  316  GLU316     -0.1966
     63  CA        25.4780   -9.0670    1.7260 C.3   316  GLU316      0.1733
     64  C         24.1120   -9.4770    1.1770 C.2   316  GLU316      0.2617
     65  O         23.4530   -8.7020    0.4840 O.2   316  GLU316     -0.2715
     66  CB        25.3180   -8.5530    3.1640 C.3   316  GLU316      0.0429
     67  CG        26.6150   -8.1340    3.8520 C.3   316  GLU316      0.1163
     68  CD        27.6240   -9.2660    3.9500 C.2   316  GLU316      0.3649
     69  OE1       27.2180  -10.4450    3.8490 O.co2 316  GLU316     -0.2457
     70  OE2       28.8260   -8.9800    4.1390 O.co2 316  GLU316     -0.2457
     71  N         23.6980  -10.7030    1.4830 N.am  317  GLY317     -0.1941
     72  CA        22.4170  -11.1960    1.0130 C.3   317  GLY317      0.1998
     73  C         21.3540  -11.1670    2.0950 C.2   317  GLY317      0.2480
     74  O         21.5760  -10.6070    3.1680 O.2   317  GLY317     -0.2729
     75  N         20.1850  -11.7790    1.8490 N.am  318  PRO318     -0.2726
     76  CA        19.0890  -11.8090    2.8210 C.3   318  PRO318      0.1402
     77  C         19.4030  -12.4880    4.1520 C.2   318  PRO318      0.2269
     78  O         18.6800  -12.2960    5.1280 O.2   318  PRO318     -0.2865
     79  CB        17.9650  -12.5030    2.0510 C.3   318  PRO318      0.0296
     80  CG        18.7060  -13.4160    1.1300 C.3   318  PRO318      0.0237
     81  CD        19.8270  -12.5280    0.6330 C.3   318  PRO318      0.0939
     82  N         14.3420   -2.2180   -7.9340 N.3   331  THR331     -0.1218
     83  CA        15.5930   -1.8770   -7.2700 C.3   331  THR331      0.1862
     84  C         16.3950   -0.8500   -8.0570 C.2   331  THR331      0.2287
     85  O         16.4790   -0.9150   -9.2810 O.2   331  THR331     -0.2866
     86  CB        16.4840   -3.1250   -7.0490 C.3   331  THR331      0.1770
     87  OG1       17.6500   -2.7500   -6.3020 O.3   331  THR331     -0.2211
     88  CG2       16.9200   -3.7230   -8.3840 C.3   331  THR331      0.0375
     89  N         19.5030   -0.4370   -7.4600 N.3   333  TYR333     -0.1227
     90  CA        20.8690   -0.8950   -7.2420 C.3   333  TYR333      0.1736
     91  C         21.4820   -1.9180   -8.1940 C.2   333  TYR333      0.2595
     92  O         22.3720   -2.6710   -7.8010 O.2   333  TYR333     -0.2718
     93  CB        20.9870   -1.4020   -5.8020 C.3   333  TYR333      0.0548
     94  CG        20.5950   -0.3590   -4.7750 C.ar  333  TYR333     -0.0200
     95  CD1       21.1500    0.9170   -4.8090 C.ar  333  TYR333     -0.0009
     96  CD2       19.6680   -0.6490   -3.7690 C.ar  333  TYR333     -0.0009
     97  CE1       20.7970    1.8860   -3.8680 C.ar  333  TYR333      0.0417
     98  CE2       19.3090    0.3150   -2.8220 C.ar  333  TYR333      0.0417
     99  CZ        19.8810    1.5780   -2.8800 C.ar  333  TYR333      0.1957
    100  OH        19.5560    2.5280   -1.9390 O.3   333  TYR333     -0.2866
    101  N         21.0170   -1.9510   -9.4380 N.am  334  GLU334     -0.1965
    102  CA        21.5870   -2.8770  -10.4080 C.3   334  GLU334      0.1733
    103  C         22.9880   -2.3540  -10.7240 C.2   334  GLU334      0.2616
    104  O         23.1630   -1.1630  -10.9860 O.2   334  GLU334     -0.2715
    105  CB        20.7490   -2.9090  -11.6890 C.3   334  GLU334      0.0429
    106  CG        19.3530   -3.4850  -11.5150 C.3   334  GLU334      0.1163
    107  CD        18.5790   -3.5340  -12.8220 C.2   334  GLU334      0.3649
    108  OE1       19.0440   -4.2120  -13.7610 O.co2 334  GLU334     -0.2457
    109  OE2       17.5090   -2.8910  -12.9130 O.co2 334  GLU334     -0.2457
    110  N         23.9810   -3.2370  -10.6960 N.am  335  ILE335     -0.1977
    111  CA        25.3560   -2.8330  -10.9760 C.3   335  ILE335      0.1596
    112  C         25.7520   -3.0820  -12.4270 C.2   335  ILE335      0.2287
    113  O         25.4730   -4.1450  -12.9830 O.2   335  ILE335     -0.2864
    114  CB        26.3540   -3.5780  -10.0550 C.3   335  ILE335      0.0276
    115  CG1       26.1220   -3.1720   -8.5960 C.3   335  ILE335      0.0022
    116  CG2       27.7950   -3.2510  -10.4550 C.3   335  ILE335      0.0022
    117  CD1       26.4820   -1.7320   -8.2970 C.3   335  ILE335      0.0001
@<TRIPOS>BOND
     1   108   107   ar
     2   113   112    2
     3   109   107   ar
     4   107   106    1
     5   112   111    1
     6    12    11    2
     7    11    10    1
     8   105   106    1
     9   105   102    1
    10     9    10    1
    11    10    13    1
    12   104   103    2
    13   111   110    1
    14   111   114    1
    15   103   110   am
    16   103   102    1
    17   116   114    1
    18   102   101    1
    19    16    15    2
    20    17    15   am
    21    18    19    1
    22   114   115    1
    23    15    14    1
    24    13    14    1
    25    21    20    2
    26   101    91   am
    27     4     3    2
    28    85    84    2
    29    20    19    1
    30    19    22    1
    31   115   117    1
    32     3     2    1
    33    88    86    1
    34    91    92    2
    35    91    90    1
    36    84    83    1
    37    82    83    1
    38    22    23    1
    39     2     1    1
    40     2     5    1
    41    89    90    1
    42    23    25   ar
    43    23    24   ar
    44    83    86    1
    45    90    93    1
    46    25    27   ar
    47    24    26   ar
    48    86    87    1
    49    27    28   ar
    50    26    28   ar
    51     5     6    1
    52     8     6    1
    53    93    94    1
    54     6     7    1
    55    53    51   ar
    56    53    52   ar
    57    51    49   ar
    58    52    50   ar
    59    95    94   ar
    60    95    97   ar
    61    94    96   ar
    62    49    48   ar
    63    50    48   ar
    64    48    47    1
    65    97    99   ar
    66    96    98   ar
    67    42    41   ar
    68    42    40   ar
    69    47    44    1
    70    41    39   ar
    71    60    58    1
    72    40    38   ar
    73    99    98   ar
    74    99   100    1
    75    39    36   ar
    76    38    36   ar
    77    38    37   ar
    78    58    55    1
    79    58    59    1
    80    36    34   ar
    81    44    43    1
    82    44    45    1
    83    37    35   ar
    84    46    45    2
    85    55    56    1
    86    55    54    1
    87    34    35   ar
    88    34    33    1
    89    59    61    1
    90    57    56    2
    91    33    30    1
    92    56    62   am
    93    32    31    2
    94    30    31    1
    95    30    29    1
    96    65    64    2
    97    81    80    1
    98    81    75    1
    99    62    63    1
   100    72    71    1
   101    72    73    1
   102    80    79    1
   103    64    71   am
   104    64    63    1
   105    63    66    1
   106    75    73   am
   107    75    76    1
   108    79    76    1
   109    73    74    2
   110    76    77    1
   111    66    67    1
   112    69    68   ar
   113    67    68    1
   114    68    70   ar
   115    77    78    2
