@<TRIPOS>MOLECULE
tmp/3tczA00.pdb
 153 145 0 0 0
SMALL
GASTEIGER

@<TRIPOS>ATOM
      1  N         -1.9920   37.9740    8.1240 N.3    42  HIS42      -0.1241
      2  CA        -2.4400   38.5360    9.3910 C.3    42  HIS42       0.1621
      3  C         -3.1250   39.8640    9.1750 C.2    42  HIS42       0.2264
      4  O         -3.0010   40.4750    8.1150 O.2    42  HIS42      -0.2867
      5  CB        -1.2870   38.6130   10.4230 C.3    42  HIS42       0.0745
      6  CG        -0.4050   39.8250   10.2920 C.ar   42  HIS42       0.0817
      7  ND1        0.2070   40.1910    9.1090 N.ar   42  HIS42      -0.2268
      8  CD2        0.0110   40.7190   11.2180 C.ar   42  HIS42       0.1154
      9  CE1        0.9330   41.2760    9.3050 C.ar   42  HIS42       0.1986
     10  NE2        0.8260   41.6220   10.5760 N.ar   42  HIS42      -0.2212
     11  N         -3.3910   43.3260   11.4180 N.3    44  LEU44      -0.1245
     12  CA        -2.8170   43.9710   12.5800 C.3    44  LEU44       0.1561
     13  C         -3.6250   45.2080   12.9420 C.2    44  LEU44       0.2260
     14  O         -3.9640   46.0150   12.0900 O.2    44  LEU44      -0.2867
     15  CB        -1.3300   44.2990   12.3410 C.3    44  LEU44       0.0270
     16  CG        -0.5350   45.1590   13.3520 C.3    44  LEU44       0.0019
     17  CD1       -0.2980   44.4490   14.6840 C.3    44  LEU44       0.0001
     18  CD2        0.7860   45.5110   12.7480 C.3    44  LEU44       0.0001
     19  N         -2.9190   48.2210   15.4250 N.3    46  LYS46      -0.1245
     20  CA        -1.9130   48.8200   16.2810 C.3    46  LYS46       0.1561
     21  C         -2.6120   49.6550   17.3450 C.2    46  LYS46       0.2260
     22  O         -3.7980   49.9980   17.2050 O.2    46  LYS46      -0.2867
     23  CB        -0.9450   49.6750   15.4580 C.3    46  LYS46       0.0271
     24  CG         0.1120   48.8600   14.7120 C.3    46  LYS46       0.0035
     25  CD         0.9810   49.7330   13.7820 C.3    46  LYS46       0.0206
     26  CE         2.1730   48.9320   13.2630 C.3    46  LYS46       0.1093
     27  NZ         3.2250   49.7870   12.6710 N.3    46  LYS46      -0.1314
     28  N          5.1740   49.2640   19.2200 N.3    51  ARG51      -0.1231
     29  CA         6.5830   49.6590   19.0350 C.3    51  ARG51       0.1694
     30  C          6.7740   50.7520   17.9900 C.2    51  ARG51       0.2591
     31  O          7.7760   51.4720   18.0230 O.2    51  ARG51      -0.2718
     32  CB         7.4600   48.4540   18.6870 C.3    51  ARG51       0.0321
     33  CG         7.3300   47.9540   17.2610 C.3    51  ARG51       0.0489
     34  CD         8.0280   46.6190   17.0900 C.3    51  ARG51       0.2205
     35  NE         7.9480   46.1210   15.7210 N.pl3  51  ARG51      -0.0865
     36  CZ         8.6160   45.0570   15.2770 C.cat  51  ARG51       0.5346
     37  NH1        9.4140   44.3840   16.0980 N.pl3  51  ARG51       0.1354
     38  NH2        8.4890   44.6620   14.0110 N.pl3  51  ARG51       0.1354
     39  N          5.8150   50.8570   17.0690 N.am   52  ARG52      -0.1980
     40  CA         5.7760   51.8890   16.0370 C.3    52  ARG52       0.1597
     41  C          4.3310   52.3640   15.8710 C.2    52  ARG52       0.2287
     42  O          3.6160   51.8740   14.9880 O.2    52  ARG52      -0.2864
     43  CB         6.2700   51.3240   14.7050 C.3    52  ARG52       0.0334
     44  CG         7.7510   51.5250   14.3780 C.3    52  ARG52       0.0492
     45  CD         7.9950   51.2380   12.8860 C.3    52  ARG52       0.2205
     46  NE         6.9490   51.8610   12.0680 N.pl3  52  ARG52      -0.0865
     47  CZ         6.4600   51.3690   10.9270 C.cat  52  ARG52       0.5346
     48  NH1        6.9220   50.2240   10.4230 N.pl3  52  ARG52       0.1354
     49  NH2        5.4950   52.0300   10.2860 N.pl3  52  ARG52       0.1354
     50  N         -3.1120   47.4170   10.0520 N.3    95  ASP95      -0.1225
     51  CA        -2.1740   48.5370   10.2220 C.3    95  ASP95       0.1805
     52  C         -0.7820   48.0900    9.7860 C.2    95  ASP95       0.2598
     53  O          0.2180   48.7230   10.0870 O.2    95  ASP95      -0.2718
     54  CB        -2.1780   49.0660   11.6710 C.3    95  ASP95       0.1424
     55  CG        -3.3180   50.0430   11.9480 C.2    95  ASP95       0.3668
     56  OD1       -3.5190   50.9770   11.1540 O.co2  95  ASP95      -0.2456
     57  OD2       -4.0240   49.8970   12.9740 O.co2  95  ASP95      -0.2456
     58  N         -0.7310   46.9910    9.0510 N.am   96  CYS96      -0.1956
     59  CA         0.5090   46.5210    8.4870 C.3    96  CYS96       0.1843
     60  C          0.5770   46.8440    6.9950 C.2    96  CYS96       0.2626
     61  O         -0.4450   47.0350    6.3260 O.2    96  CYS96      -0.2714
     62  CB         0.6730   45.0240    8.7310 C.3    96  CYS96       0.0997
     63  SG         2.3020   44.3830    8.3930 S.3    96  CYS96      -0.0797
     64  N          1.8110   46.9320    6.5170 N.am   97  SER97      -0.1950
     65  CA         2.1580   47.1220    5.1310 C.3    97  SER97       0.1924
     66  C          1.6360   45.9580    4.2530 C.2    97  SER97       0.2314
     67  O          1.2560   46.1580    3.0720 O.2    97  SER97      -0.2863
     68  CB         3.6950   47.2260    5.0530 C.3    97  SER97       0.2116
     69  OG         4.1240   47.5710    3.7570 O.3    97  SER97      -0.2180
     70  N          2.1790   37.4260    4.3780 N.3   105  LEU105     -0.1245
     71  CA         3.5270   37.7280    4.8490 C.3   105  LEU105      0.1561
     72  C          4.5670   36.8880    4.1400 C.2   105  LEU105      0.2260
     73  O          5.7580   37.0380    4.4010 O.2   105  LEU105     -0.2867
     74  CB         3.6540   37.4530    6.3620 C.3   105  LEU105      0.0270
     75  CG         2.9950   38.4310    7.3300 C.3   105  LEU105      0.0019
     76  CD1        2.9090   37.8140    8.7270 C.3   105  LEU105      0.0001
     77  CD2        3.7590   39.7340    7.3500 C.3   105  LEU105      0.0001
     78  N          6.3040   33.1170    3.3560 N.3   107  ALA107     -0.1231
     79  CA         6.7580   32.0610    4.2510 C.3   107  ALA107      0.1694
     80  C          7.8210   32.5710    5.2190 C.2   107  ALA107      0.2592
     81  O          8.4760   33.5960    4.9690 O.2   107  ALA107     -0.2718
     82  CB         7.2660   30.8560    3.4620 C.3   107  ALA107      0.0304
     83  N          7.9610   31.8710    6.3440 N.am  108  PHE108     -0.1976
     84  CA         8.9440   32.2270    7.3670 C.3   108  PHE108      0.1639
     85  C          9.1970   31.0330    8.2870 C.2   108  PHE108      0.2290
     86  O          8.3400   30.1740    8.4620 O.2   108  PHE108     -0.2864
     87  CB         8.5440   33.5010    8.1500 C.3   108  PHE108      0.0560
     88  CG         7.2190   33.3880    8.8990 C.ar  108  PHE108     -0.0200
     89  CD1        7.1660   32.8100   10.1730 C.ar  108  PHE108     -0.0042
     90  CD2        6.0340   33.8560    8.3250 C.ar  108  PHE108     -0.0042
     91  CE1        5.9530   32.6940   10.8550 C.ar  108  PHE108     -0.0003
     92  CE2        4.8190   33.7460    8.9960 C.ar  108  PHE108     -0.0003
     93  CZ         4.7740   33.1590   10.2650 C.ar  108  PHE108     -0.0000
     94  N         12.4040   34.4210   13.1350 N.3   112  GLN112     -0.1231
     95  CA        12.2430   35.5660   12.2340 C.3   112  GLN112      0.1698
     96  C         11.2280   36.5790   12.7480 C.2   112  GLN112      0.2592
     97  O         11.4700   37.7860   12.6850 O.2   112  GLN112     -0.2718
     98  CB        11.8300   35.1220   10.8330 C.3   112  GLN112      0.0381
     99  CG        12.8230   34.2190   10.1040 C.3   112  GLN112      0.0905
    100  CD        12.3790   33.9620    8.6740 C.2   112  GLN112      0.2608
    101  OE1       12.1150   32.8250    8.2820 O.2   112  GLN112     -0.2717
    102  NE2       12.2650   35.0310    7.8940 N.am  112  GLN112     -0.0878
    103  N         10.0920   36.0910   13.2440 N.am  113  MET113     -0.1965
    104  CA         9.0450   36.9680   13.7540 C.3   113  MET113      0.1736
    105  C          9.1420   37.1100   15.2710 C.2   113  MET113      0.2616
    106  O          9.7590   36.2820   15.9370 O.2   113  MET113     -0.2715
    107  CB         7.6520   36.4470   13.3540 C.3   113  MET113      0.0427
    108  CG         7.5020   36.1660   11.8510 C.3   113  MET113      0.0599
    109  SD         7.4910   37.6750   10.8830 S.3   113  MET113     -0.1393
    110  CE         7.6080   37.0180    9.2240 C.3   113  MET113      0.0692
    111  N          8.5320   38.1650   15.7930 N.am  114  GLN114     -0.1977
    112  CA         8.3200   38.3140   17.2260 C.3   114  GLN114      0.1601
    113  C          7.6730   37.0530   17.7790 C.2   114  GLN114      0.2287
    114  O          6.7890   36.4540   17.1560 O.2   114  GLN114     -0.2864
    115  CB         7.4710   39.5400   17.5290 C.3   114  GLN114      0.0394
    116  CG         8.0340   40.8240   16.9380 C.3   114  GLN114      0.0908
    117  CD         7.1280   42.0150   17.1600 C.2   114  GLN114      0.2608
    118  OE1        7.1320   42.6190   18.2200 O.2   114  GLN114     -0.2717
    119  NE2        6.3580   42.3660   16.1490 N.am  114  GLN114     -0.0878
    120  N          3.7560   35.8910   17.8810 N.3   117  PHE117     -0.1241
    121  CA         3.3370   35.6140   16.4980 C.3   117  PHE117      0.1605
    122  C          3.8700   34.2740   16.0110 C.2   117  PHE117      0.2264
    123  O          3.1080   33.4500   15.4900 O.2   117  PHE117     -0.2867
    124  CB         3.8160   36.7260   15.5620 C.3   117  PHE117      0.0534
    125  CG         3.0790   36.7790   14.2270 C.ar  117  PHE117     -0.0203
    126  CD1        2.0000   37.6330   14.0500 C.ar  117  PHE117     -0.0042
    127  CD2        3.4900   35.9930   13.1520 C.ar  117  PHE117     -0.0042
    128  CE1        1.3280   37.7040   12.8190 C.ar  117  PHE117     -0.0003
    129  CE2        2.8120   36.0510   11.9270 C.ar  117  PHE117     -0.0003
    130  CZ         1.7280   36.9090   11.7780 C.ar  117  PHE117     -0.0000
    131  N          1.6550   41.1830   20.4080 N.3   135  THR135     -0.1218
    132  CA         3.1060   41.3010   20.2090 C.3   135  THR135      0.1862
    133  C          3.4250   42.7700   20.4380 C.2   135  THR135      0.2287
    134  O          2.5150   43.5710   20.6220 O.2   135  THR135     -0.2866
    135  CB         3.5580   40.9530   18.7560 C.3   135  THR135      0.1770
    136  OG1        3.0890   41.9680   17.8710 O.3   135  THR135     -0.2211
    137  CG2        3.0790   39.5800   18.2810 C.3   135  THR135      0.0375
    138  N          4.0870   44.7880   18.1640 N.3   137  SER137     -0.1217
    139  CA         3.5260   45.5310   17.0400 C.3   137  SER137      0.1889
    140  C          2.1250   45.9890   17.3260 C.2   137  SER137      0.2288
    141  O          1.7420   47.0640   16.8910 O.2   137  SER137     -0.2866
    142  CB         3.5590   44.7170   15.7410 C.3   137  SER137      0.2089
    143  OG         4.8970   44.4270   15.4040 O.3   137  SER137     -0.2183
    144  N         -2.9290   40.8690   16.6760 N.3   140  HIS140     -0.1241
    145  CA        -2.9890   40.1980   15.3750 C.3   140  HIS140      0.1621
    146  C         -4.1260   39.1780   15.3540 C.2   140  HIS140      0.2264
    147  O         -4.4860   38.5970   16.3950 O.2   140  HIS140     -0.2867
    148  CB        -1.6820   39.4240   15.0910 C.3   140  HIS140      0.0745
    149  CG        -0.4370   40.2470   15.1910 C.ar  140  HIS140      0.0817
    150  ND1        0.2740   40.6550   14.0810 N.ar  140  HIS140     -0.2268
    151  CD2        0.2410   40.7190   16.2670 C.ar  140  HIS140      0.1154
    152  CE1        1.3260   41.3540   14.4680 C.ar  140  HIS140      0.1986
    153  NE2        1.3260   41.4140   15.7880 N.ar  140  HIS140     -0.2212
@<TRIPOS>BOND
     1    67    66    2
     2    78    79    1
     3    82    79    1
     4    69    68    1
     5    72    73    2
     6    72    71    1
     7    79    80    1
     8    66    65    1
     9    70    71    1
    10    71    74    1
    11    81    80    2
    12    68    65    1
    13    65    64    1
    14    80    83   am
    15    61    60    2
    16    83    84    1
    17    74    75    1
    18    64    60   am
    19    60    59    1
    20    75    77    1
    21    75    76    1
    22    84    87    1
    23    84    85    1
    24   102   100   am
    25     4     3    2
    26     1     2    1
    27    87    88    1
    28   101   100    2
    29    85    86    2
    30    90    88   ar
    31    90    92   ar
    32    63    62    1
    33    59    62    1
    34    59    58    1
    35   100    99    1
    36    88    89   ar
    37    92    93   ar
    38    58    52   am
    39     7     9   ar
    40     7     6   ar
    41     3     2    1
    42   110   109    1
    43     9    10   ar
    44     2     5    1
    45    52    53    2
    46    52    51    1
    47    50    51    1
    48    99    98    1
    49    89    91   ar
    50    51    54    1
    51    93    91   ar
    52    49    47    1
    53     6     5    1
    54     6     8   ar
    55    48    47    1
    56    10     8   ar
    57    98    95    1
    58   109   108    1
    59    47    46    2
    60    56    55   ar
    61    11    12    1
    62    54    55    1
    63   130   129   ar
    64   130   128   ar
    65   108   107    1
    66   129   127   ar
    67    55    57   ar
    68    46    45    1
    69    14    13    2
    70    95    96    1
    71    95    94    1
    72    15    12    1
    73    15    16    1
    74    12    13    1
    75    27    26    1
    76    97    96    2
    77    96   103   am
    78    18    16    1
    79   128   126   ar
    80    45    44    1
    81   127   125   ar
    82   103   104    1
    83    26    25    1
    84    16    17    1
    85   107   104    1
    86   104   105    1
    87    25    24    1
    88    38    36    1
    89   126   125   ar
    90   150   152   ar
    91   150   149   ar
    92   125   124    1
    93    44    43    1
    94   152   153   ar
    95    43    40    1
    96    24    23    1
    97    42    41    2
    98   148   149    1
    99   148   145    1
   100   149   151   ar
   101   105   111   am
   102   105   106    2
   103    36    35    2
   104    36    37    1
   105   146   145    1
   106   146   147    2
   107   145   144    1
   108   143   142    1
   109    19    20    1
   110    23    20    1
   111   123   122    2
   112   124   121    1
   113    35    34    1
   114   142   139    1
   115   153   151   ar
   116   111   112    1
   117    41    40    1
   118   122   121    1
   119    40    39    1
   120   119   117   am
   121    20    21    1
   122   121   120    1
   123   141   140    2
   124   116   117    1
   125   116   115    1
   126   139   140    1
   127   139   138    1
   128    39    30   am
   129    34    33    1
   130   114   113    2
   131   117   118    2
   132    22    21    2
   133   112   115    1
   134   112   113    1
   135    33    32    1
   136   136   135    1
   137    30    31    2
   138    30    29    1
   139   137   135    1
   140    32    29    1
   141   135   132    1
   142    29    28    1
   143   132   131    1
   144   132   133    1
   145   133   134    2
