@<TRIPOS>MOLECULE
tmp/3td5G00.pdb
 125 117 0 0 0
SMALL
GASTEIGER

@<TRIPOS>ATOM
      1  N         75.3320  177.1890    6.9630 N.3    17  THR17      -0.1203
      2  CA        75.9110  177.8260    5.7900 C.3    17  THR17       0.1994
      3  C         77.4320  177.8660    5.8220 C.2    17  THR17       0.2617
      4  O         78.0310  178.3290    6.7930 O.2    17  THR17      -0.2717
      5  CB        75.3870  179.2660    5.6480 C.3    17  THR17       0.1784
      6  OG1       73.9650  179.2360    5.5160 O.3    17  THR17      -0.2211
      7  CG2       75.9840  179.9430    4.4300 C.3    17  THR17       0.0376
      8  N         78.0410  177.3740    4.7460 N.am   18  ASN18      -0.1974
      9  CA        79.4890  177.3430    4.5860 C.3    18  ASN18       0.1688
     10  C         80.2390  176.5650    5.6700 C.2    18  ASN18       0.2292
     11  O         81.4490  176.7240    5.8200 O.2    18  ASN18      -0.2864
     12  CB        80.0390  178.7730    4.5110 C.3    18  ASN18       0.1181
     13  CG        81.2180  178.8920    3.5610 C.2    18  ASN18       0.2629
     14  OD1       82.0180  179.8220    3.6610 O.2    18  ASN18      -0.2716
     15  ND2       81.3220  177.9560    2.6230 N.am   18  ASN18      -0.0877
     16  N         75.0770  170.7240   -0.8580 N.3    51  THR51      -0.1203
     17  CA        75.0570  172.1300   -0.4680 C.3    51  THR51       0.1994
     18  C         73.7950  172.7660   -1.0600 C.2    51  THR51       0.2617
     19  O         73.1080  172.1470   -1.8840 O.2    51  THR51      -0.2717
     20  CB        76.2630  172.9110   -1.0440 C.3    51  THR51       0.1784
     21  OG1       76.1980  172.8840   -2.4760 O.3    51  THR51      -0.2211
     22  CG2       77.5970  172.2990   -0.5780 C.3    51  THR51       0.0376
     23  N         73.4680  173.9830   -0.6270 N.am   52  ASP52      -0.1973
     24  CA        72.3370  174.6740   -1.2270 C.3    52  ASP52       0.1709
     25  C         72.9590  175.3500   -2.4550 C.2    52  ASP52       0.2293
     26  O         74.1660  175.2140   -2.6850 O.2    52  ASP52      -0.2864
     27  CB        71.6740  175.6900   -0.2650 C.3    52  ASP52       0.1436
     28  CG        72.6420  176.7060    0.3080 C.2    52  ASP52       0.3671
     29  OD1       73.5490  177.1530   -0.4230 O.co2  52  ASP52      -0.2456
     30  OD2       72.4760  177.0730    1.4980 O.co2  52  ASP52      -0.2456
     31  N         73.7840  178.4400   -3.1410 N.3    54  THR54      -0.1203
     32  CA        74.4510  179.7350   -2.9880 C.3    54  THR54       0.1994
     33  C         75.9700  179.6360   -3.0200 C.2    54  THR54       0.2618
     34  O         76.5460  178.6420   -2.5740 O.2    54  THR54      -0.2717
     35  CB        74.0520  180.4460   -1.6710 C.3    54  THR54       0.1784
     36  OG1       74.4530  179.6410   -0.5500 O.3    54  THR54      -0.2211
     37  CG2       72.5400  180.7020   -1.6350 C.3    54  THR54       0.0376
     38  N         76.6110  180.6710   -3.5550 N.am   55  GLY55      -0.1942
     39  CA        78.0600  180.6980   -3.6190 C.3    55  GLY55       0.1998
     40  C         78.6920  180.0880   -4.8580 C.2    55  GLY55       0.2480
     41  O         78.0030  179.5580   -5.7270 O.2    55  GLY55      -0.2729
     42  N         80.0260  180.1550   -4.9590 N.am   56  PRO56      -0.2726
     43  CA        80.7970  179.6200   -6.0830 C.3    56  PRO56       0.1402
     44  C         80.6140  178.1170   -6.2420 C.2    56  PRO56       0.2269
     45  O         80.5130  177.3910   -5.2510 O.2    56  PRO56      -0.2865
     46  CB        82.2320  179.9600   -5.7070 C.3    56  PRO56       0.0296
     47  CG        82.0860  181.1550   -4.8340 C.3    56  PRO56       0.0237
     48  CD        80.9190  180.7920   -3.9800 C.3    56  PRO56       0.0939
     49  N         83.4930  176.1930   -4.6250 N.3    59  LEU59      -0.1231
     50  CA        83.3650  176.1960   -3.1690 C.3    59  LEU59       0.1693
     51  C         82.3980  175.1000   -2.7090 C.2    59  LEU59       0.2592
     52  O         82.6590  174.4000   -1.7350 O.2    59  LEU59      -0.2718
     53  CB        82.8590  177.5620   -2.6870 C.3    59  LEU59       0.0284
     54  CG        82.6460  177.7840   -1.1800 C.3    59  LEU59       0.0019
     55  CD1       82.6870  179.2750   -0.8900 C.3    59  LEU59       0.0001
     56  CD2       81.3170  177.1860   -0.7210 C.3    59  LEU59       0.0001
     57  N         81.2880  174.9520   -3.4190 N.am   60  ASN60      -0.1974
     58  CA        80.2880  173.9590   -3.0620 C.3    60  ASN60       0.1688
     59  C         80.6820  172.5270   -3.3890 C.2    60  ASN60       0.2292
     60  O         80.2180  171.5810   -2.7510 O.2    60  ASN60      -0.2864
     61  CB        78.9590  174.3310   -3.7050 C.3    60  ASN60       0.1181
     62  CG        78.4030  175.6080   -3.1330 C.2    60  ASN60       0.2629
     63  OD1       78.2860  176.6280   -3.8240 O.2    60  ASN60      -0.2716
     64  ND2       78.0800  175.5730   -1.8460 N.am   60  ASN60      -0.0877
     65  N         83.7040  171.4110   -3.0070 N.3    62  ARG62      -0.1231
     66  CA        84.5600  171.0410   -1.8860 C.3    62  ARG62       0.1694
     67  C         83.7870  170.9380   -0.5820 C.2    62  ARG62       0.2591
     68  O         84.0360  170.0430    0.2260 O.2    62  ARG62      -0.2718
     69  CB        85.7060  172.0460   -1.7120 C.3    62  ARG62       0.0321
     70  CG        86.7140  172.0800   -2.8700 C.3    62  ARG62       0.0489
     71  CD        88.0210  172.7540   -2.4430 C.3    62  ARG62       0.2205
     72  NE        87.7770  174.0360   -1.7850 N.pl3  62  ARG62      -0.0865
     73  CZ        87.3660  175.1330   -2.4130 C.cat  62  ARG62       0.5346
     74  NH1       87.1630  175.1110   -3.7240 N.pl3  62  ARG62       0.1354
     75  NH2       87.1390  176.2470   -1.7290 N.pl3  62  ARG62       0.1354
     76  N         82.8520  171.8590   -0.3800 N.am   63  LEU63      -0.1980
     77  CA        82.0560  171.8720    0.8300 C.3    63  LEU63       0.1596
     78  C         81.2070  170.6090    0.9560 C.2    63  LEU63       0.2287
     79  O         81.1310  170.0170    2.0270 O.2    63  LEU63      -0.2864
     80  CB        81.1610  173.1110    0.8500 C.3    63  LEU63       0.0297
     81  CG        80.2610  173.3370    2.0700 C.3    63  LEU63       0.0022
     82  CD1       81.0820  173.3090    3.3470 C.3    63  LEU63       0.0001
     83  CD2       79.5490  174.6710    1.9290 C.3    63  LEU63       0.0001
     84  N         81.6320  167.8990    3.9110 N.3    67  ARG67      -0.1245
     85  CA        80.5600  167.4800    4.8120 C.3    67  ARG67       0.1563
     86  C         80.4630  165.9560    4.8970 C.2    67  ARG67       0.2260
     87  O         80.2470  165.4060    5.9750 O.2    67  ARG67      -0.2867
     88  CB        79.2280  168.0940    4.3630 C.3    67  ARG67       0.0307
     89  CG        79.1030  169.5750    4.7350 C.3    67  ARG67       0.0489
     90  CD        77.9980  170.2970    3.9760 C.3    67  ARG67       0.2205
     91  NE        77.7920  171.6430    4.5110 N.pl3  67  ARG67      -0.0865
     92  CZ        77.1180  172.6110    3.8930 C.cat  67  ARG67       0.5346
     93  NH1       76.5780  172.4050    2.7000 N.pl3  67  ARG67       0.1354
     94  NH2       76.9830  173.7940    4.4730 N.pl3  67  ARG67       0.1354
     95  N         64.6670  179.8720    3.0210 N.3   103  LYS103     -0.1245
     96  CA        65.7000  179.5010    3.9730 C.3   103  LYS103      0.1561
     97  C         65.4900  178.0700    4.4650 C.2   103  LYS103      0.2260
     98  O         66.4620  177.3390    4.6860 O.2   103  LYS103     -0.2867
     99  CB        65.7400  180.4810    5.1510 C.3   103  LYS103      0.0271
    100  CG        64.4980  180.5400    6.0100 C.3   103  LYS103      0.0035
    101  CD        64.6610  181.6090    7.0850 C.3   103  LYS103      0.0206
    102  CE        63.5320  181.5680    8.1050 C.3   103  LYS103      0.1093
    103  NZ        62.1940  181.7190    7.4680 N.3   103  LYS103     -0.1314
    104  N         66.9410  175.7550    1.8180 N.3   106  ARG106     -0.1245
    105  CA        68.4000  175.7730    1.8180 C.3   106  ARG106      0.1563
    106  C         68.9250  174.9900    3.0110 C.2   106  ARG106      0.2260
    107  O         69.8750  174.2240    2.8850 O.2   106  ARG106     -0.2867
    108  CB        68.9350  177.2130    1.8790 C.3   106  ARG106      0.0307
    109  CG        68.7470  178.0130    0.5980 C.3   106  ARG106      0.0489
    110  CD        69.5620  179.3110    0.6320 C.3   106  ARG106      0.2205
    111  NE        69.0630  180.2760    1.6100 N.pl3 106  ARG106     -0.0865
    112  CZ        67.9610  181.0110    1.4590 C.cat 106  ARG106      0.5346
    113  NH1       67.5980  181.8590    2.4100 N.pl3 106  ARG106      0.1354
    114  NH2       67.2260  180.9100    0.3600 N.pl3 106  ARG106      0.1354
    115  N         71.4750  171.6640    2.7480 N.3   110  ARG110     -0.1245
    116  CA        72.8080  171.5880    3.3350 C.3   110  ARG110      0.1563
    117  C         72.8720  170.3230    4.1900 C.2   110  ARG110      0.2260
    118  O         72.6060  170.3580    5.3950 O.2   110  ARG110     -0.2867
    119  CB        73.0780  172.8190    4.2030 C.3   110  ARG110      0.0307
    120  CG        73.0670  174.1400    3.4410 C.3   110  ARG110      0.0489
    121  CD        73.6770  175.2400    4.2830 C.3   110  ARG110      0.2205
    122  NE        72.8950  175.5700    5.4730 N.pl3 110  ARG110     -0.0865
    123  CZ        71.8350  176.3730    5.4790 C.cat 110  ARG110      0.5346
    124  NH1       71.4070  176.9320    4.3560 N.pl3 110  ARG110      0.1354
    125  NH2       71.2240  176.6490    6.6190 N.pl3 110  ARG110      0.1354
@<TRIPOS>BOND
     1    44    43    1
     2    44    45    2
     3    43    46    1
     4    43    42    1
     5    41    40    2
     6    46    47    1
     7    42    40   am
     8    42    48    1
     9    40    39    1
    10    47    48    1
    11    49    50    1
    12    63    62    2
    13    74    73    1
    14    61    62    1
    15    61    58    1
    16    39    38    1
    17    38    33   am
    18    57    58    1
    19    57    51   am
    20    59    58    1
    21    59    60    2
    22    50    51    1
    23    50    53    1
    24    31    32    1
    25    62    64   am
    26    33    32    1
    27    33    34    2
    28    65    66    1
    29    32    35    1
    30    70    71    1
    31    70    69    1
    32    51    52    2
    33    53    54    1
    34    26    25    2
    35    21    20    1
    36    25    24    1
    37    71    72    1
    38    73    72    2
    39    73    75    1
    40    66    69    1
    41    66    67    1
    42    19    18    2
    43    35    37    1
    44    35    36    1
    45    24    23    1
    46    24    27    1
    47    54    55    1
    48    54    56    1
    49    18    23   am
    50    18    17    1
    51    20    22    1
    52    20    17    1
    53    16    17    1
    54    67    76   am
    55    67    68    2
    56    29    28   ar
    57    76    77    1
    58    27    28    1
    59    28    30   ar
    60   114   112    1
    61   109   110    1
    62   109   108    1
    63   110   111    1
    64    77    80    1
    65    77    78    1
    66    80    81    1
    67    78    79    2
    68   112   111    2
    69   112   113    1
    70   104   105    1
    71   105   108    1
    72   105   106    1
    73    83    81    1
    74    81    82    1
    75    15    13   am
    76    93    92    1
    77   115   116    1
    78   107   106    2
    79    95    96    1
    80   116   117    1
    81   116   119    1
    82   120   119    1
    83   120   121    1
    84    13    14    2
    85    13    12    1
    86    92    94    1
    87    92    91    2
    88    84    85    1
    89    96    97    1
    90    96    99    1
    91    90    91    1
    92    90    89    1
    93   117   118    2
    94   121   122    1
    95   124   123    1
    96    88    89    1
    97    88    85    1
    98     7     5    1
    99    97    98    2
   100    12     9    1
   101     9     8    1
   102     9    10    1
   103     8     3   am
   104    85    86    1
   105    86    87    2
   106    99   100    1
   107   122   123    2
   108   123   125    1
   109     6     5    1
   110     5     2    1
   111    10    11    2
   112     2     3    1
   113     2     1    1
   114     3     4    2
   115   100   101    1
   116   101   102    1
   117   103   102    1
