@<TRIPOS>MOLECULE
tmp/3td8A01.pdb
 185 178 0 0 0
SMALL
GASTEIGER

@<TRIPOS>ATOM
      1  N          5.5680   -0.4480   16.4050 N.3     6  ILE6       -0.1231
      2  CA         6.1840   -1.2110   15.2640 C.3     6  ILE6        0.1692
      3  C          7.6970   -1.4840   15.5880 C.2     6  ILE6        0.2592
      4  O          8.4480   -0.6220   16.0730 O.2     6  ILE6       -0.2718
      5  CB         5.9780   -0.4590   13.9130 C.3     6  ILE6        0.0266
      6  CG1        6.5390   -1.2970   12.7090 C.3     6  ILE6        0.0019
      7  CG2        6.5040    0.9990   13.9670 C.3     6  ILE6        0.0020
      8  CD1        6.0440   -0.7860   11.3030 C.3     6  ILE6        0.0001
      9  N          8.0860   -2.7400   15.3690 N.am    7  VAL7       -0.1966
     10  CA         9.3540   -3.2890   15.7890 C.3     7  VAL7        0.1727
     11  C          9.6980   -4.5060   14.8910 C.2     7  VAL7        0.2616
     12  O          8.8070   -5.2390   14.4010 O.2     7  VAL7       -0.2715
     13  CB         9.2580   -3.7700   17.2790 C.3     7  VAL7        0.0290
     14  CG1        8.2070   -4.8790   17.5150 C.3     7  VAL7        0.0023
     15  CG2       10.6210   -4.1570   17.8820 C.3     7  VAL7        0.0023
     16  N         10.9910   -4.8060   14.7820 N.am    8  ALA8       -0.1977
     17  CA        11.4430   -6.0230   14.1360 C.3     8  ALA8        0.1597
     18  C         12.3040   -6.6200   15.2390 C.2     8  ALA8        0.2287
     19  O         13.0980   -5.9010   15.8570 O.2     8  ALA8       -0.2864
     20  CB        12.2950   -5.7180   12.8740 C.3     8  ALA8        0.0319
     21  N         24.0200    0.1630   19.0300 N.3    19  ASN19      -0.1225
     22  CA        23.1620    1.2990   18.5670 C.3    19  ASN19       0.1785
     23  C         22.6820    1.2740   17.1330 C.2    19  ASN19       0.2598
     24  O         22.4860    2.3220   16.4920 O.2    19  ASN19      -0.2718
     25  CB        23.8330    2.6280   18.8650 C.3    19  ASN19       0.1169
     26  CG        24.1020    2.8000   20.3300 C.2    19  ASN19       0.2627
     27  OD1       23.2580    2.4730   21.1640 O.2    19  ASN19      -0.2716
     28  ND2       25.2840    3.3010   20.6620 N.am   19  ASN19      -0.0877
     29  N         22.5250    0.0680   16.6000 N.am   20  SER20      -0.1938
     30  CA        21.9580   -0.1050   15.2610 C.3    20  SER20       0.2055
     31  C         21.1390   -1.3920   15.2310 C.2    20  SER20       0.2642
     32  O         21.0440   -2.0830   16.2740 O.2    20  SER20      -0.2714
     33  CB        23.0770   -0.1710   14.2110 C.3    20  SER20       0.2130
     34  OG        22.5850    0.1440   12.9030 O.3    20  SER20      -0.2179
     35  N         20.5740   -1.6990   14.0680 N.am   21  LEU21      -0.1977
     36  CA        19.9320   -2.9860   13.7850 C.3    21  LEU21       0.1596
     37  C         21.0020   -3.9920   13.3840 C.2    21  LEU21       0.2287
     38  O         21.8290   -3.6950   12.5060 O.2    21  LEU21      -0.2864
     39  CB        18.9020   -2.8540   12.6370 C.3    21  LEU21       0.0297
     40  CG        17.5440   -2.1410   12.7670 C.3    21  LEU21       0.0022
     41  CD1       17.1820   -1.6430   14.1640 C.3    21  LEU21       0.0001
     42  CD2       17.2870   -1.1190   11.6820 C.3    21  LEU21       0.0001
     43  N         12.4040   -5.3810    4.7520 N.3    28  GLU28      -0.1231
     44  CA        11.8510   -5.0370    6.0620 C.3    28  GLU28       0.1699
     45  C         11.8320   -3.5040    6.2660 C.2    28  GLU28       0.2592
     46  O         10.8390   -2.9360    6.7310 O.2    28  GLU28      -0.2718
     47  CB        12.6850   -5.7280    7.1360 C.3    28  GLU28       0.0402
     48  CG        11.8980   -6.0410    8.4370 C.3    28  GLU28       0.1161
     49  CD        11.4330   -4.7940    9.2010 C.2    28  GLU28       0.3649
     50  OE1       12.2410   -3.8660    9.4170 O.co2  28  GLU28      -0.2457
     51  OE2       10.2440   -4.7630    9.6400 O.co2  28  GLU28      -0.2457
     52  N         12.9300   -2.8320    5.9180 N.am   29  ILE29      -0.1980
     53  CA        12.9250   -1.3310    5.9350 C.3    29  ILE29       0.1595
     54  C         11.7530   -0.7270    5.1420 C.2    29  ILE29       0.2287
     55  O         11.1220    0.2190    5.6200 O.2    29  ILE29      -0.2864
     56  CB        14.2680   -0.7030    5.4960 C.3    29  ILE29       0.0276
     57  CG1       15.3570   -0.9960    6.5610 C.3    29  ILE29       0.0022
     58  CG2       14.0900    0.8070    5.3210 C.3    29  ILE29       0.0022
     59  CD1       15.3140   -0.0900    7.7710 C.3    29  ILE29       0.0001
     60  N          8.8330   -2.1020    4.4660 N.3    31  TYR31      -0.1227
     61  CA         7.5570   -2.3350    5.1760 C.3    31  TYR31       0.1736
     62  C          7.3780   -1.2910    6.2860 C.2    31  TYR31       0.2595
     63  O          6.3180   -0.6450    6.4240 O.2    31  TYR31      -0.2718
     64  CB         7.5770   -3.7280    5.7940 C.3    31  TYR31       0.0548
     65  CG         6.3710   -4.0900    6.6320 C.ar   31  TYR31      -0.0200
     66  CD1        5.1880   -4.4840    6.0180 C.ar   31  TYR31      -0.0009
     67  CD2        6.4160   -4.0760    8.0360 C.ar   31  TYR31      -0.0009
     68  CE1        4.0920   -4.8870    6.7500 C.ar   31  TYR31       0.0417
     69  CE2        5.2950   -4.4650    8.7980 C.ar   31  TYR31       0.0417
     70  CZ         4.1440   -4.8740    8.1450 C.ar   31  TYR31       0.1957
     71  OH         2.9950   -5.2670    8.8420 O.3    31  TYR31      -0.2866
     72  N          8.4400   -1.0870    7.0130 N.am   32  PHE32      -0.1962
     73  CA         8.4290   -0.0960    8.0640 C.3    32  PHE32       0.1771
     74  C          8.0640    1.2720    7.4580 C.2    32  PHE32       0.2619
     75  O          7.1990    1.9260    7.9650 O.2    32  PHE32      -0.2715
     76  CB         9.7570    0.0020    8.6890 C.3    32  PHE32       0.0574
     77  CG         9.8790    1.1930    9.5940 C.ar   32  PHE32      -0.0200
     78  CD1        9.3660    1.1520   10.9100 C.ar   32  PHE32      -0.0042
     79  CD2       10.4200    2.3740    9.1220 C.ar   32  PHE32      -0.0042
     80  CE1        9.4700    2.2750   11.7490 C.ar   32  PHE32      -0.0003
     81  CE2       10.5060    3.5100    9.9340 C.ar   32  PHE32      -0.0003
     82  CZ        10.0330    3.4580   11.2530 C.ar   32  PHE32      -0.0000
     83  N          8.7330    1.6860    6.3630 N.am   33  LYS33      -0.1977
     84  CA         8.4890    3.0090    5.7560 C.3    33  LYS33       0.1596
     85  C          7.0580    3.0680    5.3360 C.2    33  LYS33       0.2287
     86  O          6.3610    4.0240    5.6320 O.2    33  LYS33      -0.2864
     87  CB         9.4250    3.2180    4.5310 C.3    33  LYS33       0.0298
     88  CG         9.2550    4.5260    3.7710 C.3    33  LYS33       0.0038
     89  CD        10.4110    4.6550    2.7660 C.3    33  LYS33       0.0206
     90  CE        10.5190    6.0550    2.1490 C.3    33  LYS33       0.1093
     91  NZ         9.2000    6.5390    1.6260 N.3    33  LYS33      -0.1314
     92  N         17.3400    5.9830   19.5680 N.3    57  THR57      -0.1218
     93  CA        16.8620    5.6340   18.2360 C.3    57  THR57       0.1862
     94  C         17.0210    6.8210   17.2580 C.2    57  THR57       0.2287
     95  O         17.4730    6.6440   16.1230 O.2    57  THR57      -0.2866
     96  CB        15.3930    5.1620   18.3450 C.3    57  THR57       0.1770
     97  OG1       15.3990    3.9230   19.0900 O.3    57  THR57      -0.2211
     98  CG2       14.7220    5.0570   16.9810 C.3    57  THR57       0.0375
     99  N         20.5720    6.9780   16.2200 N.3    60  SER60      -0.1202
    100  CA        20.9180    5.7590   15.4370 C.3    60  SER60       0.2020
    101  C         20.5310    5.8110   13.9650 C.2    60  SER60       0.2619
    102  O         21.1320    5.1360   13.1440 O.2    60  SER60      -0.2717
    103  CB        20.2510    4.5310   16.0380 C.3    60  SER60       0.2103
    104  OG        20.7680    4.2400   17.3100 O.3    60  SER60      -0.2182
    105  N         19.5260    6.6020   13.6240 N.am   61  ILE61      -0.1966
    106  CA        19.0720    6.6370   12.2450 C.3    61  ILE61       0.1712
    107  C         20.1490    7.3500   11.4000 C.2    61  ILE61       0.2458
    108  O         20.5800    8.4520   11.7970 O.2    61  ILE61      -0.2730
    109  CB        17.6830    7.3100   12.1280 C.3    61  ILE61       0.0289
    110  CG1       16.6240    6.4700   12.9170 C.3    61  ILE61       0.0022
    111  CG2       17.3030    7.4580   10.6770 C.3    61  ILE61       0.0023
    112  CD1       15.2050    7.0140   12.9260 C.3    61  ILE61       0.0001
    113  N         20.6110    6.7120   10.2770 N.am   62  PRO62      -0.2727
    114  CA        21.5940    7.4090    9.4200 C.3    62  PRO62       0.1402
    115  C         21.0570    8.7860    9.0650 C.2    62  PRO62       0.2269
    116  O         19.8460    8.9930    8.8750 O.2    62  PRO62      -0.2865
    117  CB        21.6930    6.5220    8.1880 C.3    62  PRO62       0.0296
    118  CG        21.3640    5.1580    8.6940 C.3    62  PRO62       0.0237
    119  CD        20.2490    5.4090    9.6980 C.3    62  PRO62       0.0939
    120  N         18.4600    9.7880    6.4840 N.3    65  PHE65      -0.1241
    121  CA        17.0540    9.4480    6.7240 C.3    65  PHE65       0.1605
    122  C         16.3020   10.2880    7.7880 C.2    65  PHE65       0.2264
    123  O         15.0880   10.1650    7.9090 O.2    65  PHE65      -0.2867
    124  CB        16.9220    7.9590    7.0190 C.3    65  PHE65       0.0534
    125  CG        17.5260    7.0810    5.9570 C.ar   65  PHE65      -0.0203
    126  CD1       16.9560    7.0140    4.6840 C.ar   65  PHE65      -0.0042
    127  CD2       18.6790    6.3410    6.2240 C.ar   65  PHE65      -0.0042
    128  CE1       17.5100    6.2120    3.6960 C.ar   65  PHE65      -0.0003
    129  CE2       19.2370    5.5380    5.2380 C.ar   65  PHE65      -0.0003
    130  CZ        18.6480    5.4730    3.9710 C.ar   65  PHE65      -0.0000
    131  N         12.4110   11.2970    9.5660 N.3    68  LEU68      -0.1231
    132  CA        11.7660   10.3450    8.7090 C.3    68  LEU68       0.1693
    133  C         10.7270   11.0790    7.8840 C.2    68  LEU68       0.2591
    134  O          9.7680   11.6490    8.4310 O.2    68  LEU68      -0.2718
    135  CB        11.0910    9.2110    9.5310 C.3    68  LEU68       0.0284
    136  CG        12.0170    8.2120   10.2400 C.3    68  LEU68       0.0019
    137  CD1       11.1800    7.1750   10.9960 C.3    68  LEU68       0.0001
    138  CD2       12.9910    7.5190    9.2570 C.3    68  LEU68       0.0001
    139  N         10.9220   11.0580    6.5600 N.am   69  LYS69      -0.1980
    140  CA        10.1210   11.8750    5.6210 C.3    69  LYS69       0.1596
    141  C          8.6790   11.5280    5.6010 C.2    69  LYS69       0.2287
    142  O          8.3070   10.3450    5.6420 O.2    69  LYS69      -0.2864
    143  CB        10.6580   11.7700    4.1800 C.3    69  LYS69       0.0298
    144  CG        11.8350   12.6740    3.9130 C.3    69  LYS69       0.0038
    145  CD        12.3880   12.4740    2.5140 C.3    69  LYS69       0.0206
    146  CE        13.4040   13.5700    2.2170 C.3    69  LYS69       0.1093
    147  NZ        14.6200   13.0540    1.5290 N.3    69  LYS69      -0.1314
    148  N          6.3940   12.0910    7.7580 N.3    71  ARG71      -0.1245
    149  CA         5.7260   11.7120    8.9790 C.3    71  ARG71       0.1563
    150  C          6.0790   12.7910    9.9660 C.2    71  ARG71       0.2260
    151  O          7.1900   13.3560    9.9100 O.2    71  ARG71      -0.2867
    152  CB         6.2340   10.3510    9.4530 C.3    71  ARG71       0.0307
    153  CG         5.7010    9.1390    8.6940 C.3    71  ARG71       0.0489
    154  CD         6.8050    8.0450    8.6110 C.3    71  ARG71       0.2205
    155  NE         7.8740    8.4240    7.6630 N.pl3  71  ARG71      -0.0865
    156  CZ         8.8560    7.6200    7.2860 C.cat  71  ARG71       0.5346
    157  NH1        8.9360    6.3950    7.8240 N.pl3  71  ARG71       0.1354
    158  NH2        9.7710    8.0120    6.3970 N.pl3  71  ARG71       0.1354
    159  N          8.2010    3.9030   17.5460 N.3   111  ILE111     -0.1245
    160  CA         9.0910    3.1600   16.6040 C.3   111  ILE111      0.1561
    161  C         10.3700    2.7450   17.2760 C.2   111  ILE111      0.2260
    162  O         11.2470    2.2310   16.6110 O.2   111  ILE111     -0.2867
    163  CB         9.4070    4.0050   15.3480 C.3   111  ILE111      0.0252
    164  CG1       10.2210    5.2940   15.7230 C.3   111  ILE111      0.0019
    165  CG2        8.0940    4.2940   14.6180 C.3   111  ILE111      0.0019
    166  CD1       10.9720    5.9050   14.5100 C.3   111  ILE111      0.0001
    167  N          9.6140    1.6610   23.9890 N.3   117  TYR117     -0.1241
    168  CA         8.7830    0.5280   23.8710 C.3   117  TYR117      0.1605
    169  C          8.1650    0.1570   25.2300 C.2   117  TYR117      0.2264
    170  O          6.9530   -0.1360   25.3270 O.2   117  TYR117     -0.2867
    171  CB         9.5270   -0.7200   23.3280 C.3   117  TYR117      0.0534
    172  CG         9.7670   -0.6830   21.8210 C.ar  117  TYR117     -0.0201
    173  CD1        8.8430   -0.1110   20.9500 C.ar  117  TYR117     -0.0009
    174  CD2       10.9160   -1.2150   21.2800 C.ar  117  TYR117     -0.0009
    175  CE1        9.0180   -0.0970   19.5590 C.ar  117  TYR117      0.0417
    176  CE2       11.1120   -1.1760   19.9270 C.ar  117  TYR117      0.0417
    177  CZ        10.2020   -0.5910   19.0650 C.ar  117  TYR117      0.1957
    178  OH        10.5130   -0.6280   17.7100 O.3   117  TYR117     -0.2866
    179  N          7.7830   -7.4700   13.2620 N.3   132  THR132     -0.1218
    180  CA         8.4650   -8.2880   12.2720 C.3   132  THR132      0.1862
    181  C          9.3170   -9.3460   12.9820 C.2   132  THR132      0.2287
    182  O         10.2190   -9.0100   13.7020 O.2   132  THR132     -0.2866
    183  CB         9.3090   -7.4130   11.2980 C.3   132  THR132      0.1770
    184  OG1        8.4530   -6.4660   10.6160 O.3   132  THR132     -0.2211
    185  CG2        9.9250   -8.3550   10.2730 C.3   132  THR132      0.0375
@<TRIPOS>BOND
     1   147   146    1
     2    91    90    1
     3    90    89    1
     4   146   145    1
     5   145   144    1
     6    89    88    1
     7   128   130   ar
     8   128   126   ar
     9    88    87    1
    10   144   143    1
    11   130   129   ar
    12   143   140    1
    13    60    61    1
    14    87    84    1
    15   126   125   ar
    16    43    44    1
    17    54    55    2
    18    54    53    1
    19    61    64    1
    20    61    62    1
    21   129   127   ar
    22    58    56    1
    23    85    86    2
    24    85    84    1
    25    56    53    1
    26    56    57    1
    27   141   140    1
    28   141   142    2
    29   140   139    1
    30    84    83    1
    31    64    65    1
    32    52    53    1
    33    52    45   am
    34   125   127   ar
    35   125   124    1
    36    66    65   ar
    37    66    68   ar
    38    44    45    1
    39    44    47    1
    40    45    46    2
    41    62    63    2
    42    62    72   am
    43    83    74   am
    44   158   156    1
    45   120   121    1
    46   139   133   am
    47    57    59    1
    48    65    67   ar
    49   121   124    1
    50   121   122    1
    51    68    70   ar
    52    72    73    1
    53    47    48    1
    54   156   155    2
    55   156   157    1
    56    74    75    2
    57    74    73    1
    58   155   154    1
    59   148   149    1
    60   122   123    2
    61   133   134    2
    62   133   132    1
    63    67    69   ar
    64    73    76    1
    65    70    69   ar
    66    70    71    1
    67   117   118    1
    68   117   114    1
    69    48    49    1
    70   154   153    1
    71    76    77    1
    72   153   152    1
    73   118   119    1
    74   132   135    1
    75   132   131    1
    76   116   115    2
    77   149   152    1
    78   149   150    1
    79   115   114    1
    80    79    77   ar
    81    79    81   ar
    82    49    50   ar
    83    49    51   ar
    84   138   136    1
    85   114   113    1
    86   135   136    1
    87    77    78   ar
    88   119   113    1
    89   151   150    2
    90    81    82   ar
    91   136   137    1
    92   185   183    1
    93   113   107   am
    94   184   183    1
    95   111   109    1
    96    78    80   ar
    97    82    80   ar
    98   183   180    1
    99     8     6    1
   100   107   108    2
   101   107   106    1
   102    42    40    1
   103   109   106    1
   104   109   110    1
   105   106   105    1
   106   180   181    1
   107   180   179    1
   108    38    37    2
   109    39    40    1
   110    39    36    1
   111     6     5    1
   112    40    41    1
   113    20    17    1
   114    34    33    1
   115   110   112    1
   116   181   182    2
   117   102   101    2
   118    37    36    1
   119   105   101   am
   120    36    35    1
   121     5     7    1
   122     5     2    1
   123   101   100    1
   124    35    31   am
   125    17    16    1
   126    17    18    1
   127    33    30    1
   128    12    11    2
   129   166   164    1
   130   165   163    1
   131    16    11   am
   132    11    10    1
   133    31    30    1
   134    31    32    2
   135    18    19    2
   136    30    29    1
   137     2     3    1
   138     2     1    1
   139   163   164    1
   140   163   160    1
   141     9     3   am
   142     9    10    1
   143   100   103    1
   144   100    99    1
   145     3     4    2
   146    10    13    1
   147   103   104    1
   148    95    94    2
   149    24    23    2
   150    29    23   am
   151   160   161    1
   152   160   159    1
   153   162   161    2
   154    98    96    1
   155    23    22    1
   156    94    93    1
   157    13    14    1
   158    13    15    1
   159   178   177    1
   160    93    96    1
   161    93    92    1
   162    96    97    1
   163    22    25    1
   164    22    21    1
   165    25    26    1
   166   177   175   ar
   167   177   176   ar
   168   175   173   ar
   169   176   174   ar
   170    26    28   am
   171    26    27    2
   172   173   172   ar
   173   174   172   ar
   174   172   171    1
   175   171   168    1
   176   168   167    1
   177   168   169    1
   178   169   170    2
