@<TRIPOS>MOLECULE
tmp/3td9A00.pdb
 129 123 0 0 0
SMALL
GASTEIGER

@<TRIPOS>ATOM
      1  N          2.8320   31.0700   12.4690 N.3    16  PHE16      -0.1241
      2  CA         4.2280   31.4130   12.7150 C.3    16  PHE16       0.1605
      3  C          4.4560   31.9970   14.0980 C.2    16  PHE16       0.2264
      4  O          5.4030   31.6200   14.7610 O.2    16  PHE16      -0.2867
      5  CB         4.8060   32.3680   11.6320 C.3    16  PHE16       0.0534
      6  CG         4.8790   31.7840   10.2240 C.ar   16  PHE16      -0.0203
      7  CD1        4.9010   30.4100    9.9800 C.ar   16  PHE16      -0.0042
      8  CD2        4.9100   32.6190    9.1400 C.ar   16  PHE16      -0.0042
      9  CE1        4.9700   29.9280    8.6700 C.ar   16  PHE16      -0.0003
     10  CE2        4.9510   32.1400    7.8380 C.ar   16  PHE16      -0.0003
     11  CZ         4.9910   30.8100    7.5990 C.ar   16  PHE16      -0.0000
     12  N          9.0080   37.3250   12.1850 N.3    72  VAL72      -0.1231
     13  CA         9.1800   36.0880   11.4100 C.3    72  VAL72       0.1692
     14  C          9.1990   36.4000    9.9290 C.2    72  VAL72       0.2592
     15  O         10.1660   36.0450    9.2490 O.2    72  VAL72      -0.2718
     16  CB         8.0940   35.0290   11.7270 C.3    72  VAL72       0.0266
     17  CG1        8.2880   33.7830   10.8610 C.3    72  VAL72       0.0020
     18  CG2        8.1750   34.6650   13.2250 C.3    72  VAL72       0.0020
     19  N          8.1410   37.0460    9.4190 N.am   73  ALA73      -0.1966
     20  CA         8.1240   37.4660    8.0250 C.3    73  ALA73       0.1728
     21  C          9.1730   38.5480    7.7810 C.2    73  ALA73       0.2616
     22  O          9.2350   39.5490    8.5010 O.2    73  ALA73      -0.2715
     23  CB         6.7330   37.9690    7.6120 C.3    73  ALA73       0.0334
     24  N          9.9920   38.3540    6.7470 N.am   74  SER74      -0.1950
     25  CA        11.0110   39.3250    6.3990 C.3    74  SER74       0.1924
     26  C         10.4480   40.7270    6.1900 C.2    74  SER74       0.2314
     27  O         11.0480   41.7150    6.6490 O.2    74  SER74      -0.2863
     28  CB        11.8420   38.8650    5.1880 C.3    74  SER74       0.2116
     29  OG        12.7720   37.8300    5.5280 O.3    74  SER74      -0.2180
     30  N         13.8970   33.9030   12.5250 N.3    94  ALA94      -0.1231
     31  CA        13.4740   33.1900   11.3070 C.3    94  ALA94       0.1694
     32  C         13.4100   33.9960    9.9970 C.2    94  ALA94       0.2593
     33  O         13.1610   33.4050    8.9330 O.2    94  ALA94      -0.2718
     34  CB        12.0680   32.5040   11.5850 C.3    94  ALA94       0.0304
     35  N         13.5840   35.3160   10.0520 N.am   95  SER95      -0.1938
     36  CA        13.6560   36.1080    8.8070 C.3    95  SER95       0.2055
     37  C         14.9490   35.7970    8.0770 C.2    95  SER95       0.2643
     38  O         16.0450   35.8270    8.6600 O.2    95  SER95      -0.2714
     39  CB        13.4780   37.6010    9.0750 C.3    95  SER95       0.2130
     40  OG        12.1960   37.8390    9.6300 O.3    95  SER95      -0.2179
     41  N         14.8120   35.4530    6.7930 N.am   96  THR96      -0.1950
     42  CA        15.9030   34.9800    5.9680 C.3    96  THR96       0.1897
     43  C         16.3750   35.9940    4.9200 C.2    96  THR96       0.2313
     44  O         17.3890   35.7730    4.2810 O.2    96  THR96      -0.2863
     45  CB        15.5240   33.6380    5.3130 C.3    96  THR96       0.1794
     46  OG1       14.2240   33.7640    4.6880 O.3    96  THR96      -0.2208
     47  CG2       15.5040   32.5620    6.3790 C.3    96  THR96       0.0378
     48  N         10.2150   38.7400    1.4860 N.3   143  TYR143     -0.1241
     49  CA        10.7870   37.4070    1.5500 C.3   143  TYR143      0.1605
     50  C         10.6540   36.6590    0.2280 C.2   143  TYR143      0.2264
     51  O         11.6140   36.0190   -0.2390 O.2   143  TYR143     -0.2867
     52  CB        10.0940   36.6200    2.6390 C.3   143  TYR143      0.0534
     53  CG        10.1650   35.1470    2.5120 C.ar  143  TYR143     -0.0201
     54  CD1       11.3540   34.4710    2.7490 C.ar  143  TYR143     -0.0009
     55  CD2        9.0340   34.4040    2.2220 C.ar  143  TYR143     -0.0009
     56  CE1       11.4130   33.1030    2.6560 C.ar  143  TYR143      0.0417
     57  CE2        9.0860   33.0240    2.1100 C.ar  143  TYR143      0.0417
     58  CZ        10.2910   32.3850    2.3360 C.ar  143  TYR143      0.1957
     59  OH        10.3870   31.0190    2.2830 O.3   143  TYR143     -0.2866
     60  N          3.8850   32.1350    1.5380 N.3   193  TYR193     -0.1241
     61  CA         3.5990   31.5120    2.8620 C.3   193  TYR193      0.1605
     62  C          2.4990   30.4600    2.7340 C.2   193  TYR193      0.2264
     63  O          1.8330   30.3890    1.7120 O.2   193  TYR193     -0.2867
     64  CB         3.2480   32.5480    3.9240 C.3   193  TYR193      0.0534
     65  CG         4.3410   33.5600    4.1690 C.ar  193  TYR193     -0.0201
     66  CD1        5.5940   33.1600    4.5100 C.ar  193  TYR193     -0.0009
     67  CD2        4.1010   34.9210    4.0450 C.ar  193  TYR193     -0.0009
     68  CE1        6.6070   34.0450    4.7130 C.ar  193  TYR193      0.0417
     69  CE2        5.1360   35.8510    4.2660 C.ar  193  TYR193      0.0417
     70  CZ         6.3920   35.3950    4.5740 C.ar  193  TYR193      0.1957
     71  OH         7.4450   36.2480    4.8110 O.3   193  TYR193     -0.2866
     72  N         10.7410   27.8940    3.1130 N.3   217  ASP217     -0.1225
     73  CA        10.4230   27.7360    4.5300 C.3   217  ASP217      0.1805
     74  C          9.0520   28.3050    4.8900 C.2   217  ASP217      0.2598
     75  O          8.4580   27.9140    5.8720 O.2   217  ASP217     -0.2718
     76  CB        11.5880   28.2250    5.4520 C.3   217  ASP217      0.1424
     77  CG        11.9350   29.7160    5.3250 C.2   217  ASP217      0.3668
     78  OD1       11.5960   30.3690    4.3260 O.co2 217  ASP217     -0.2456
     79  OD2       12.6410   30.2200    6.2400 O.co2 217  ASP217     -0.2456
     80  N          8.5080   29.1460    4.0140 N.am  218  GLY218     -0.1957
     81  CA         7.1520   29.6340    4.1620 C.3   218  GLY218      0.1869
     82  C          6.1060   28.5580    4.2060 C.2   218  GLY218      0.2309
     83  O          5.0280   28.7870    4.7220 O.2   218  GLY218     -0.2863
     84  N          6.4060   25.9060    6.0280 N.3   220  ASP220     -0.1239
     85  CA         6.6780   25.0450    7.1980 C.3   220  ASP220      0.1674
     86  C          5.7860   25.3640    8.3950 C.2   220  ASP220      0.2266
     87  O          6.2390   25.8910    9.3930 O.2   220  ASP220     -0.2867
     88  CB         8.1680   25.1140    7.5880 C.3   220  ASP220      0.1410
     89  CG         8.6050   23.9480    8.4650 C.2   220  ASP220      0.3668
     90  OD1        7.7970   23.0110    8.6430 O.co2 220  ASP220     -0.2456
     91  OD2        9.7580   23.9620    8.9580 O.co2 220  ASP220     -0.2456
     92  N         13.7310   24.1140    4.6480 N.3   239  THR239     -0.1203
     93  CA        13.5260   24.7120    5.9640 C.3   239  THR239      0.1994
     94  C         14.8290   24.5920    6.7540 C.2   239  THR239      0.2617
     95  O         15.9050   24.3630    6.1550 O.2   239  THR239     -0.2717
     96  CB        12.2740   24.1020    6.6790 C.3   239  THR239      0.1784
     97  OG1       12.0200   24.8000    7.8980 O.3   239  THR239     -0.2211
     98  CG2       12.4390   22.5380    6.9250 C.3   239  THR239      0.0376
     99  N         14.7230   24.7380    8.0760 N.am  240  HIS240     -0.1975
    100  CA        15.8510   24.9740    8.9500 C.3   240  HIS240      0.1656
    101  C         16.1790   23.7570    9.7910 C.2   240  HIS240      0.2291
    102  O         17.1790   23.7770   10.4610 O.2   240  HIS240     -0.2864
    103  CB        15.5300   26.1210    9.9230 C.3   240  HIS240      0.0771
    104  CG        15.1360   27.3940    9.2400 C.ar  240  HIS240      0.0820
    105  ND1       15.9800   28.4850    9.1450 N.ar  240  HIS240     -0.2267
    106  CD2       13.9950   27.7460    8.6070 C.ar  240  HIS240      0.1154
    107  CE1       15.3600   29.4590    8.5010 C.ar  240  HIS240      0.1986
    108  NE2       14.1570   29.0390    8.1630 N.ar  240  HIS240     -0.2212
    109  N         10.6470   23.7200   12.9750 N.3   268  ALA268     -0.1231
    110  CA        11.7620   24.6510   12.8490 C.3   268  ALA268      0.1694
    111  C         11.5070   25.9080   13.6680 C.2   268  ALA268      0.2591
    112  O         12.3560   26.3640   14.4260 O.2   268  ALA268     -0.2718
    113  CB        11.9640   25.0300   11.3630 C.3   268  ALA268      0.0304
    114  N         10.3340   26.4810   13.5170 N.am  269  LEU269     -0.1980
    115  CA        10.0600   27.7400   14.1890 C.3   269  LEU269      0.1596
    116  C          9.9900   27.5810   15.7180 C.2   269  LEU269      0.2287
    117  O         10.3420   28.5030   16.4300 O.2   269  LEU269     -0.2864
    118  CB         8.7720   28.3840   13.6460 C.3   269  LEU269      0.0297
    119  CG         8.8010   29.0250   12.2710 C.3   269  LEU269      0.0022
    120  CD1        7.4030   29.5530   11.9080 C.3   269  LEU269      0.0001
    121  CD2        9.7480   30.1900   12.2710 C.3   269  LEU269      0.0001
    122  N         13.7410   27.5250   16.5450 N.3   272  LEU272     -0.1245
    123  CA        14.3060   28.8300   16.2320 C.3   272  LEU272      0.1561
    124  C         13.9060   29.8990   17.2820 C.2   272  LEU272      0.2260
    125  O         14.7290   30.7090   17.6470 O.2   272  LEU272     -0.2867
    126  CB        13.9020   29.2440   14.8130 C.3   272  LEU272      0.0270
    127  CG        14.5650   28.5060   13.6500 C.3   272  LEU272      0.0019
    128  CD1       13.8610   28.9150   12.3410 C.3   272  LEU272      0.0001
    129  CD2       16.0290   28.7840   13.5240 C.3   272  LEU272      0.0001
@<TRIPOS>BOND
     1    51    50    2
     2    50    49    1
     3    48    49    1
     4    60    61    1
     5    49    52    1
     6    63    62    2
     7    57    55   ar
     8    57    58   ar
     9    55    53   ar
    10    59    58    1
    11    58    56   ar
    12    53    52    1
    13    53    54   ar
    14    56    54   ar
    15    62    61    1
    16    61    64    1
    17    72    73    1
    18    64    65    1
    19    80    81    1
    20    80    74   am
    21    67    65   ar
    22    67    69   ar
    23    81    82    1
    24    65    66   ar
    25    82    83    2
    26    69    70   ar
    27    44    43    2
    28    78    77   ar
    29    66    68   ar
    30    73    74    1
    31    73    76    1
    32    70    68   ar
    33    70    71    1
    34    92    93    1
    35    46    45    1
    36    74    75    2
    37    43    42    1
    38    28    29    1
    39    28    25    1
    40    45    42    1
    41    45    47    1
    42    77    76    1
    43    77    79   ar
    44    93    96    1
    45    93    94    1
    46    42    41    1
    47    84    85    1
    48    95    94    2
    49    26    25    1
    50    26    27    2
    51    25    24    1
    52    96    98    1
    53    96    97    1
    54    24    21   am
    55    94    99   am
    56    41    37   am
    57    85    88    1
    58    85    86    1
    59    88    89    1
    60    11    10   ar
    61    11     9   ar
    62    23    20    1
    63    21    20    1
    64    21    22    2
    65    10     8   ar
    66    20    19    1
    67    99   100    1
    68    37    38    2
    69    37    36    1
    70   108   107   ar
    71   108   106   ar
    72    86    87    2
    73    89    90   ar
    74    89    91   ar
    75   107   105   ar
    76   106   104   ar
    77     9     7   ar
    78    36    39    1
    79    36    35    1
    80    33    32    2
    81   100   101    1
    82   100   103    1
    83    39    40    1
    84     8     6   ar
    85   105   104   ar
    86   104   103    1
    87    15    14    2
    88    19    14   am
    89   101   102    2
    90    14    13    1
    91     7     6   ar
    92    32    35   am
    93    32    31    1
    94     6     5    1
    95    17    16    1
    96    31    34    1
    97    31    30    1
    98   113   110    1
    99    13    16    1
   100    13    12    1
   101     5     2    1
   102    16    18    1
   103   120   119    1
   104   121   119    1
   105   119   118    1
   106   128   127    1
   107     1     2    1
   108     2     3    1
   109   110   109    1
   110   110   111    1
   111   114   111   am
   112   114   115    1
   113   129   127    1
   114   118   115    1
   115   127   126    1
   116   111   112    2
   117     3     4    2
   118   115   116    1
   119   126   123    1
   120   116   117    2
   121   123   122    1
   122   123   124    1
   123   124   125    2
