@<TRIPOS>MOLECULE
tmp/3tdaC01.pdb
 184 171 0 0 0
SMALL
GASTEIGER

@<TRIPOS>ATOM
      1  N         15.2770   32.6720   76.1640 N.3    77  THR77      -0.1218
      2  CA        15.8280   33.5930   75.1770 C.3    77  THR77       0.1862
      3  C         15.8490   35.0500   75.6370 C.2    77  THR77       0.2287
      4  O         16.4630   35.9060   74.9900 O.2    77  THR77      -0.2866
      5  CB        15.0570   33.5070   73.8550 C.3    77  THR77       0.1770
      6  OG1       13.6570   33.6270   74.1150 O.3    77  THR77      -0.2211
      7  CG2       15.3380   32.1830   73.1570 C.3    77  THR77       0.0375
      8  N         19.1280   36.7040   75.7800 N.3    80  LEU80      -0.1245
      9  CA        19.7720   37.1700   74.5580 C.3    80  LEU80       0.1561
     10  C         19.1890   38.4970   74.1210 C.2    80  LEU80       0.2260
     11  O         19.5380   39.0290   73.0700 O.2    80  LEU80      -0.2867
     12  CB        19.6050   36.1160   73.4690 C.3    80  LEU80       0.0270
     13  CG        20.0930   34.7230   73.8830 C.3    80  LEU80       0.0019
     14  CD1       19.7240   33.6860   72.8390 C.3    80  LEU80       0.0001
     15  CD2       21.5900   34.7670   74.0740 C.3    80  LEU80       0.0001
     16  N         15.8600   38.9940   73.8150 N.3    82  PHE82      -0.1241
     17  CA        14.6130   38.7910   73.1040 C.3    82  PHE82       0.1605
     18  C         13.5280   39.5910   73.8180 C.2    82  PHE82       0.2264
     19  O         13.5940   39.8180   75.0210 O.2    82  PHE82      -0.2867
     20  CB        14.2430   37.3090   73.0700 C.3    82  PHE82       0.0534
     21  CG        14.8480   36.5490   71.9110 C.ar   82  PHE82      -0.0203
     22  CD1       14.0580   36.1560   70.8340 C.ar   82  PHE82      -0.0042
     23  CD2       16.2030   36.1930   71.9130 C.ar   82  PHE82      -0.0042
     24  CE1       14.6020   35.4160   69.7770 C.ar   82  PHE82      -0.0003
     25  CE2       16.7640   35.4490   70.8530 C.ar   82  PHE82      -0.0003
     26  CZ        15.9610   35.0610   69.7890 C.ar   82  PHE82      -0.0000
     27  N         14.1470   32.8970   63.2360 N.3    90  PHE90      -0.1227
     28  CA        14.1270   31.4860   63.5870 C.3    90  PHE90       0.1736
     29  C         13.2930   31.1330   64.8490 C.2    90  PHE90       0.2595
     30  O         12.4080   30.2770   64.7820 O.2    90  PHE90      -0.2718
     31  CB        15.5720   30.9890   63.7280 C.3    90  PHE90       0.0547
     32  CG        15.7040   29.4900   63.7700 C.ar   90  PHE90      -0.0202
     33  CD1       15.6170   28.7330   62.6100 C.ar   90  PHE90      -0.0042
     34  CD2       15.9290   28.8380   64.9730 C.ar   90  PHE90      -0.0042
     35  CE1       15.7590   27.3460   62.6500 C.ar   90  PHE90      -0.0003
     36  CE2       16.0670   27.4510   65.0230 C.ar   90  PHE90      -0.0003
     37  CZ        15.9850   26.7040   63.8600 C.ar   90  PHE90      -0.0000
     38  N         13.5470   31.7740   65.9900 N.am   91  LEU91      -0.1980
     39  CA        12.7780   31.4430   67.2030 C.3    91  LEU91       0.1596
     40  C         11.5580   32.3290   67.4260 C.2    91  LEU91       0.2287
     41  O         10.8220   32.1240   68.3650 O.2    91  LEU91      -0.2864
     42  CB        13.6660   31.5340   68.4550 C.3    91  LEU91       0.0297
     43  CG        14.8690   30.6010   68.5640 C.3    91  LEU91       0.0022
     44  CD1       15.6660   30.9640   69.7840 C.3    91  LEU91       0.0001
     45  CD2       14.4110   29.1720   68.6510 C.3    91  LEU91       0.0001
     46  N         29.6820   29.8270   67.5900 N.3   179  ALA179     -0.1245
     47  CA        28.4570   29.4110   66.9160 C.3   179  ALA179      0.1562
     48  C         28.2680   27.9030   67.0080 C.2   179  ALA179      0.2260
     49  O         27.1910   27.4360   67.3520 O.2   179  ALA179     -0.2867
     50  CB        28.4750   29.8470   65.4510 C.3   179  ALA179      0.0290
     51  N         27.4180   27.1500   70.7620 N.3   182  GLY182     -0.1210
     52  CA        26.0730   27.5620   71.1190 C.3   182  GLY182      0.1956
     53  C         24.9830   26.6950   70.5020 C.2   182  GLY182      0.2611
     54  O         23.8870   26.5790   71.0510 O.2   182  GLY182     -0.2717
     55  N         25.2720   26.0960   69.3500 N.am  183  LEU183     -0.1979
     56  CA        24.3050   25.2330   68.6780 C.3   183  LEU183      0.1596
     57  C         23.9810   24.0870   69.6110 C.2   183  LEU183      0.2287
     58  O         22.8430   23.6360   69.6830 O.2   183  LEU183     -0.2864
     59  CB        24.8850   24.6710   67.3770 C.3   183  LEU183      0.0297
     60  CG        23.9660   23.7130   66.6210 C.3   183  LEU183      0.0022
     61  CD1       22.7260   24.4530   66.1450 C.3   183  LEU183      0.0001
     62  CD2       24.7250   23.1100   65.4470 C.3   183  LEU183      0.0001
     63  N         21.4030   24.7970   72.3480 N.3   186  GLU186     -0.1245
     64  CA        19.9800   24.7540   71.9800 C.3   186  GLU186      0.1567
     65  C         19.4090   23.4110   72.4360 C.2   186  GLU186      0.2260
     66  O         18.2290   23.2940   72.8000 O.2   186  GLU186     -0.2867
     67  CB        19.8030   24.9210   70.4670 C.3   186  GLU186      0.0388
     68  CG        19.5190   26.3410   70.0440 C.3   186  GLU186      0.1160
     69  CD        18.1380   26.8010   70.4480 C.2   186  GLU186      0.3649
     70  OE1       17.1520   26.2490   69.9140 O.co2 186  GLU186     -0.2457
     71  OE2       18.0380   27.7130   71.3000 O.co2 186  GLU186     -0.2457
     72  N         26.0860   31.2370   73.2990 N.3   214  GLN214     -0.1245
     73  CA        25.2890   32.0610   72.4200 C.3   214  GLN214      0.1566
     74  C         25.4600   33.5260   72.7770 C.2   214  GLN214      0.2260
     75  O         25.3760   34.3950   71.9040 O.2   214  GLN214     -0.2867
     76  CB        23.8420   31.6800   72.5270 C.3   214  GLN214      0.0367
     77  CG        23.6370   30.2360   72.3200 C.3   214  GLN214      0.0905
     78  CD        22.1860   29.9140   72.2330 C.2   214  GLN214      0.2608
     79  OE1       21.3490   30.6310   72.8110 O.2   214  GLN214     -0.2717
     80  NE2       21.8560   28.8280   71.5250 N.am  214  GLN214     -0.0878
     81  N         28.7430   34.6250   71.4880 N.3   217  PHE217     -0.1227
     82  CA        28.5540   34.8160   70.0500 C.3   217  PHE217      0.1736
     83  C         27.9840   36.2090   69.8250 C.2   217  PHE217      0.2595
     84  O         28.5530   37.0510   69.1250 O.2   217  PHE217     -0.2718
     85  CB        27.5910   33.7360   69.5060 C.3   217  PHE217      0.0547
     86  CG        27.4120   33.7710   68.0190 C.ar  217  PHE217     -0.0202
     87  CD1       28.4860   33.5670   67.1730 C.ar  217  PHE217     -0.0042
     88  CD2       26.1800   34.0800   67.4640 C.ar  217  PHE217     -0.0042
     89  CE1       28.3440   33.6820   65.7940 C.ar  217  PHE217     -0.0003
     90  CE2       26.0250   34.1980   66.0800 C.ar  217  PHE217     -0.0003
     91  CZ        27.1120   34.0000   65.2460 C.ar  217  PHE217     -0.0000
     92  N         26.8500   36.4580   70.4450 N.am  218  LEU218     -0.1980
     93  CA        26.2240   37.7570   70.3210 C.3   218  LEU218      0.1596
     94  C         27.1800   38.8710   70.6980 C.2   218  LEU218      0.2287
     95  O         27.2480   39.8850   70.0090 O.2   218  LEU218     -0.2864
     96  CB        24.9730   37.8060   71.1980 C.3   218  LEU218      0.0297
     97  CG        23.8490   37.0380   70.5230 C.3   218  LEU218      0.0022
     98  CD1       22.7460   36.7180   71.4890 C.3   218  LEU218      0.0001
     99  CD2       23.3630   37.8840   69.3740 C.3   218  LEU218      0.0001
    100  N         20.1410   40.2330   67.1300 N.3   267  ILE267     -0.1245
    101  CA        19.4970   38.9260   67.0770 C.3   267  ILE267      0.1561
    102  C         19.2350   38.4890   65.6280 C.2   267  ILE267      0.2260
    103  O         19.5160   37.3410   65.2740 O.2   267  ILE267     -0.2867
    104  CB        18.1680   38.9020   67.8540 C.3   267  ILE267      0.0252
    105  CG1       18.4330   39.1440   69.3480 C.3   267  ILE267      0.0019
    106  CG2       17.4800   37.5580   67.6390 C.3   267  ILE267      0.0019
    107  CD1       17.1810   39.3420   70.1870 C.3   267  ILE267      0.0001
    108  N         22.5360   37.7040   64.0170 N.3   270  ALA270     -0.1231
    109  CA        23.0610   36.4740   64.6330 C.3   270  ALA270      0.1694
    110  C         22.3360   35.2480   64.0680 C.2   270  ALA270      0.2592
    111  O         22.9170   34.1880   63.8500 O.2   270  ALA270     -0.2718
    112  CB        22.8910   36.5240   66.1570 C.3   270  ALA270      0.0304
    113  N         21.0470   35.4290   63.8340 N.am  271  ASP271     -0.1974
    114  CA        20.1730   34.4060   63.3140 C.3   271  ASP271      0.1709
    115  C         20.6510   33.9250   61.9380 C.2   271  ASP271      0.2293
    116  O         21.0160   32.7540   61.7680 O.2   271  ASP271     -0.2864
    117  CB        18.7620   34.9990   63.2410 C.3   271  ASP271      0.1436
    118  CG        17.6700   33.9490   63.3110 C.2   271  ASP271      0.3671
    119  OD1       17.6630   33.0410   62.4340 O.co2 271  ASP271     -0.2456
    120  OD2       16.8220   34.0400   64.2420 O.co2 271  ASP271     -0.2456
    121  N         24.4780   32.5620   61.8990 N.3   274  SER274     -0.1202
    122  CA        24.6400   31.2230   62.4220 C.3   274  SER274      0.2020
    123  C         24.0050   30.1940   61.5150 C.2   274  SER274      0.2618
    124  O         24.5960   29.1430   61.2560 O.2   274  SER274     -0.2717
    125  CB        24.0880   31.1120   63.8500 C.3   274  SER274      0.2103
    126  OG        22.7440   31.5440   63.9690 O.3   274  SER274     -0.2182
    127  N         22.8120   30.5020   61.0110 N.am  275  ALA275     -0.1979
    128  CA        22.0990   29.5770   60.1270 C.3   275  ALA275      0.1597
    129  C         22.9460   29.2370   58.8980 C.2   275  ALA275      0.2287
    130  O         23.0270   28.0790   58.4750 O.2   275  ALA275     -0.2864
    131  CB        20.7620   30.1820   59.7050 C.3   275  ALA275      0.0319
    132  N         26.2900   27.0380   59.6040 N.3   278  VAL278     -0.1231
    133  CA        26.0820   25.6690   60.0960 C.3   278  VAL278      0.1692
    134  C         25.2810   24.6950   59.2240 C.2   278  VAL278      0.2592
    135  O         25.3570   23.4790   59.4010 O.2   278  VAL278     -0.2718
    136  CB        25.3900   25.7380   61.5020 C.3   278  VAL278      0.0266
    137  CG1       24.8000   24.4130   61.8790 C.3   278  VAL278      0.0020
    138  CG2       26.4070   26.1480   62.5660 C.3   278  VAL278      0.0020
    139  N         24.5080   25.2090   58.2880 N.am  279  THR279     -0.1953
    140  CA        23.6880   24.3360   57.4640 C.3   279  THR279      0.1897
    141  C         24.3590   23.8050   56.2000 C.2   279  THR279      0.2313
    142  O         24.6410   22.6120   56.0710 O.2   279  THR279     -0.2863
    143  CB        22.4500   25.0720   57.0470 C.3   279  THR279      0.1794
    144  OG1       22.8350   26.3330   56.4650 O.3   279  THR279     -0.2208
    145  CG2       21.5540   25.2960   58.2450 C.3   279  THR279      0.0378
    146  N         18.5330   17.7330   58.8860 N.3   340  VAL340     -0.1245
    147  CA        17.6260   18.2480   59.9200 C.3   340  VAL340      0.1561
    148  C         16.5050   17.2020   60.0550 C.2   340  VAL340      0.2260
    149  O         15.3340   17.4600   59.8100 O.2   340  VAL340     -0.2867
    150  CB        17.0440   19.6180   59.5260 C.3   340  VAL340      0.0252
    151  CG1       16.2950   20.2090   60.6940 C.3   340  VAL340      0.0019
    152  CG2       18.1470   20.5540   59.1300 C.3   340  VAL340      0.0019
    153  N         12.3660   21.6700   62.6690 N.3   344  VAL344     -0.1245
    154  CA        12.3260   22.6640   63.7370 C.3   344  VAL344      0.1561
    155  C         10.8970   22.5920   64.2750 C.2   344  VAL344      0.2260
    156  O          9.9300   22.5240   63.4960 O.2   344  VAL344     -0.2867
    157  CB        12.6080   24.0700   63.1990 C.3   344  VAL344      0.0252
    158  CG1       12.4740   25.0820   64.3090 C.3   344  VAL344      0.0019
    159  CG2       13.9990   24.1190   62.5970 C.3   344  VAL344      0.0019
    160  N         12.3150   27.2990   55.4810 N.3   413  CYS413     -0.1235
    161  CA        13.6250   27.9270   55.4670 C.3   413  CYS413      0.1677
    162  C         13.6990   29.0830   54.5040 C.2   413  CYS413      0.2270
    163  O         13.4070   28.9270   53.3130 O.2   413  CYS413     -0.2867
    164  CB        14.6910   26.9290   55.0770 C.3   413  CYS413      0.0956
    165  SG        16.4020   27.6000   55.1380 S.3   413  CYS413     -0.0801
    166  N         20.3530   17.7400   66.6140 N.3   453  PHE453     -0.1227
    167  CA        19.3600   18.5750   65.9820 C.3   453  PHE453      0.1736
    168  C         19.8030   18.7610   64.5440 C.2   453  PHE453      0.2595
    169  O         18.9960   18.7100   63.6290 O.2   453  PHE453     -0.2718
    170  CB        19.2500   19.9230   66.6800 C.3   453  PHE453      0.0547
    171  CG        18.4800   20.9390   65.9020 C.ar  453  PHE453     -0.0202
    172  CD1       17.1100   20.9380   65.9200 C.ar  453  PHE453     -0.0042
    173  CD2       19.1310   21.8870   65.1480 C.ar  453  PHE453     -0.0042
    174  CE1       16.3980   21.8680   65.2000 C.ar  453  PHE453     -0.0003
    175  CE2       18.4280   22.8150   64.4210 C.ar  453  PHE453     -0.0003
    176  CZ        17.0580   22.8050   64.4450 C.ar  453  PHE453     -0.0000
    177  N         21.0970   18.9570   64.3470 N.am  454  LEU454     -0.1980
    178  CA        21.6360   19.0690   63.0140 C.3   454  LEU454      0.1596
    179  C         22.6180   17.9240   62.8550 C.2   454  LEU454      0.2287
    180  O         23.6230   17.8860   63.5340 O.2   454  LEU454     -0.2864
    181  CB        22.3230   20.4170   62.8860 C.3   454  LEU454      0.0297
    182  CG        22.4930   21.0260   61.5110 C.3   454  LEU454      0.0022
    183  CD1       21.9350   22.4340   61.5410 C.3   454  LEU454      0.0001
    184  CD2       23.9670   21.0500   61.1290 C.3   454  LEU454      0.0001
@<TRIPOS>BOND
     1   163   162    2
     2   162   161    1
     3   164   165    1
     4   164   161    1
     5   161   160    1
     6   142   141    2
     7   141   140    1
     8   144   143    1
     9   143   140    1
    10   143   145    1
    11   140   139    1
    12   139   134   am
    13   130   129    2
    14   146   147    1
    15   129   128    1
    16   152   150    1
    17   134   135    2
    18   134   133    1
    19   150   147    1
    20   150   151    1
    21   132   133    1
    22   131   128    1
    23   149   148    2
    24   147   148    1
    25   133   136    1
    26   128   127    1
    27   127   123   am
    28   184   182    1
    29   124   123    2
    30   136   137    1
    31   136   138    1
    32   182   183    1
    33   182   181    1
    34   123   122    1
    35   116   115    2
    36   121   122    1
    37   115   114    1
    38   122   125    1
    39   119   118   ar
    40   159   157    1
    41    33    35   ar
    42    33    32   ar
    43    35    37   ar
    44   153   154    1
    45   179   178    1
    46   179   180    2
    47   181   178    1
    48   178   177    1
    49   157   154    1
    50   157   158    1
    51    27    28    1
    52   117   118    1
    53   117   114    1
    54   118   120   ar
    55   114   113    1
    56   156   155    2
    57    28    31    1
    58    28    29    1
    59   169   168    2
    60    31    32    1
    61   154   155    1
    62    32    34   ar
    63   113   110   am
    64   125   126    1
    65   111   110    2
    66    37    36   ar
    67   108   109    1
    68   110   109    1
    69   177   168   am
    70   175   176   ar
    71   175   173   ar
    72   176   174   ar
    73   168   167    1
    74   109   112    1
    75    30    29    2
    76    29    38   am
    77    34    36   ar
    78   173   171   ar
    79   174   172   ar
    80    91    89   ar
    81    91    90   ar
    82   103   102    2
    83    62    60    1
    84    50    47    1
    85   102   101    1
    86    89    87   ar
    87   171   172   ar
    88   171   170    1
    89   167   166    1
    90   167   170    1
    91    38    39    1
    92    90    88   ar
    93    61    60    1
    94    60    59    1
    95    47    48    1
    96    47    46    1
    97    48    49    2
    98   101   100    1
    99   101   104    1
   100    87    86   ar
   101    39    40    1
   102    39    42    1
   103    59    56    1
   104    40    41    2
   105    88    86   ar
   106   106   104    1
   107   104   105    1
   108    86    85    1
   109    42    43    1
   110    43    45    1
   111    43    44    1
   112    56    55    1
   113    56    57    1
   114    84    83    2
   115   105   107    1
   116    55    53   am
   117    99    97    1
   118    85    82    1
   119    57    58    2
   120    24    26   ar
   121    24    22   ar
   122    26    25   ar
   123    83    82    1
   124    83    92   am
   125    70    69   ar
   126    95    94    2
   127    68    69    1
   128    68    67    1
   129    82    81    1
   130    93    92    1
   131    93    94    1
   132    93    96    1
   133    69    71   ar
   134    67    64    1
   135    53    54    2
   136    53    52    1
   137    97    96    1
   138    97    98    1
   139    51    52    1
   140    22    21   ar
   141    25    23   ar
   142    80    78   am
   143    75    74    2
   144    21    23   ar
   145    21    20    1
   146    64    63    1
   147    64    65    1
   148    78    77    1
   149    78    79    2
   150    77    76    1
   151    73    76    1
   152    73    74    1
   153    73    72    1
   154    65    66    2
   155    14    13    1
   156    20    17    1
   157    11    10    2
   158    17    16    1
   159    17    18    1
   160     7     5    1
   161    12    13    1
   162    12     9    1
   163    18    19    2
   164     5     6    1
   165     5     2    1
   166    13    15    1
   167    10     9    1
   168     9     8    1
   169     4     3    2
   170     2     3    1
   171     2     1    1
