@<TRIPOS>MOLECULE
tmp/3tdbA00.pdb
 149 142 0 0 0
SMALL
GASTEIGER

@<TRIPOS>ATOM
      1  N         -1.9250   37.8340    8.1170 N.3    42  HIS42      -0.1241
      2  CA        -2.3600   38.4040    9.3850 C.3    42  HIS42       0.1621
      3  C         -3.0810   39.7250    9.1960 C.2    42  HIS42       0.2264
      4  O         -3.0230   40.3590    8.1370 O.2    42  HIS42      -0.2867
      5  CB        -1.2140   38.4950   10.4290 C.3    42  HIS42       0.0745
      6  CG        -0.3580   39.7200   10.3000 C.ar   42  HIS42       0.0817
      7  ND1        0.2620   40.0790    9.1220 N.ar   42  HIS42      -0.2268
      8  CD2       -0.0060   40.6590   11.2080 C.ar   42  HIS42       0.1154
      9  CE1        0.9390   41.1990    9.3050 C.ar   42  HIS42       0.1986
     10  NE2        0.7950   41.5680   10.5630 N.ar   42  HIS42      -0.2212
     11  N         -3.1840   43.0440   11.5260 N.3    44  LEU44      -0.1245
     12  CA        -2.6450   43.7150   12.6930 C.3    44  LEU44       0.1561
     13  C         -3.4780   44.9630   13.0120 C.2    44  LEU44       0.2260
     14  O         -3.7890   45.7420   12.1350 O.2    44  LEU44      -0.2867
     15  CB        -1.1840   44.1090   12.4400 C.3    44  LEU44       0.0270
     16  CG        -0.4450   44.9930   13.4620 C.3    44  LEU44       0.0019
     17  CD1       -0.1910   44.2370   14.7790 C.3    44  LEU44       0.0001
     18  CD2        0.8830   45.4740   12.8810 C.3    44  LEU44       0.0001
     19  N         -2.7970   48.0280   15.4830 N.3    46  LYS46      -0.1245
     20  CA        -1.8720   48.6820   16.3830 C.3    46  LYS46       0.1561
     21  C         -2.6510   49.5190   17.3730 C.2    46  LYS46       0.2260
     22  O         -3.8280   49.8590   17.1460 O.2    46  LYS46      -0.2867
     23  CB        -0.8870   49.5680   15.5940 C.3    46  LYS46       0.0271
     24  CG         0.1310   48.7650   14.7910 C.3    46  LYS46       0.0035
     25  CD         0.9930   49.6800   13.9120 C.3    46  LYS46       0.0206
     26  CE         2.2000   48.9390   13.3660 C.3    46  LYS46       0.1093
     27  NZ         3.1420   49.9020   12.7680 N.3    46  LYS46      -0.1314
     28  N          5.2030   49.2720   19.3680 N.3    51  ARG51      -0.1231
     29  CA         6.6090   49.6880   19.1560 C.3    51  ARG51       0.1694
     30  C          6.7760   50.7860   18.0960 C.2    51  ARG51       0.2591
     31  O          7.7980   51.4910   18.0690 O.2    51  ARG51      -0.2718
     32  CB         7.5140   48.4890   18.8350 C.3    51  ARG51       0.0321
     33  CG         7.3210   47.8590   17.4600 C.3    51  ARG51       0.0489
     34  CD         8.1360   46.5680   17.3180 C.3    51  ARG51       0.2205
     35  NE         8.1230   46.0530   15.9480 N.pl3  51  ARG51      -0.0865
     36  CZ         8.8540   45.0180   15.5220 C.cat  51  ARG51       0.5346
     37  NH1        9.6570   44.3760   16.3620 N.pl3  51  ARG51       0.1354
     38  NH2        8.7830   44.6160   14.2520 N.pl3  51  ARG51       0.1354
     39  N          5.7570   50.9400   17.2520 N.am   52  ARG52      -0.1980
     40  CA         5.7350   51.9540   16.2030 C.3    52  ARG52       0.1597
     41  C          4.2850   52.4600   15.9840 C.2    52  ARG52       0.2287
     42  O          3.6090   52.0240   15.0560 O.2    52  ARG52      -0.2864
     43  CB         6.3280   51.3410   14.9260 C.3    52  ARG52       0.0334
     44  CG         6.7980   52.3260   13.8710 C.3    52  ARG52       0.0492
     45  CD         6.8430   51.6640   12.4980 C.3    52  ARG52       0.2205
     46  NE         6.1870   52.5090   11.4910 N.pl3  52  ARG52      -0.0865
     47  CZ         5.4680   52.0600   10.4620 C.cat  52  ARG52       0.5346
     48  NH1        5.2830   50.7550   10.2820 N.pl3  52  ARG52       0.1354
     49  NH2        4.9180   52.9250    9.6140 N.pl3  52  ARG52       0.1354
     50  N         -2.9860   47.2740   10.0020 N.3    95  ASP95      -0.1225
     51  CA        -2.0000   48.3460   10.1940 C.3    95  ASP95       0.1805
     52  C         -0.6250   47.8590    9.7500 C.2    95  ASP95       0.2598
     53  O          0.4020   48.4080   10.1270 O.2    95  ASP95      -0.2718
     54  CB        -1.9760   48.8150   11.6520 C.3    95  ASP95       0.1424
     55  CG        -3.0970   49.8070   11.9760 C.2    95  ASP95       0.3668
     56  OD1       -3.2940   50.7380   11.1920 O.co2  95  ASP95      -0.2456
     57  OD2       -3.7770   49.6700   13.0180 O.co2  95  ASP95      -0.2456
     58  N         -0.6130   46.8030    8.9530 N.am   96  CYS96      -0.1956
     59  CA         0.6230   46.3010    8.3840 C.3    96  CYS96       0.1843
     60  C          0.6500   46.6020    6.9020 C.2    96  CYS96       0.2626
     61  O         -0.3800   46.5990    6.2290 O.2    96  CYS96      -0.2714
     62  CB         0.7550   44.8040    8.6040 C.3    96  CYS96       0.0997
     63  SG         2.4000   44.0980    8.2770 S.3    96  CYS96      -0.0797
     64  N          1.8520   46.9010    6.4400 N.am   97  SER97      -0.1936
     65  CA         2.2520   46.9480    5.0590 C.3    97  SER97       0.2055
     66  C          1.6710   45.8070    4.1970 C.2    97  SER97       0.2643
     67  O          1.3400   46.0140    3.0200 O.2    97  SER97      -0.2714
     68  CB         3.7830   46.8540    5.0400 C.3    97  SER97       0.2130
     69  OG         4.2940   47.4940    3.9000 O.3    97  SER97      -0.2179
     70  N          1.5380   44.6240    4.8070 N.am   98  SER98      -0.1949
     71  CA         1.1000   43.4050    4.1190 C.3    98  SER98       0.1924
     72  C         -0.3830   43.4350    3.7990 C.2    98  SER98       0.2314
     73  O         -0.8660   42.5720    3.0940 O.2    98  SER98      -0.2863
     74  CB         1.4590   42.1480    4.9170 C.3    98  SER98       0.2116
     75  OG         0.6910   42.0820    6.1010 O.3    98  SER98      -0.2180
     76  N          2.1250   37.3500    4.3550 N.3   105  LEU105     -0.1245
     77  CA         3.5190   37.6270    4.7350 C.3   105  LEU105      0.1561
     78  C          4.5420   36.7250    4.0280 C.2   105  LEU105      0.2260
     79  O          5.7380   36.9150    4.1810 O.2   105  LEU105     -0.2867
     80  CB         3.7000   37.4650    6.2530 C.3   105  LEU105      0.0270
     81  CG         2.9000   38.3600    7.1960 C.3   105  LEU105      0.0019
     82  CD1        2.8990   37.7460    8.5780 C.3   105  LEU105      0.0001
     83  CD2        3.4750   39.7670    7.2170 C.3   105  LEU105      0.0001
     84  N         12.6170   31.8730   14.2810 N.3   111  GLY111     -0.1210
     85  CA        13.7390   32.8080   14.4100 C.3   111  GLY111      0.1956
     86  C         13.5840   34.0930   13.6250 C.2   111  GLY111      0.2612
     87  O         14.4340   34.9770   13.7130 O.2   111  GLY111     -0.2717
     88  N         12.4980   34.2150   12.8650 N.am  112  GLN112     -0.1965
     89  CA        12.2580   35.4080   12.0420 C.3   112  GLN112      0.1733
     90  C         11.2390   36.3610   12.6480 C.2   112  GLN112      0.2616
     91  O         11.4080   37.5720   12.5930 O.2   112  GLN112     -0.2715
     92  CB        11.7980   35.0160   10.6420 C.3   112  GLN112      0.0408
     93  CG        12.7060   34.0280    9.9220 C.3   112  GLN112      0.0908
     94  CD        12.2330   33.7570    8.5120 C.2   112  GLN112      0.2608
     95  OE1       12.2320   32.6140    8.0510 O.2   112  GLN112     -0.2717
     96  NE2       11.8010   34.8060    7.8280 N.am  112  GLN112     -0.0878
     97  N         10.1710   35.8150   13.2210 N.am  113  MET113     -0.1963
     98  CA         9.0920   36.6700   13.7100 C.3   113  MET113      0.1736
     99  C          9.1940   36.8810   15.2100 C.2   113  MET113      0.2616
    100  O          9.8210   36.0910   15.9150 O.2   113  MET113     -0.2715
    101  CB         7.7080   36.0950   13.3340 C.3   113  MET113      0.0427
    102  CG         7.5250   35.8140   11.8530 C.3   113  MET113      0.0599
    103  SD         7.7020   37.2800   10.8310 S.3   113  MET113     -0.1393
    104  CE         7.1890   36.6920    9.2180 C.3   113  MET113      0.0692
    105  N          8.5860   37.9590   15.6900 N.am  114  GLN114     -0.1963
    106  CA         8.3280   38.0900   17.1120 C.3   114  GLN114      0.1733
    107  C          7.7060   36.8010   17.6390 C.2   114  GLN114      0.2616
    108  O          6.7820   36.2210   17.0470 O.2   114  GLN114     -0.2715
    109  CB         7.4470   39.2880   17.4060 C.3   114  GLN114      0.0408
    110  CG         8.0730   40.5660   16.9450 C.3   114  GLN114      0.0908
    111  CD         7.2250   41.7700   17.2260 C.2   114  GLN114      0.2608
    112  OE1        6.9830   42.1050   18.3750 O.2   114  GLN114     -0.2717
    113  NE2        6.7880   42.4460   16.1760 N.am  114  GLN114     -0.0878
    114  N          8.2620   36.3600   18.7600 N.am  115  LYS115     -0.1977
    115  CA         8.0430   35.0450   19.3340 C.3   115  LYS115      0.1596
    116  C          6.5650   34.6190   19.5390 C.2   115  LYS115      0.2287
    117  O          6.2190   33.4710   19.2320 O.2   115  LYS115     -0.2864
    118  CB         8.8500   34.9680   20.6440 C.3   115  LYS115      0.0298
    119  CG         9.0210   33.6010   21.2220 C.3   115  LYS115      0.0038
    120  CD         9.6620   32.6550   20.2530 C.3   115  LYS115      0.0206
    121  CE         9.7480   31.3170   20.9140 C.3   115  LYS115      0.1093
    122  NZ         9.8580   30.1860   19.9880 N.3   115  LYS115     -0.1314
    123  N          3.9110   35.7020   17.8510 N.3   117  PHE117     -0.1241
    124  CA         3.4040   35.5300   16.4990 C.3   117  PHE117      0.1605
    125  C          3.8480   34.1950   15.9420 C.2   117  PHE117      0.2264
    126  O          3.0250   33.4330   15.4050 O.2   117  PHE117     -0.2867
    127  CB         3.8910   36.6660   15.5940 C.3   117  PHE117      0.0534
    128  CG         3.2490   36.6800   14.2260 C.ar  117  PHE117     -0.0203
    129  CD1        2.1940   37.5400   13.9600 C.ar  117  PHE117     -0.0042
    130  CD2        3.7110   35.8310   13.1990 C.ar  117  PHE117     -0.0042
    131  CE1        1.5920   37.5600   12.7090 C.ar  117  PHE117     -0.0003
    132  CE2        3.1060   35.8380   11.9490 C.ar  117  PHE117     -0.0003
    133  CZ         2.0430   36.7120   11.7060 C.ar  117  PHE117     -0.0000
    134  N          4.2330   44.7670   18.1620 N.3   137  SER137     -0.1217
    135  CA         3.6510   45.5260   17.0500 C.3   137  SER137      0.1889
    136  C          2.2250   45.9700   17.3170 C.2   137  SER137      0.2288
    137  O          1.8330   47.0700   16.9230 O.2   137  SER137     -0.2866
    138  CB         3.7030   44.7250   15.7590 C.3   137  SER137      0.2089
    139  OG         5.0270   44.3030   15.5410 O.3   137  SER137     -0.2183
    140  N         -2.7540   40.7830   16.6450 N.3   140  HIS140     -0.1241
    141  CA        -2.8640   40.0930   15.3570 C.3   140  HIS140      0.1621
    142  C         -4.0370   39.0970   15.3390 C.2   140  HIS140      0.2264
    143  O         -4.3740   38.4980   16.3720 O.2   140  HIS140     -0.2867
    144  CB        -1.5810   39.2820   15.0850 C.3   140  HIS140      0.0745
    145  CG        -0.3100   40.0660   15.2250 C.ar  140  HIS140      0.0817
    146  ND1        0.4380   40.4630   14.1380 N.ar  140  HIS140     -0.2268
    147  CD2        0.3550   40.5100   16.3200 C.ar  140  HIS140      0.1154
    148  CE1        1.5120   41.1100   14.5560 C.ar  140  HIS140      0.1986
    149  NE2        1.4780   41.1640   15.8750 N.ar  140  HIS140     -0.2212
@<TRIPOS>BOND
     1    67    66    2
     2    73    72    2
     3    72    71    1
     4    69    68    1
     5    78    79    2
     6    78    77    1
     7    71    70    1
     8    71    74    1
     9    66    70   am
    10    66    65    1
    11    76    77    1
    12    77    80    1
    13    74    75    1
    14    68    65    1
    15    65    64    1
    16    61    60    2
    17    80    81    1
    18    64    60   am
    19    60    59    1
    20    81    83    1
    21    81    82    1
    22    96    94   am
    23    95    94    2
    24     1     2    1
    25     4     3    2
    26    63    62    1
    27    59    62    1
    28    59    58    1
    29    94    93    1
    30    58    52   am
    31     7     9   ar
    32     7     6   ar
    33     3     2    1
    34   104   103    1
    35     9    10   ar
    36     2     5    1
    37    49    47    1
    38    52    53    2
    39    52    51    1
    40    93    92    1
    41    50    51    1
    42    51    54    1
    43    48    47    1
    44     6     5    1
    45     6     8   ar
    46    47    46    2
    47    10     8   ar
    48    92    89    1
    49   103   102    1
    50    56    55   ar
    51    46    45    1
    52    11    12    1
    53    54    55    1
    54   133   132   ar
    55   133   131   ar
    56   102   101    1
    57   132   130   ar
    58    55    57   ar
    59    89    90    1
    60    89    88    1
    61    14    13    2
    62    15    12    1
    63    15    16    1
    64    45    44    1
    65    91    90    2
    66    90    97   am
    67    12    13    1
    68   131   129   ar
    69    27    26    1
    70    88    86   am
    71    18    16    1
    72   130   128   ar
    73    97    98    1
    74   101    98    1
    75    26    25    1
    76    16    17    1
    77    86    87    2
    78    86    85    1
    79    98    99    1
    80    44    43    1
    81    25    24    1
    82   129   128   ar
    83   146   148   ar
    84   146   145   ar
    85   128   127    1
    86    38    36    1
    87    84    85    1
    88   148   149   ar
    89    24    23    1
    90    43    40    1
    91    42    41    2
    92   144   145    1
    93   144   141    1
    94    99   105   am
    95    99   100    2
    96   145   147   ar
    97   142   141    1
    98   142   143    2
    99   141   140    1
   100   126   125    2
   101    19    20    1
   102    36    35    2
   103    36    37    1
   104   139   138    1
   105    23    20    1
   106   127   124    1
   107   105   106    1
   108   138   135    1
   109   149   147   ar
   110   125   124    1
   111    35    34    1
   112    41    40    1
   113   113   111   am
   114    40    39    1
   115    20    21    1
   116   124   123    1
   117   137   136    2
   118   110   111    1
   119   110   109    1
   120   108   107    2
   121   135   136    1
   122   135   134    1
   123   106   109    1
   124   106   107    1
   125    22    21    2
   126   111   112    2
   127    39    30   am
   128    34    33    1
   129    33    32    1
   130   107   114   am
   131    31    30    2
   132    30    29    1
   133   114   115    1
   134    32    29    1
   135    29    28    1
   136   117   116    2
   137   115   116    1
   138   115   118    1
   139   122   121    1
   140   120   121    1
   141   120   119    1
   142   118   119    1
