@<TRIPOS>MOLECULE
tmp/3tddK00.pdb
 169 158 0 0 0
SMALL
GASTEIGER

@<TRIPOS>ATOM
      1  N         11.4490 -141.5810    9.2230 N.3     1  THR1       -0.1218
      2  CA        11.1600 -140.3280    8.4790 C.3     1  THR1        0.1862
      3  C         11.7260 -140.3300    7.0770 C.2     1  THR1        0.2287
      4  O         12.8390 -140.8140    6.8430 O.2     1  THR1       -0.2866
      5  CB        11.7660 -139.1000    9.1720 C.3     1  THR1        0.1770
      6  OG1       11.1080 -138.8800   10.4220 O.3     1  THR1       -0.2211
      7  CG2       11.6020 -137.8640    8.2970 C.3     1  THR1        0.0375
      8  N          5.0420 -140.0760    9.9560 N.3    19  ARG19      -0.1231
      9  CA         5.1360 -140.9920   11.0880 C.3    19  ARG19       0.1694
     10  C          6.1320 -140.5520   12.1700 C.2    19  ARG19       0.2592
     11  O          7.1610 -139.9180   11.8920 O.2    19  ARG19      -0.2718
     12  CB         5.4920 -142.4020   10.5970 C.3    19  ARG19       0.0321
     13  CG         5.6420 -143.4210   11.7200 C.3    19  ARG19       0.0489
     14  CD         5.7350 -144.8250   11.1810 C.3    19  ARG19       0.2205
     15  NE         4.4990 -145.1920   10.5050 N.pl3  19  ARG19      -0.0865
     16  CZ         4.2950 -146.3450    9.8770 C.cat  19  ARG19       0.5346
     17  NH1        5.2580 -147.2640    9.8310 N.pl3  19  ARG19       0.1354
     18  NH2        3.1200 -146.5730    9.2970 N.pl3  19  ARG19       0.1354
     19  N          5.8020 -140.8950   13.4110 N.am   20  ALA20      -0.1966
     20  CA         6.6420 -140.5890   14.5530 C.3    20  ALA20       0.1728
     21  C          6.6070 -141.7990   15.4850 C.2    20  ALA20       0.2616
     22  O          5.5380 -142.2900   15.8380 O.2    20  ALA20      -0.2715
     23  CB         6.1230 -139.3700   15.2620 C.3    20  ALA20       0.0334
     24  N          7.7820 -142.2740   15.8800 N.am   21  THR21      -0.1951
     25  CA         7.8840 -143.4300   16.7550 C.3    21  THR21       0.1897
     26  C          8.6990 -143.1610   18.0040 C.2    21  THR21       0.2313
     27  O          9.5770 -142.3120   18.0150 O.2    21  THR21      -0.2863
     28  CB         8.5350 -144.6230   16.0200 C.3    21  THR21       0.1794
     29  OG1        9.5870 -144.1410   15.1700 O.3    21  THR21      -0.2208
     30  CG2        7.5140 -145.3550   15.1820 C.3    21  THR21       0.0378
     31  N         10.5700 -145.6730   19.8390 N.3    23  GLY23      -0.1225
     32  CA        11.0500 -147.0400   19.9130 C.3    23  GLY23       0.1811
     33  C         10.3910 -147.7570   18.7520 C.2    23  GLY23       0.2280
     34  O         10.5540 -147.3490   17.5960 O.2    23  GLY23      -0.2866
     35  N          1.9490 -136.3180   11.7580 N.3    31  VAL31      -0.1245
     36  CA         2.9090 -135.2610   12.0650 C.3    31  VAL31       0.1561
     37  C          3.1890 -134.3790   10.8530 C.2    31  VAL31       0.2260
     38  O          3.3020 -134.8790    9.7330 O.2    31  VAL31      -0.2867
     39  CB         4.2440 -135.8610   12.5550 C.3    31  VAL31       0.0252
     40  CG1        5.2610 -134.7600   12.7890 C.3    31  VAL31       0.0019
     41  CG2        4.0160 -136.6540   13.8180 C.3    31  VAL31       0.0019
     42  N          5.6760 -132.6710    8.8800 N.3    33  LYS33      -0.1245
     43  CA         7.1200 -132.6080    8.6830 C.3    33  LYS33       0.1561
     44  C          7.5450 -131.5160    7.6980 C.2    33  LYS33       0.2260
     45  O          8.6760 -131.4930    7.2130 O.2    33  LYS33      -0.2867
     46  CB         7.6540 -133.9830    8.2680 C.3    33  LYS33       0.0271
     47  CG         7.4380 -135.0200    9.3620 C.3    33  LYS33       0.0035
     48  CD         7.9960 -136.3830    9.0110 C.3    33  LYS33       0.0206
     49  CE         7.6410 -137.3970   10.0930 C.3    33  LYS33       0.1093
     50  NZ         8.0580 -138.7880    9.7450 N.3    33  LYS33      -0.1314
     51  N         11.2720 -131.3310    8.0590 N.3    45  MET45      -0.1230
     52  CA        11.6370 -131.7850    9.3920 C.3    45  MET45       0.1702
     53  C         12.1540 -133.2330    9.4500 C.2    45  MET45       0.2592
     54  O         11.4780 -134.1670    9.0260 O.2    45  MET45      -0.2718
     55  CB        10.4110 -131.6080   10.2890 C.3    45  MET45       0.0401
     56  CG        10.4570 -132.2980   11.6370 C.3    45  MET45       0.0596
     57  SD         8.8840 -132.0850   12.5250 S.3    45  MET45      -0.1393
     58  CE         8.7930 -130.2430   12.5990 C.3    45  MET45       0.0692
     59  N         13.3650 -133.3990    9.9710 N.am   46  ALA46      -0.1966
     60  CA        13.9910 -134.7060   10.1240 C.3    46  ALA46       0.1728
     61  C         14.9420 -134.6020   11.3170 C.2    46  ALA46       0.2616
     62  O         15.5470 -133.5490   11.5410 O.2    46  ALA46      -0.2715
     63  CB        14.7530 -135.0730    8.8690 C.3    46  ALA46       0.0334
     64  N         15.0750 -135.6830   12.0830 N.am   47  GLY47      -0.1955
     65  CA        15.9360 -135.6580   13.2560 C.3    47  GLY47       0.1869
     66  C         15.0650 -135.4170   14.4700 C.2    47  GLY47       0.2309
     67  O         14.2230 -136.2500   14.7960 O.2    47  GLY47      -0.2863
     68  N         12.0470 -133.4700   16.2590 N.3    49  ALA49      -0.1245
     69  CA        10.8670 -132.6740   15.9410 C.3    49  ALA49       0.1562
     70  C         10.9480 -131.3040   16.6000 C.2    49  ALA49       0.2260
     71  O         10.9070 -130.2750   15.9300 O.2    49  ALA49      -0.2867
     72  CB         9.6320 -133.3890   16.3940 C.3    49  ALA49       0.0290
     73  N         19.4340 -132.0240   16.9520 N.3    96  SER96      -0.1202
     74  CA        19.3780 -133.0490   15.9330 C.3    96  SER96       0.2020
     75  C         18.4120 -132.6040   14.8640 C.2    96  SER96       0.2619
     76  O         17.1980 -132.5470   15.0900 O.2    96  SER96      -0.2717
     77  CB        18.9130 -134.3760   16.5180 C.3    96  SER96       0.2103
     78  OG        18.8440 -135.3610   15.5010 O.3    96  SER96      -0.2182
     79  N         18.9550 -132.2790   13.6980 N.am   97  MET97      -0.1965
     80  CA        18.1180 -131.8360   12.6040 C.3    97  MET97       0.1736
     81  C         18.7700 -131.8740   11.2370 C.2    97  MET97       0.2617
     82  O         19.8990 -131.4330   11.0590 O.2    97  MET97      -0.2715
     83  CB        17.5730 -130.4330   12.8970 C.3    97  MET97       0.0427
     84  CG        18.5400 -129.5010   13.5780 C.3    97  MET97       0.0599
     85  SD        17.7240 -127.9950   14.2110 S.3    97  MET97      -0.1393
     86  CE        17.5520 -127.0160   12.6460 C.3    97  MET97       0.0692
     87  N         18.0320 -132.4460   10.2890 N.am   98  GLY98      -0.1955
     88  CA        18.4590 -132.5430    8.9040 C.3    98  GLY98       0.1869
     89  C         17.3080 -131.8770    8.1780 C.2    98  GLY98       0.2309
     90  O         16.1990 -132.4130    8.1560 O.2    98  GLY98      -0.2863
     91  N         20.2930 -127.6970    1.8990 N.3   114  TYR114     -0.1241
     92  CA        20.2670 -128.7540    2.8980 C.3   114  TYR114      0.1605
     93  C         21.0200 -128.1720    4.0940 C.2   114  TYR114      0.2264
     94  O         22.1260 -127.6380    3.9360 O.2   114  TYR114     -0.2867
     95  CB        20.9860 -130.0020    2.3920 C.3   114  TYR114      0.0534
     96  CG        21.3320 -130.9840    3.4950 C.ar  114  TYR114     -0.0201
     97  CD1       20.3930 -131.8930    3.9770 C.ar  114  TYR114     -0.0009
     98  CD2       22.5960 -130.9720    4.0870 C.ar  114  TYR114     -0.0009
     99  CE1       20.7030 -132.7660    5.0220 C.ar  114  TYR114      0.0417
    100  CE2       22.9160 -131.8370    5.1300 C.ar  114  TYR114      0.0417
    101  CZ        21.9690 -132.7290    5.5950 C.ar  114  TYR114      0.1957
    102  OH        22.2990 -133.5670    6.6410 O.3   114  TYR114     -0.2866
    103  N         21.9640 -129.1150    8.2710 N.3   116  ASP116     -0.1225
    104  CA        21.8420 -130.0360    9.3950 C.3   116  ASP116      0.1805
    105  C         22.5130 -129.5020   10.6600 C.2   116  ASP116      0.2598
    106  O         23.2480 -128.5070   10.6270 O.2   116  ASP116     -0.2718
    107  CB        22.3860 -131.4340    9.0510 C.3   116  ASP116      0.1424
    108  CG        23.8890 -131.4540    8.8240 C.2   116  ASP116      0.3668
    109  OD1       24.6050 -130.6200    9.4200 O.co2 116  ASP116     -0.2456
    110  OD2       24.3650 -132.3260    8.0590 O.co2 116  ASP116     -0.2456
    111  N         22.2410 -130.1680   11.7780 N.am  117  SER117     -0.1938
    112  CA        22.7820 -129.7750   13.0680 C.3   117  SER117      0.2055
    113  C         24.2950 -129.9040   13.2000 C.2   117  SER117      0.2643
    114  O         24.8560 -129.4740   14.1970 O.2   117  SER117     -0.2714
    115  CB        22.0860 -130.5590   14.1800 C.3   117  SER117      0.2130
    116  OG        21.9020 -131.9140   13.8180 O.3   117  SER117     -0.2179
    117  N         24.9540 -130.4960   12.2070 N.am  118  ASP118     -0.1971
    118  CA        26.4100 -130.6200   12.2230 C.3   118  ASP118      0.1709
    119  C         26.9950 -129.2700   11.8200 C.2   118  ASP118      0.2293
    120  O         28.1650 -128.9860   12.0720 O.2   118  ASP118     -0.2864
    121  CB        26.8910 -131.6580   11.2080 C.3   118  ASP118      0.1436
    122  CG        26.7520 -133.0820   11.7000 C.2   118  ASP118      0.3671
    123  OD1       26.9110 -134.0060   10.8690 O.co2 118  ASP118     -0.2456
    124  OD2       26.4940 -133.2830   12.9070 O.co2 118  ASP118     -0.2456
    125  N         16.1360 -136.7600    3.1440 N.3   129  VAL129     -0.1231
    126  CA        16.6360 -136.8750    4.5030 C.3   129  VAL129      0.1692
    127  C         15.7370 -137.7540    5.3500 C.2   129  VAL129      0.2593
    128  O         14.5150 -137.6120    5.3220 O.2   129  VAL129     -0.2718
    129  CB        16.7200 -135.5020    5.1790 C.3   129  VAL129      0.0266
    130  CG1       17.3880 -135.6360    6.5240 C.3   129  VAL129      0.0020
    131  CG2       17.4700 -134.5330    4.3040 C.3   129  VAL129      0.0020
    132  N         16.3440 -138.6600    6.1110 N.am  130  GLY130     -0.1942
    133  CA        15.5650 -139.5260    6.9740 C.3   130  GLY130      0.2014
    134  C         15.9370 -140.9840    6.8460 C.2   130  GLY130      0.2639
    135  O         16.7270 -141.3590    5.9830 O.2   130  GLY130     -0.2714
    136  N         15.3590 -141.8060    7.7140 N.am  131  SER131     -0.1949
    137  CA        15.6160 -143.2340    7.7070 C.3   131  SER131      0.1924
    138  C         15.0980 -143.8830    6.4320 C.2   131  SER131      0.2314
    139  O         15.4590 -145.0190    6.1250 O.2   131  SER131     -0.2863
    140  CB        14.9630 -143.8910    8.9280 C.3   131  SER131      0.2116
    141  OG        13.5740 -143.6140    8.9970 O.3   131  SER131     -0.2180
    142  N         15.3080 -142.2150    3.4040 N.3   133  GLN133     -0.1231
    143  CA        15.9640 -141.5320    2.2990 C.3   133  GLN133      0.1698
    144  C         16.4580 -142.3660    1.1190 C.2   133  GLN133      0.2592
    145  O         16.2400 -142.0080   -0.0360 O.2   133  GLN133     -0.2718
    146  CB        17.1250 -140.6950    2.8280 C.3   133  GLN133      0.0381
    147  CG        18.2530 -141.5130    3.3810 C.3   133  GLN133      0.0905
    148  CD        19.4420 -140.6650    3.7480 C.2   133  GLN133      0.2608
    149  OE1       19.3820 -139.8470    4.6720 O.2   133  GLN133     -0.2717
    150  NE2       20.5360 -140.8440    3.0170 N.am  133  GLN133     -0.0878
    151  N         17.1320 -143.4710    1.3920 N.am  134  THR134     -0.1953
    152  CA        17.6740 -144.2870    0.3130 C.3   134  THR134      0.1897
    153  C         16.6170 -144.8030   -0.6500 C.2   134  THR134      0.2313
    154  O         16.8710 -144.9250   -1.8530 O.2   134  THR134     -0.2863
    155  CB        18.4850 -145.4860    0.8720 C.3   134  THR134      0.1794
    156  OG1       17.6380 -146.2970    1.6950 O.3   134  THR134     -0.2208
    157  CG2       19.6750 -144.9870    1.6950 C.3   134  THR134      0.0378
    158  N         10.1120 -147.0130    9.8190 N.3   170  TYR170     -0.1241
    159  CA         9.9180 -145.7440   10.5110 C.3   170  TYR170      0.1605
    160  C          9.3040 -144.6130    9.6950 C.2   170  TYR170      0.2264
    161  O          9.2280 -143.4710   10.1520 O.2   170  TYR170     -0.2867
    162  CB        11.2410 -145.3300   11.1730 C.3   170  TYR170      0.0534
    163  CG        11.6600 -146.3810   12.1730 C.ar  170  TYR170     -0.0201
    164  CD1       10.8360 -146.6930   13.2600 C.ar  170  TYR170     -0.0009
    165  CD2       12.8060 -147.1620   11.9750 C.ar  170  TYR170     -0.0009
    166  CE1       11.1350 -147.7630   14.1230 C.ar  170  TYR170      0.0417
    167  CE2       13.1110 -148.2370   12.8330 C.ar  170  TYR170      0.0417
    168  CZ        12.2700 -148.5290   13.9030 C.ar  170  TYR170      0.1957
    169  OH        12.5530 -149.5740   14.7590 O.3   170  TYR170     -0.2866
@<TRIPOS>BOND
     1   154   153    2
     2   153   152    1
     3   145   144    2
     4   152   155    1
     5   152   151    1
     6   155   156    1
     7   155   157    1
     8   144   151   am
     9   144   143    1
    10    91    92    1
    11   143   146    1
    12   143   142    1
    13    95    92    1
    14    95    96    1
    15   146   147    1
    16    92    93    1
    17   150   148   am
    18   125   126    1
    19   147   148    1
    20    96    97   ar
    21    96    98   ar
    22   148   149    2
    23    94    93    2
    24    97    99   ar
    25    98   100   ar
    26   131   129    1
    27   126   129    1
    28   126   127    1
    29    99   101   ar
    30   100   101   ar
    31   129   130    1
    32   128   127    2
    33   127   132   am
    34   101   102    1
    35   135   134    2
    36   132   133    1
    37   139   138    2
    38   138   137    1
    39     4     3    2
    40   134   133    1
    41   134   136   am
    42     3     2    1
    43    45    44    2
    44    44    43    1
    45   137   136    1
    46   137   140    1
    47   110   108   ar
    48    51    52    1
    49    90    89    2
    50    89    88    1
    51    46    43    1
    52    46    47    1
    53   103   104    1
    54     7     5    1
    55     2     5    1
    56     2     1    1
    57    43    42    1
    58   108   107    1
    59   108   109   ar
    60    63    60    1
    61    88    87    1
    62   140   141    1
    63    48    47    1
    64    48    49    1
    65    54    53    2
    66   107   104    1
    67     5     6    1
    68    18    16    1
    69    52    53    1
    70    52    55    1
    71   104   105    1
    72    53    59   am
    73   160   161    2
    74   160   159    1
    75    38    37    2
    76    50    49    1
    77   158   159    1
    78    17    16    1
    79    16    15    2
    80     8     9    1
    81    59    60    1
    82    60    61    1
    83    87    81   am
    84    55    56    1
    85    15    14    1
    86   159   162    1
    87    12     9    1
    88    12    13    1
    89   106   105    2
    90   105   111   am
    91    37    36    1
    92   123   122   ar
    93    82    81    2
    94     9    10    1
    95   162   163    1
    96    14    13    1
    97   121   122    1
    98   121   118    1
    99    81    80    1
   100    61    62    2
   101    61    64   am
   102    56    57    1
   103   122   124   ar
   104    35    36    1
   105   111   112    1
   106   119   120    2
   107   119   118    1
   108    11    10    2
   109   165   163   ar
   110   165   167   ar
   111    36    39    1
   112    64    65    1
   113    10    19   am
   114   163   164   ar
   115   117   118    1
   116   117   113   am
   117    57    58    1
   118    39    40    1
   119    39    41    1
   120    80    83    1
   121    80    79    1
   122    86    85    1
   123   167   168   ar
   124    83    84    1
   125   112   113    1
   126   112   115    1
   127   113   114    2
   128    65    66    1
   129   164   166   ar
   130    19    20    1
   131    84    85    1
   132    79    75   am
   133   116   115    1
   134   168   166   ar
   135   168   169    1
   136    66    67    2
   137    20    23    1
   138    20    21    1
   139    75    76    2
   140    75    74    1
   141    29    28    1
   142    30    28    1
   143    21    22    2
   144    21    24   am
   145    78    77    1
   146    24    25    1
   147    71    70    2
   148    74    77    1
   149    74    73    1
   150    69    68    1
   151    69    72    1
   152    69    70    1
   153    28    25    1
   154    25    26    1
   155    34    33    2
   156    26    27    2
   157    33    32    1
   158    31    32    1
