@<TRIPOS>MOLECULE
tmp/3tdgA00.pdb
 85 81 0 0 0
SMALL
GASTEIGER

@<TRIPOS>ATOM
      1  N        -37.2510   36.5000   27.9770 N.3    43  ASN43      -0.1225
      2  CA       -37.7860   37.7810   28.4040 C.3    43  ASN43       0.1785
      3  C        -36.6360   38.7640   28.4800 C.2    43  ASN43       0.2597
      4  O        -35.6190   38.4810   29.1120 O.2    43  ASN43      -0.2718
      5  CB       -38.4660   37.6820   29.7650 C.3    43  ASN43       0.1169
      6  CG       -39.7790   36.9170   29.7210 C.2    43  ASN43       0.2627
      7  OD1      -40.0420   36.1150   28.8120 O.2    43  ASN43      -0.2716
      8  ND2      -40.6050   37.1500   30.7250 N.am   43  ASN43      -0.0877
      9  N        -36.7990   39.9150   27.8350 N.am   44  ILE44      -0.1966
     10  CA       -35.7150   40.8810   27.7000 C.3    44  ILE44       0.1712
     11  C        -36.1950   42.2120   28.2620 C.2    44  ILE44       0.2458
     12  O        -37.2080   42.7460   27.8000 O.2    44  ILE44      -0.2730
     13  CB       -35.3170   41.0830   26.2120 C.3    44  ILE44       0.0289
     14  CG1      -35.0680   39.7270   25.5060 C.3    44  ILE44       0.0022
     15  CG2      -34.1160   42.0550   26.0830 C.3    44  ILE44       0.0023
     16  CD1      -33.8350   38.9520   26.0460 C.3    44  ILE44       0.0001
     17  N        -35.4880   42.7340   29.2840 N.am   45  PRO45      -0.2727
     18  CA       -35.7850   44.0410   29.8650 C.3    45  PRO45       0.1402
     19  C        -35.1220   45.1990   29.1190 C.2    45  PRO45       0.2269
     20  O        -33.9530   45.1230   28.7280 O.2    45  PRO45      -0.2865
     21  CB       -35.2490   43.9080   31.2970 C.3    45  PRO45       0.0296
     22  CG       -34.0920   42.9890   31.1570 C.3    45  PRO45       0.0237
     23  CD       -34.5420   41.9690   30.1170 C.3    45  PRO45       0.0939
     24  N        -31.6130   46.7030   29.1380 N.3    58  LEU58      -0.1231
     25  CA       -31.1900   46.8110   30.5390 C.3    58  LEU58       0.1693
     26  C        -30.2230   45.7000   30.8890 C.2    58  LEU58       0.2593
     27  O        -30.2750   44.6140   30.3180 O.2    58  LEU58      -0.2718
     28  CB       -32.3820   46.7450   31.4920 C.3    58  LEU58       0.0284
     29  CG       -33.1200   48.0330   31.8690 C.3    58  LEU58       0.0019
     30  CD1      -34.3100   47.7080   32.7290 C.3    58  LEU58       0.0001
     31  CD2      -32.1810   48.9990   32.5910 C.3    58  LEU58       0.0001
     32  N        -29.3390   45.9880   31.8370 N.am   59  SER59      -0.1938
     33  CA       -28.3430   45.0340   32.3020 C.3    59  SER59       0.2055
     34  C        -28.0360   45.3780   33.7500 C.2    59  SER59       0.2643
     35  O        -28.6920   46.2480   34.3240 O.2    59  SER59      -0.2714
     36  CB       -27.0700   45.1510   31.4550 C.3    59  SER59       0.2130
     37  OG       -26.3580   46.3500   31.7580 O.3    59  SER59      -0.2179
     38  N        -27.0250   44.7250   34.3170 N.am   60  ASN60      -0.1957
     39  CA       -26.4880   45.0770   35.6280 C.3    60  ASN60       0.1819
     40  C        -25.8410   46.4530   35.6610 C.2    60  ASN60       0.2621
     41  O        -25.7120   47.0370   36.7300 O.2    60  ASN60      -0.2715
     42  CB       -25.4700   44.0340   36.1080 C.3    60  ASN60       0.1195
     43  CG       -26.1170   42.7420   36.5890 C.2    60  ASN60       0.2630
     44  OD1      -27.3540   42.6090   36.6630 O.2    60  ASN60      -0.2716
     45  ND2      -25.2720   41.7670   36.9160 N.am   60  ASN60      -0.0877
     46  N        -25.4050   46.9650   34.5130 N.am   61  ILE61      -0.1977
     47  CA       -24.8630   48.3230   34.4710 C.3    61  ILE61       0.1596
     48  C        -26.0360   49.2870   34.4240 C.2    61  ILE61       0.2287
     49  O        -26.5010   49.6810   33.3490 O.2    61  ILE61      -0.2864
     50  CB       -23.8660   48.5380   33.3170 C.3    61  ILE61       0.0276
     51  CG1      -22.7610   47.4810   33.3800 C.3    61  ILE61       0.0022
     52  CG2      -23.2710   49.9900   33.3440 C.3    61  ILE61       0.0022
     53  CD1      -21.9100   47.3730   32.1130 C.3    61  ILE61       0.0001
     54  N        -34.2990   42.3430   36.3780 N.3    77  ASN77      -0.1240
     55  CA       -33.1920   41.5110   35.9220 C.3    77  ASN77       0.1653
     56  C        -33.2270   40.0990   36.5220 C.2    77  ASN77       0.2266
     57  O        -33.1550   39.1210   35.7930 O.2    77  ASN77      -0.2867
     58  CB       -31.8330   42.1860   36.1600 C.3    77  ASN77       0.1155
     59  CG       -31.5980   43.3720   35.2190 C.2    77  ASN77       0.2627
     60  OD1      -32.3730   43.6030   34.2870 O.2    77  ASN77      -0.2716
     61  ND2      -30.5400   44.1360   35.4710 N.am   77  ASN77      -0.0877
     62  N        -36.3700   37.9600   35.1470 N.3    80  VAL80      -0.1231
     63  CA       -36.1390   37.4870   33.7680 C.3    80  VAL80       0.1692
     64  C        -35.0030   36.4500   33.6710 C.2    80  VAL80       0.2591
     65  O        -35.0990   35.5010   32.9020 O.2    80  VAL80      -0.2718
     66  CB       -35.9210   38.6430   32.7240 C.3    80  VAL80       0.0266
     67  CG1      -37.0060   39.7180   32.8300 C.3    80  VAL80       0.0020
     68  CG2      -34.5590   39.2520   32.8420 C.3    80  VAL80       0.0020
     69  N        -33.9390   36.6190   34.4540 N.am   81  GLN81      -0.1979
     70  CA       -32.8550   35.6390   34.4510 C.3    81  GLN81       0.1601
     71  C        -33.3130   34.2680   34.9440 C.2    81  GLN81       0.2287
     72  O        -32.8250   33.2480   34.4610 O.2    81  GLN81      -0.2864
     73  CB       -31.6440   36.1260   35.2490 C.3    81  GLN81       0.0394
     74  CG       -30.9160   37.3220   34.6010 C.3    81  GLN81       0.0908
     75  CD       -29.6260   37.6860   35.3170 C.2    81  GLN81       0.2608
     76  OE1      -29.5510   37.6580   36.5430 O.2    81  GLN81      -0.2717
     77  NE2      -28.6120   38.0340   34.5550 N.am   81  GLN81      -0.0878
     78  N        -35.6320   32.8890   32.0580 N.3    84  ASN84      -0.1240
     79  CA       -34.8310   32.5350   30.8770 C.3    84  ASN84       0.1653
     80  C        -33.9780   31.2890   31.1270 C.2    84  ASN84       0.2266
     81  O        -33.7820   30.4890   30.2130 O.2    84  ASN84      -0.2867
     82  CB       -33.9210   33.6860   30.4190 C.3    84  ASN84       0.1155
     83  CG       -34.6970   34.9070   29.9390 C.2    84  ASN84       0.2627
     84  OD1      -35.8920   34.8380   29.7120 O.2    84  ASN84      -0.2716
     85  ND2      -34.0050   36.0520   29.8180 N.am   84  ASN84      -0.0877
@<TRIPOS>BOND
     1    14    16    1
     2    14    13    1
     3    15    13    1
     4    13    10    1
     5    10     9    1
     6    10    11    1
     7    12    11    2
     8     9     3   am
     9     1     2    1
    10    11    17   am
    11     2     3    1
    12     2     5    1
    13     3     4    2
    14    20    19    2
    15     7     6    2
    16    19    18    1
    17    24    25    1
    18    17    18    1
    19    17    23    1
    20    84    83    2
    21     6     5    1
    22     6     8   am
    23    85    83   am
    24    18    21    1
    25    83    82    1
    26    23    22    1
    27    81    80    2
    28    27    26    2
    29    82    79    1
    30    25    26    1
    31    25    28    1
    32    79    80    1
    33    79    78    1
    34    26    32   am
    35    22    21    1
    36    36    37    1
    37    36    33    1
    38    28    29    1
    39    32    33    1
    40    29    31    1
    41    29    30    1
    42    53    51    1
    43    33    34    1
    44    66    67    1
    45    66    68    1
    46    66    63    1
    47    65    64    2
    48    50    52    1
    49    50    51    1
    50    50    47    1
    51    49    48    2
    52    64    63    1
    53    64    69   am
    54    34    38   am
    55    34    35    2
    56    63    62    1
    57    60    59    2
    58    38    39    1
    59    48    47    1
    60    70    69    1
    61    70    71    1
    62    70    73    1
    63    72    71    2
    64    47    46    1
    65    46    40   am
    66    77    75   am
    67    74    73    1
    68    74    75    1
    69    59    61   am
    70    59    58    1
    71    75    76    2
    72    39    40    1
    73    39    42    1
    74    40    41    2
    75    57    56    2
    76    55    58    1
    77    55    54    1
    78    55    56    1
    79    42    43    1
    80    43    44    2
    81    43    45   am
