@<TRIPOS>MOLECULE
tmp/3tdhC00.pdb
 168 161 0 0 0
SMALL
GASTEIGER

@<TRIPOS>ATOM
      1  N         28.2960   61.0330   -4.9290 N.3   137  SER137     -0.1202
      2  CA        28.4530   60.1470   -3.7830 C.3   137  SER137      0.2020
      3  C         28.5820   60.9710   -2.5070 C.2   137  SER137      0.2618
      4  O         29.3400   61.9420   -2.4620 O.2   137  SER137     -0.2717
      5  CB        29.6810   59.2510   -3.9680 C.3   137  SER137      0.2103
      6  OG        29.8470   58.3570   -2.8800 O.3   137  SER137     -0.2182
      7  N         27.8200   60.5930   -1.4830 N.am  138  ARG138     -0.1979
      8  CA        27.9320   61.2060   -0.1570 C.3   138  ARG138      0.1597
      9  C         28.8570   60.3620    0.7190 C.2   138  ARG138      0.2287
     10  O         29.3810   60.8360    1.7320 O.2   138  ARG138     -0.2864
     11  CB        26.5550   61.3360    0.5030 C.3   138  ARG138      0.0334
     12  CG        26.5720   61.9750    1.8980 C.3   138  ARG138      0.0492
     13  CD        25.1690   62.2490    2.3890 C.3   138  ARG138      0.2205
     14  NE        24.3480   61.0540    2.4730 N.pl3 138  ARG138     -0.0865
     15  CZ        24.2920   60.2260    3.4650 C.cat 138  ARG138      0.5346
     16  NH1       25.0920   60.3360    4.5550 N.pl3 138  ARG138      0.1354
     17  NH2       23.5300   59.1730    3.4500 N.pl3 138  ARG138      0.1354
     18  N         37.4750   59.6760   -3.3060 N.3   162  GLN162     -0.1245
     19  CA        37.8420   61.0540   -3.6490 C.3   162  GLN162      0.1566
     20  C         39.2570   61.3790   -3.1850 C.2   162  GLN162      0.2260
     21  O         39.9970   62.0620   -3.8990 O.2   162  GLN162     -0.2867
     22  CB        36.8960   62.0700   -3.0100 C.3   162  GLN162      0.0367
     23  CG        35.4500   62.0360   -3.4870 C.3   162  GLN162      0.0905
     24  CD        34.5340   62.8330   -2.5720 C.2   162  GLN162      0.2608
     25  OE1       34.9290   63.2410   -1.4750 O.2   162  GLN162     -0.2717
     26  NE2       33.3010   63.0510   -3.0160 N.am  162  GLN162     -0.0878
     27  N         32.0120   76.4630    1.0900 N.3   190  THR190     -0.1218
     28  CA        30.6180   76.5610    1.5040 C.3   190  THR190      0.1862
     29  C         30.5520   77.2620    2.8610 C.2   190  THR190      0.2287
     30  O         31.2200   76.8550    3.8160 O.2   190  THR190     -0.2866
     31  CB        29.8930   75.1940    1.5300 C.3   190  THR190      0.1770
     32  OG1       30.4810   74.3500    2.5190 O.3   190  THR190     -0.2211
     33  CG2       29.9770   74.5140    0.1730 C.3   190  THR190      0.0375
     34  N         27.2840   79.2570    3.7020 N.3   192  ASP192     -0.1225
     35  CA        25.8720   79.3750    4.0470 C.3   192  ASP192      0.1805
     36  C         25.3520   78.0660    4.6190 C.2   192  ASP192      0.2598
     37  O         25.7600   76.9860    4.1850 O.2   192  ASP192     -0.2718
     38  CB        25.0430   79.7670    2.8190 C.3   192  ASP192      0.1424
     39  CG        25.5320   81.0530    2.1590 C.2   192  ASP192      0.3668
     40  OD1       26.1180   81.9110    2.8570 O.co2 192  ASP192     -0.2456
     41  OD2       25.3220   81.2060    0.9350 O.co2 192  ASP192     -0.2456
     42  N         24.4530   78.1790    5.5960 N.am  193  ASN193     -0.1960
     43  CA        23.7530   77.0350    6.1850 C.3   193  ASN193      0.1819
     44  C         24.6910   75.9570    6.7470 C.2   193  ASN193      0.2621
     45  O         24.4990   74.7590    6.5110 O.2   193  ASN193     -0.2715
     46  CB        22.7480   76.4360    5.1820 C.3   193  ASN193      0.1195
     47  CG        21.8110   77.4880    4.5820 C.2   193  ASN193      0.2630
     48  OD1       21.6370   77.5580    3.3610 O.2   193  ASN193     -0.2716
     49  ND2       21.2070   78.3090    5.4400 N.am  193  ASN193     -0.0877
     50  N         25.7060   76.3980    7.4900 N.am  194  MET194     -0.1963
     51  CA        26.6340   75.4880    8.1540 C.3   194  MET194      0.1736
     52  C         25.9230   74.6980    9.2430 C.2   194  MET194      0.2616
     53  O         25.3860   75.2760   10.1880 O.2   194  MET194     -0.2715
     54  CB        27.8100   76.2590    8.7600 C.3   194  MET194      0.0427
     55  CG        28.8440   76.7380    7.7500 C.3   194  MET194      0.0599
     56  SD        29.7270   75.3970    6.9200 S.3   194  MET194     -0.1393
     57  CE        30.7300   74.7450    8.2560 C.3   194  MET194      0.0692
     58  N         25.9080   73.3760    9.0970 N.am  195  LYS195     -0.1977
     59  CA        25.3670   72.5030   10.1330 C.3   195  LYS195      0.1596
     60  C         26.4370   72.2870   11.1930 C.2   195  LYS195      0.2287
     61  O         27.5070   71.7610   10.8970 O.2   195  LYS195     -0.2864
     62  CB        24.9080   71.1570    9.5570 C.3   195  LYS195      0.0298
     63  CG        23.7020   71.2230    8.6120 C.3   195  LYS195      0.0038
     64  CD        24.1300   71.1990    7.1470 C.3   195  LYS195      0.0206
     65  CE        22.9410   70.9830    6.2110 C.3   195  LYS195      0.1093
     66  NZ        23.3710   70.6660    4.8070 N.3   195  LYS195     -0.1314
     67  N         22.9850   65.5340    4.5640 N.3   214  ARG214     -0.1231
     68  CA        23.8300   64.9090    3.5420 C.3   214  ARG214      0.1694
     69  C         25.2890   65.3660    3.6470 C.2   214  ARG214      0.2592
     70  O         25.9210   65.7050    2.6400 O.2   214  ARG214     -0.2718
     71  CB        23.2720   65.1510    2.1310 C.3   214  ARG214      0.0321
     72  CG        21.7660   64.9670    1.9890 C.3   214  ARG214      0.0489
     73  CD        21.3290   65.0400    0.5360 C.3   214  ARG214      0.2205
     74  NE        21.8430   63.9090   -0.2350 N.pl3 214  ARG214     -0.0865
     75  CZ        21.3630   62.6680   -0.1670 C.cat 214  ARG214      0.5346
     76  NH1       20.3440   62.3830    0.6360 N.pl3 214  ARG214      0.1354
     77  NH2       21.9200   61.7030   -0.8890 N.pl3 214  ARG214      0.1354
     78  N         25.8110   65.3740    4.8740 N.am  215  VAL215     -0.1966
     79  CA        27.2020   65.7670    5.1300 C.3   215  VAL215      0.1727
     80  C         28.0020   64.6540    5.8100 C.2   215  VAL215      0.2617
     81  O         27.4420   63.7930    6.4940 O.2   215  VAL215     -0.2715
     82  CB        27.3120   67.0960    5.9420 C.3   215  VAL215      0.0290
     83  CG1       26.7260   68.2620    5.1460 C.3   215  VAL215      0.0023
     84  CG2       26.6310   66.9720    7.3060 C.3   215  VAL215      0.0023
     85  N         29.3150   64.6840    5.6090 N.am  216  SER216     -0.1936
     86  CA        30.2060   63.6570    6.1310 C.3   216  SER216      0.2055
     87  C         30.6760   63.9680    7.5450 C.2   216  SER216      0.2644
     88  O         31.1600   63.0790    8.2480 O.2   216  SER216     -0.2714
     89  CB        31.4100   63.4840    5.2050 C.3   216  SER216      0.2130
     90  OG        31.0000   62.9610    3.9570 O.3   216  SER216     -0.2179
     91  N         30.5280   65.2260    7.9560 N.am  217  SER217     -0.1935
     92  CA        30.9890   65.6630    9.2700 C.3   217  SER217      0.2055
     93  C         30.1950   66.8490    9.8290 C.2   217  SER217      0.2643
     94  O         29.5430   67.5890    9.0830 O.2   217  SER217     -0.2714
     95  CB        32.4800   66.0040    9.2240 C.3   217  SER217      0.2130
     96  OG        32.6860   67.2670    8.6300 O.3   217  SER217     -0.2179
     97  N         30.2640   67.0120   11.1480 N.am  218  VAL218     -0.1963
     98  CA        29.6240   68.1200   11.8420 C.3   218  VAL218      0.1712
     99  C         30.6460   68.8420   12.7190 C.2   218  VAL218      0.2458
    100  O         31.1540   68.2670   13.6870 O.2   218  VAL218     -0.2730
    101  CB        28.4140   67.6440   12.6960 C.3   218  VAL218      0.0289
    102  CG1       27.8280   68.7990   13.5030 C.3   218  VAL218      0.0023
    103  CG2       27.3450   67.0210   11.8120 C.3   218  VAL218      0.0023
    104  N         30.9630   70.1050   12.3740 N.am  219  PRO219     -0.2727
    105  CA        31.8620   70.9250   13.1840 C.3   219  PRO219      0.1402
    106  C         31.2800   71.2020   14.5700 C.2   219  PRO219      0.2269
    107  O         30.0750   71.4310   14.7050 O.2   219  PRO219     -0.2865
    108  CB        31.9690   72.2280   12.3840 C.3   219  PRO219      0.0296
    109  CG        30.7870   72.2410   11.4950 C.3   219  PRO219      0.0237
    110  CD        30.5250   70.8140   11.1610 C.3   219  PRO219      0.0939
    111  N         38.9580   67.0520    4.6890 N.3   289  ARG289     -0.1245
    112  CA        38.3870   68.3950    4.6130 C.3   289  ARG289      0.1563
    113  C         39.2380   69.4080    5.3700 C.2   289  ARG289      0.2260
    114  O         40.0030   69.0490    6.2640 O.2   289  ARG289     -0.2867
    115  CB        36.9450   68.4140    5.1460 C.3   289  ARG289      0.0307
    116  CG        36.7980   68.0610    6.6240 C.3   289  ARG289      0.0489
    117  CD        35.3640   67.6620    6.9630 C.3   289  ARG289      0.2205
    118  NE        34.9900   66.3660    6.3990 N.pl3 289  ARG289     -0.0865
    119  CZ        35.2060   65.1910    6.9880 C.cat 289  ARG289      0.5346
    120  NH1       35.8100   65.1290    8.1660 N.pl3 289  ARG289      0.1354
    121  NH2       34.8240   64.0700    6.3940 N.pl3 289  ARG289      0.1354
    122  N         38.4660   72.8460    7.4640 N.3   291  PHE291     -0.1241
    123  CA        37.5500   73.8330    8.0190 C.3   291  PHE291      0.1605
    124  C         38.1770   75.2160    7.9950 C.2   291  PHE291      0.2264
    125  O         39.2770   75.4180    8.5010 O.2   291  PHE291     -0.2867
    126  CB        37.1190   73.4480    9.4340 C.3   291  PHE291      0.0534
    127  CG        36.1300   72.3280    9.4660 C.ar  291  PHE291     -0.0203
    128  CD1       34.7760   72.5770    9.2720 C.ar  291  PHE291     -0.0042
    129  CD2       36.5520   71.0200    9.6480 C.ar  291  PHE291     -0.0042
    130  CE1       33.8560   71.5420    9.2810 C.ar  291  PHE291     -0.0003
    131  CE2       35.6400   69.9770    9.6530 C.ar  291  PHE291     -0.0003
    132  CZ        34.2890   70.2410    9.4710 C.ar  291  PHE291     -0.0000
    133  N         33.7440   75.5800    5.4010 N.3   302  VAL302     -0.1245
    134  CA        34.4160   74.3000    5.1900 C.3   302  VAL302      0.1561
    135  C         34.7830   74.1160    3.7110 C.2   302  VAL302      0.2260
    136  O         34.0330   74.5250    2.8130 O.2   302  VAL302     -0.2867
    137  CB        33.5640   73.1080    5.7130 C.3   302  VAL302      0.0252
    138  CG1       32.2640   72.9450    4.9060 C.3   302  VAL302      0.0019
    139  CG2       34.3660   71.8130    5.7130 C.3   302  VAL302      0.0019
    140  N         35.7750   70.8900    1.5660 N.3   304  THR304     -0.1203
    141  CA        35.9050   69.4370    1.4940 C.3   304  THR304      0.1994
    142  C         36.5910   69.0280    0.1970 C.2   304  THR304      0.2618
    143  O         36.8180   69.8580   -0.6870 O.2   304  THR304     -0.2717
    144  CB        34.5300   68.7250    1.5820 C.3   304  THR304      0.1784
    145  OG1       33.7140   69.1330    0.4810 O.3   304  THR304     -0.2211
    146  CG2       33.8090   69.0600    2.8940 C.3   304  THR304      0.0376
    147  N         36.9110   67.7420    0.0930 N.am  305  LEU305     -0.1965
    148  CA        37.5280   67.1790   -1.1020 C.3   305  LEU305      0.1728
    149  C         36.6360   67.3390   -2.3340 C.2   305  LEU305      0.2617
    150  O         37.1330   67.5940   -3.4260 O.2   305  LEU305     -0.2715
    151  CB        37.8800   65.7060   -0.8790 C.3   305  LEU305      0.0311
    152  CG        38.8280   65.3540    0.2740 C.3   305  LEU305      0.0022
    153  CD1       39.0390   63.8500    0.3380 C.3   305  LEU305      0.0001
    154  CD2       40.1660   66.0790    0.1650 C.3   305  LEU305      0.0001
    155  N         35.3230   67.2080   -2.1450 N.am  306  SER306     -0.1936
    156  CA        34.3590   67.3910   -3.2330 C.3   306  SER306      0.2055
    157  C         34.3470   68.8300   -3.7470 C.2   306  SER306      0.2643
    158  O         34.1800   69.0540   -4.9480 O.2   306  SER306     -0.2714
    159  CB        32.9530   66.9430   -2.8150 C.3   306  SER306      0.2130
    160  OG        32.5200   67.6140   -1.6440 O.3   306  SER306     -0.2179
    161  N         34.5520   69.7960   -2.8500 N.am  307  ASP307     -0.1971
    162  CA        34.6880   71.2010   -3.2520 C.3   307  ASP307      0.1709
    163  C         35.9440   71.4170   -4.1050 C.2   307  ASP307      0.2293
    164  O         35.9290   72.1960   -5.0540 O.2   307  ASP307     -0.2864
    165  CB        34.7260   72.1360   -2.0330 C.3   307  ASP307      0.1436
    166  CG        33.4800   72.0440   -1.1780 C.2   307  ASP307      0.3671
    167  OD1       32.3580   72.0650   -1.7380 O.co2 307  ASP307     -0.2456
    168  OD2       33.6220   71.9620    0.0640 O.co2 307  ASP307     -0.2456
@<TRIPOS>BOND
     1   164   163    2
     2   158   157    2
     3     1     2    1
     4   163   162    1
     5     5     2    1
     6     5     6    1
     7    21    20    2
     8     2     3    1
     9   157   156    1
    10   157   161   am
    11    19    18    1
    12    19    20    1
    13    19    22    1
    14    23    22    1
    15    23    24    1
    16   150   149    2
    17   162   161    1
    18   162   165    1
    19   156   159    1
    20   156   155    1
    21    26    24   am
    22   159   160    1
    23    24    25    2
    24     3     4    2
    25     3     7   am
    26   149   155   am
    27   149   148    1
    28   165   166    1
    29   167   166   ar
    30     7     8    1
    31   166   168   ar
    32   148   151    1
    33   148   147    1
    34    77    75    1
    35   151   152    1
    36   143   142    2
    37    74    75    2
    38    74    73    1
    39    75    76    1
    40     8    11    1
    41     8     9    1
    42   147   142   am
    43   154   152    1
    44    33    31    1
    45   142   141    1
    46   152   153    1
    47   145   144    1
    48    11    12    1
    49    73    72    1
    50     9    10    2
    51    41    39   ar
    52    27    28    1
    53   141   140    1
    54   141   144    1
    55    28    31    1
    56    28    29    1
    57    31    32    1
    58   144   146    1
    59    12    13    1
    60    72    71    1
    61    71    68    1
    62    39    38    1
    63    39    40   ar
    64    13    14    1
    65    14    15    2
    66    70    69    2
    67   136   135    2
    68    38    35    1
    69    29    30    2
    70    48    47    2
    71    17    15    1
    72    15    16    1
    73    68    69    1
    74    68    67    1
    75    69    78   am
    76    34    35    1
    77   135   134    1
    78    90    89    1
    79    35    36    1
    80    37    36    2
    81    47    46    1
    82    47    49   am
    83   112   111    1
    84   112   115    1
    85   112   113    1
    86    36    42   am
    87    66    65    1
    88    78    79    1
    89   138   137    1
    90    79    80    1
    91    79    82    1
    92   115   116    1
    93    83    82    1
    94    46    43    1
    95   134   133    1
    96   134   137    1
    97    89    86    1
    98   113   114    2
    99    42    43    1
   100    85    80   am
   101    85    86    1
   102   139   137    1
   103    80    81    2
   104    82    84    1
   105    86    87    1
   106    43    44    1
   107    65    64    1
   108   121   119    1
   109   118   117    1
   110   118   119    2
   111    45    44    2
   112   116   117    1
   113    44    50   am
   114    56    55    1
   115    56    57    1
   116   119   120    1
   117    64    63    1
   118   122   123    1
   119    50    51    1
   120    87    91   am
   121    87    88    2
   122    55    54    1
   123    91    92    1
   124   124   123    1
   125   124   125    2
   126   123   126    1
   127    51    54    1
   128    51    52    1
   129    63    62    1
   130    96    95    1
   131    94    93    2
   132    58    52   am
   133    58    59    1
   134    95    92    1
   135    52    53    2
   136    92    93    1
   137   128   130   ar
   138   128   127   ar
   139   130   132   ar
   140   126   127    1
   141   127   129   ar
   142   132   131   ar
   143    62    59    1
   144   129   131   ar
   145    93    97   am
   146    59    60    1
   147    61    60    2
   148    97    98    1
   149   110   109    1
   150   110   104    1
   151   109   108    1
   152   103   101    1
   153    98   101    1
   154    98    99    1
   155   104    99   am
   156   104   105    1
   157   108   105    1
   158   101   102    1
   159    99   100    2
   160   105   106    1
   161   106   107    2
