@<TRIPOS>MOLECULE
tmp/3tdkI00.pdb
 183 172 0 0 0
SMALL
GASTEIGER

@<TRIPOS>ATOM
      1  N         79.2910  141.4230   83.1140 N.3    10  ILE10      -0.1231
      2  CA        79.7850  140.1650   83.6580 C.3    10  ILE10       0.1692
      3  C         79.3730  139.0740   82.7120 C.2    10  ILE10       0.2592
      4  O         78.1840  138.8480   82.5030 O.2    10  ILE10      -0.2718
      5  CB        79.1950  139.8330   85.0520 C.3    10  ILE10       0.0266
      6  CG1       79.3690  141.0060   86.0240 C.3    10  ILE10       0.0019
      7  CG2       79.8080  138.5130   85.5800 C.3    10  ILE10       0.0020
      8  CD1       78.5820  140.8650   87.3250 C.3    10  ILE10       0.0001
      9  N         80.3500  138.3930   82.1400 N.am   11  GLY11      -0.1957
     10  CA        80.0520  137.3310   81.1710 C.3    11  GLY11       0.1869
     11  C         80.4870  137.7300   79.7920 C.2    11  GLY11       0.2309
     12  O         79.8360  138.5370   79.1520 O.2    11  GLY11      -0.2863
     13  N         80.6710  135.9560   76.9580 N.3    13  GLY13      -0.1210
     14  CA        80.3300  134.8490   76.0640 C.3    13  GLY13       0.1956
     15  C         79.8000  135.2710   74.6970 C.2    13  GLY13       0.2612
     16  O         80.2110  136.2630   74.1030 O.2    13  GLY13      -0.2717
     17  N         78.8670  134.4860   74.1950 N.am   14  TYR14      -0.1962
     18  CA        78.2850  134.6760   72.8720 C.3    14  TYR14       0.1771
     19  C         77.3100  135.8130   72.8950 C.2    14  TYR14       0.2619
     20  O         76.9720  136.3530   71.8490 O.2    14  TYR14      -0.2715
     21  CB        77.5720  133.3930   72.4270 C.3    14  TYR14       0.0574
     22  CG        78.4900  132.3420   71.8560 C.ar   14  TYR14      -0.0198
     23  CD1       78.8790  132.3960   70.5040 C.ar   14  TYR14      -0.0009
     24  CD2       78.9720  131.2840   72.6530 C.ar   14  TYR14      -0.0009
     25  CE1       79.7220  131.4390   69.9490 C.ar   14  TYR14       0.0417
     26  CE2       79.8400  130.3030   72.0980 C.ar   14  TYR14       0.0417
     27  CZ        80.1980  130.4040   70.7420 C.ar   14  TYR14       0.1957
     28  OH        81.0250  129.4910   70.1580 O.3    14  TYR14      -0.2866
     29  N         76.8410  136.1440   74.0940 N.am   15  VAL15      -0.1977
     30  CA        75.9530  137.2780   74.2950 C.3    15  VAL15       0.1596
     31  C         76.7670  138.4750   74.7460 C.2    15  VAL15       0.2287
     32  O         76.7920  139.4860   74.0570 O.2    15  VAL15      -0.2864
     33  CB        74.7950  136.9750   75.2970 C.3    15  VAL15       0.0276
     34  CG1       74.0180  138.2340   75.6090 C.3    15  VAL15       0.0022
     35  CG2       73.8480  135.9060   74.7240 C.3    15  VAL15       0.0022
     36  N         85.1350  138.4600   83.1790 N.3    36  ASP36      -0.1225
     37  CA        84.8400  137.0450   83.2930 C.3    36  ASP36       0.1805
     38  C         85.7580  136.3510   84.2860 C.2    36  ASP36       0.2598
     39  O         86.8810  136.7900   84.5250 O.2    36  ASP36      -0.2718
     40  CB        85.0230  136.4060   81.9320 C.3    36  ASP36       0.1424
     41  CG        84.1080  135.2420   81.7140 C.2    36  ASP36       0.3668
     42  OD1       84.2820  134.2080   82.3900 O.co2  36  ASP36      -0.2456
     43  OD2       83.2230  135.3460   80.8330 O.co2  36  ASP36      -0.2456
     44  N         85.2740  135.2520   84.8540 N.am   37  VAL37      -0.1966
     45  CA        86.1210  134.3900   85.7030 C.3    37  VAL37       0.1727
     46  C         87.1620  133.6190   84.8840 C.2    37  VAL37       0.2616
     47  O         88.2420  133.3010   85.3940 O.2    37  VAL37      -0.2715
     48  CB        85.3060  133.4120   86.6190 C.3    37  VAL37       0.0290
     49  CG1       84.4290  134.2070   87.5690 C.3    37  VAL37       0.0023
     50  CG2       84.4510  132.4480   85.8070 C.3    37  VAL37       0.0023
     51  N         86.8270  133.3500   83.6190 N.am   38  ASN38      -0.1972
     52  CA        87.6660  132.6000   82.6940 C.3    38  ASN38       0.1688
     53  C         88.7800  133.4600   82.1180 C.2    38  ASN38       0.2292
     54  O         88.5280  134.3310   81.2900 O.2    38  ASN38      -0.2864
     55  CB        86.7970  132.0320   81.5630 C.3    38  ASN38       0.1181
     56  CG        87.4350  130.8330   80.8700 C.2    38  ASN38       0.2629
     57  OD1       88.5170  130.3850   81.2310 O.2    38  ASN38      -0.2716
     58  ND2       86.7570  130.3120   79.8740 N.am   38  ASN38      -0.0877
     59  N         89.6450  132.7690   78.2940 N.3    41  ARG41      -0.1245
     60  CA        88.6530  133.3790   77.4240 C.3    41  ARG41       0.1563
     61  C         88.8860  134.8780   77.3190 C.2    41  ARG41       0.2260
     62  O         88.8260  135.4560   76.2360 O.2    41  ARG41      -0.2867
     63  CB        87.2660  133.1240   77.9780 C.3    41  ARG41       0.0307
     64  CG        86.1380  133.2910   76.9720 C.3    41  ARG41       0.0489
     65  CD        84.8370  132.7680   77.5810 C.3    41  ARG41       0.2205
     66  NE        83.7700  132.5200   76.6110 N.pl3  41  ARG41      -0.0865
     67  CZ        83.6650  131.4350   75.8380 C.cat  41  ARG41       0.5346
     68  NH1       82.6450  131.3030   74.9870 N.pl3  41  ARG41       0.1354
     69  NH2       84.5830  130.4880   75.9020 N.pl3  41  ARG41       0.1354
     70  N         86.8590  141.6180   87.6260 N.3    75  ILE75      -0.1245
     71  CA        85.4380  141.8760   87.8250 C.3    75  ILE75       0.1561
     72  C         85.1950  142.9770   88.8460 C.2    75  ILE75       0.2260
     73  O         84.4150  143.8980   88.6010 O.2    75  ILE75      -0.2867
     74  CB        84.7160  140.6000   88.3130 C.3    75  ILE75       0.0252
     75  CG1       84.9450  139.4400   87.3250 C.3    75  ILE75       0.0019
     76  CG2       83.2360  140.8740   88.5060 C.3    75  ILE75       0.0019
     77  CD1       84.2980  138.1120   87.7090 C.3    75  ILE75       0.0001
     78  N         75.2380  138.7600   82.0970 N.3    88  SER88      -0.1202
     79  CA        75.1370  138.0340   80.8680 C.3    88  SER88       0.2020
     80  C         75.8890  136.7080   81.0110 C.2    88  SER88       0.2619
     81  O         76.6900  136.3500   80.1700 O.2    88  SER88      -0.2717
     82  CB        75.7130  138.9000   79.7490 C.3    88  SER88       0.2103
     83  OG        75.1260  138.5580   78.5180 O.3    88  SER88      -0.2182
     84  N         75.6230  135.9920   82.0940 N.am   89  VAL89      -0.1965
     85  CA        76.2490  134.6900   82.3340 C.3    89  VAL89       0.1727
     86  C         75.3510  133.5560   81.8030 C.2    89  VAL89       0.2616
     87  O         74.2360  133.8040   81.3090 O.2    89  VAL89      -0.2715
     88  CB        76.5850  134.4670   83.8360 C.3    89  VAL89       0.0290
     89  CG1       77.5820  135.4760   84.3310 C.3    89  VAL89       0.0023
     90  CG2       75.3340  134.5350   84.6790 C.3    89  VAL89       0.0023
     91  N         75.8430  132.3190   81.8720 N.am   90  ASN90      -0.1958
     92  CA        75.0490  131.1690   81.3870 C.3    90  ASN90       0.1819
     93  C         74.3300  130.4540   82.5520 C.2    90  ASN90       0.2621
     94  O         74.7730  130.4860   83.7290 O.2    90  ASN90      -0.2715
     95  CB        75.8740  130.1800   80.5140 C.3    90  ASN90       0.1195
     96  CG        76.8700  129.3260   81.3410 C.2    90  ASN90       0.2630
     97  OD1       77.6140  129.8330   82.2110 O.2    90  ASN90      -0.2716
     98  ND2       76.8710  128.0150   81.0760 N.am   90  ASN90      -0.0877
     99  N         73.1950  129.8470   82.2130 N.am   91  THR91      -0.1951
    100  CA        72.3750  129.1480   83.1980 C.3    91  THR91       0.1897
    101  C         72.2430  127.6900   82.7270 C.2    91  THR91       0.2313
    102  O         71.3860  127.3900   81.8720 O.2    91  THR91      -0.2863
    103  CB        70.9680  129.8230   83.4020 C.3    91  THR91       0.1794
    104  OG1       70.3560  130.1060   82.1220 O.3    91  THR91      -0.2208
    105  CG2       71.0880  131.1210   84.2480 C.3    91  THR91       0.0378
    106  N         74.7440  130.8700   89.2520 N.3   108  TYR108     -0.1241
    107  CA        75.6300  131.8710   88.6270 C.3   108  TYR108      0.1605
    108  C         75.0680  133.2950   88.6810 C.2   108  TYR108      0.2264
    109  O         75.7370  134.1970   89.1740 O.2   108  TYR108     -0.2867
    110  CB        75.9870  131.5200   87.1940 C.3   108  TYR108      0.0534
    111  CG        76.8920  130.3130   87.0840 C.ar  108  TYR108     -0.0201
    112  CD1       77.9690  130.1360   87.9740 C.ar  108  TYR108     -0.0009
    113  CD2       76.6860  129.3410   86.0610 C.ar  108  TYR108     -0.0009
    114  CE1       78.8210  129.0080   87.8730 C.ar  108  TYR108      0.0417
    115  CE2       77.5260  128.2060   85.9390 C.ar  108  TYR108      0.0417
    116  CZ        78.5890  128.0450   86.8610 C.ar  108  TYR108      0.1957
    117  OH        79.4210  126.9470   86.7570 O.3   108  TYR108     -0.2866
    118  N         74.9820  134.2700   92.4050 N.3   111  ALA111     -0.1231
    119  CA        76.2920  134.6170   92.9370 C.3   111  ALA111      0.1694
    120  C         76.7960  135.9210   92.3160 C.2   111  ALA111      0.2592
    121  O         77.5930  136.6220   92.9370 O.2   111  ALA111     -0.2718
    122  CB        77.3000  133.4680   92.7360 C.3   111  ALA111      0.0304
    123  N         76.3430  136.2580   91.1100 N.am  112  CYS112     -0.1970
    124  CA        76.7160  137.5390   90.5320 C.3   112  CYS112      0.1712
    125  C         76.0750  138.6210   91.3630 C.2   112  CYS112      0.2296
    126  O         76.7300  139.5890   91.7340 O.2   112  CYS112     -0.2864
    127  CB        76.2940  137.6830   89.0690 C.3   112  CYS112      0.0983
    128  SG        77.5220  137.1150   87.8440 S.3   112  CYS112     -0.0798
    129  N         70.0020  138.0210   78.9630 N.3   130  SER130     -0.1202
    130  CA        70.2590  136.6600   78.5310 C.3   130  SER130      0.2020
    131  C         69.4060  136.2980   77.3050 C.2   130  SER130      0.2619
    132  O         68.6360  137.1250   76.7690 O.2   130  SER130     -0.2717
    133  CB        69.9980  135.6880   79.6770 C.3   130  SER130      0.2103
    134  OG        68.6400  135.7640   80.0950 O.3   130  SER130     -0.2182
    135  N         69.5740  135.0610   76.8540 N.am  131  THR131     -0.1938
    136  CA        68.8350  134.4870   75.7440 C.3   131  THR131      0.2028
    137  C         67.5250  133.7650   76.2050 C.2   131  THR131      0.2642
    138  O         66.4450  133.9130   75.5860 O.2   131  THR131     -0.2714
    139  CB        69.8010  133.6220   74.9890 C.3   131  THR131      0.1808
    140  OG1       70.1450  134.2960   73.7740 O.3   131  THR131     -0.2208
    141  CG2       69.2470  132.2560   74.7140 C.3   131  THR131      0.0379
    142  N         67.6260  133.0400   77.3250 N.am  132  VAL132     -0.1977
    143  CA        66.4980  132.4280   78.0110 C.3   132  VAL132      0.1596
    144  C         66.5370  132.9000   79.4890 C.2   132  VAL132      0.2287
    145  O         67.2750  132.3510   80.3480 O.2   132  VAL132     -0.2864
    146  CB        66.5720  130.8830   77.8870 C.3   132  VAL132      0.0276
    147  CG1       65.4430  130.1640   78.6800 C.3   132  VAL132      0.0022
    148  CG2       66.5990  130.4660   76.3860 C.3   132  VAL132      0.0022
    149  N         73.1550  133.4920   66.5780 N.3   165  GLU165     -0.1245
    150  CA        74.5990  133.2760   66.3500 C.3   165  GLU165      0.1567
    151  C         74.8280  133.0210   64.8770 C.2   165  GLU165      0.2260
    152  O         73.9890  132.3950   64.2210 O.2   165  GLU165     -0.2867
    153  CB        75.1570  132.1340   67.2100 C.3   165  GLU165      0.0388
    154  CG        74.9540  132.3700   68.7340 C.3   165  GLU165      0.1160
    155  CD        75.5790  131.3220   69.6180 C.2   165  GLU165      0.3649
    156  OE1       76.3260  130.4720   69.1350 O.co2 165  GLU165     -0.2457
    157  OE2       75.3450  131.3530   70.8210 O.co2 165  GLU165     -0.2457
    158  N         71.8570  126.6740   72.2980 N.3   275  SER275     -0.1217
    159  CA        71.6830  126.6680   73.7290 C.3   275  SER275      0.1889
    160  C         70.4830  127.4870   74.1230 C.2   275  SER275      0.2288
    161  O         70.4280  127.9610   75.2420 O.2   275  SER275     -0.2866
    162  CB        72.9140  127.2580   74.4030 C.3   275  SER275      0.2089
    163  OG        73.0350  128.6320   74.0740 O.3   275  SER275     -0.2183
    164  N         66.4050  124.6350   75.8460 N.3   279  LYS279     -0.1245
    165  CA        66.3820  125.1810   77.2080 C.3   279  LYS279      0.1561
    166  C         65.1290  125.9980   77.4600 C.2   279  LYS279      0.2260
    167  O         64.5400  125.9320   78.5440 O.2   279  LYS279     -0.2867
    168  CB        67.5970  126.0820   77.4160 C.3   279  LYS279      0.0271
    169  CG        67.8590  126.5140   78.8640 C.3   279  LYS279      0.0035
    170  CD        69.2640  127.1550   79.0040 C.3   279  LYS279      0.0206
    171  CE        70.3960  126.0700   79.0360 C.3   279  LYS279      0.1093
    172  NZ        71.7130  126.5760   78.5020 N.3   279  LYS279     -0.1314
    173  N         76.7050  123.6430   71.2820 N.3   346  ARG346     -0.1245
    174  CA        75.7190  123.3630   72.3160 C.3   346  ARG346      0.1563
    175  C         74.4430  122.8450   71.6810 C.2   346  ARG346      0.2260
    176  O         73.8920  123.4810   70.7640 O.2   346  ARG346     -0.2867
    177  CB        75.4420  124.6070   73.1580 C.3   346  ARG346      0.0307
    178  CG        76.5490  124.9710   74.1380 C.3   346  ARG346      0.0489
    179  CD        76.2380  126.2530   74.8700 C.3   346  ARG346      0.2205
    180  NE        76.3870  127.4370   74.0400 N.pl3 346  ARG346     -0.0865
    181  CZ        76.3020  128.6960   74.4950 C.cat 346  ARG346      0.5346
    182  NH1       76.0490  128.9220   75.7620 N.pl3 346  ARG346      0.1354
    183  NH2       76.4510  129.7410   73.6840 N.pl3 346  ARG346      0.1354
@<TRIPOS>BOND
     1   152   151    2
     2   151   150    1
     3   150   149    1
     4   150   153    1
     5   153   154    1
     6   154   155    1
     7   156   155   ar
     8   155   157   ar
     9    25    23   ar
    10    25    27   ar
    11    28    27    1
    12    23    22   ar
    13    27    26   ar
    14   176   175    2
    15   173   174    1
    16   175   174    1
    17    20    19    2
    18    22    21    1
    19    22    24   ar
    20    26    24   ar
    21   158   159    1
    22   174   177    1
    23    21    18    1
    24    18    19    1
    25    18    17    1
    26    19    29   am
    27   177   178    1
    28   183   181    1
    29   159   160    1
    30   159   162    1
    31   140   139    1
    32   180   181    2
    33   180   179    1
    34    32    31    2
    35   163   162    1
    36    29    30    1
    37    16    15    2
    38   160   161    2
    39   178   179    1
    40    17    15   am
    41    30    31    1
    42    30    33    1
    43   181   182    1
    44    15    14    1
    45   141   139    1
    46    35    33    1
    47    68    67    1
    48   139   136    1
    49    33    34    1
    50   138   137    2
    51   136   137    1
    52   136   135    1
    53    67    69    1
    54    67    66    2
    55   164   165    1
    56    14    13    1
    57   137   142   am
    58    62    61    2
    59   148   146    1
    60    66    65    1
    61   132   131    2
    62   135   131   am
    63    64    65    1
    64    64    63    1
    65   165   168    1
    66   165   166    1
    67   131   130    1
    68    61    60    1
    69   142   143    1
    70   168   169    1
    71    60    63    1
    72    60    59    1
    73   166   167    2
    74   146   143    1
    75   146   147    1
    76   143   144    1
    77   172   171    1
    78    83    82    1
    79   130   129    1
    80   130   133    1
    81   169   170    1
    82   170   171    1
    83    12    11    2
    84   144   145    2
    85   133   134    1
    86    82    79    1
    87    11    10    1
    88    58    56   am
    89    81    80    2
    90    95    96    1
    91    95    92    1
    92    43    41   ar
    93    79    80    1
    94    79    78    1
    95    56    57    2
    96    56    55    1
    97    80    84   am
    98    98    96   am
    99    10     9    1
   100    54    53    2
   101    87    86    2
   102    96    97    2
   103    92    91    1
   104    92    93    1
   105    55    52    1
   106    41    40    1
   107    41    42   ar
   108    86    91   am
   109    86    85    1
   110   102   101    2
   111    40    37    1
   112    84    85    1
   113    53    52    1
   114   104   103    1
   115     9     3   am
   116    99    93   am
   117    99   100    1
   118    85    88    1
   119     4     3    2
   120    93    94    2
   121    52    51    1
   122     3     2    1
   123   101   100    1
   124     1     2    1
   125    36    37    1
   126   100   103    1
   127    37    38    1
   128   103   105    1
   129    51    46   am
   130     2     5    1
   131    88    89    1
   132    88    90    1
   133    38    39    2
   134    38    44   am
   135    44    45    1
   136    46    47    2
   137    46    45    1
   138     5     7    1
   139     5     6    1
   140    45    48    1
   141    50    48    1
   142   115   113   ar
   143   115   116   ar
   144     6     8    1
   145   113   111   ar
   146    48    49    1
   147   117   116    1
   148   116   114   ar
   149   111   110    1
   150   111   112   ar
   151   110   107    1
   152    75    77    1
   153    75    74    1
   154    70    71    1
   155    71    74    1
   156    71    72    1
   157   128   127    1
   158   114   112   ar
   159    74    76    1
   160    73    72    2
   161   107   108    1
   162   107   106    1
   163   108   109    2
   164   127   124    1
   165   124   123    1
   166   124   125    1
   167   123   120   am
   168   125   126    2
   169   120   119    1
   170   120   121    2
   171   118   119    1
   172   122   119    1
