@<TRIPOS>MOLECULE
tmp/3tdlA04.pdb
 159 147 0 0 0
SMALL
GASTEIGER

@<TRIPOS>ATOM
      1  N         24.1860  -12.7290    7.2890 N.3   204  PHE204     -0.1241
      2  CA        23.4330  -12.0930    6.2180 C.3   204  PHE204      0.1605
      3  C         24.1620  -11.9180    4.9020 C.2   204  PHE204      0.2264
      4  O         23.5300  -11.7390    3.8570 O.2   204  PHE204     -0.2867
      5  CB        22.8990  -10.7620    6.7210 C.3   204  PHE204      0.0534
      6  CG        21.8800  -10.9210    7.7790 C.ar  204  PHE204     -0.0203
      7  CD1       21.9030  -10.1350    8.9140 C.ar  204  PHE204     -0.0042
      8  CD2       20.9010  -11.8970    7.6480 C.ar  204  PHE204     -0.0042
      9  CE1       20.9520  -10.3150    9.9160 C.ar  204  PHE204     -0.0003
     10  CE2       19.9500  -12.0930    8.6370 C.ar  204  PHE204     -0.0003
     11  CZ        19.9700  -11.2960    9.7770 C.ar  204  PHE204     -0.0000
     12  N         27.1080   -9.3800    0.5820 N.3   207  ARG207     -0.1231
     13  CA        26.1830   -8.6960   -0.2970 C.3   207  ARG207      0.1694
     14  C         25.3160   -7.7920    0.5490 C.2   207  ARG207      0.2591
     15  O         25.3650   -6.5600    0.4310 O.2   207  ARG207     -0.2718
     16  CB        25.2990   -9.6920   -1.0280 C.3   207  ARG207      0.0321
     17  CG        24.2520   -9.0010   -1.8600 C.3   207  ARG207      0.0489
     18  CD        23.7200   -9.8860   -2.9560 C.3   207  ARG207      0.2205
     19  NE        23.1880   -9.0500   -4.0170 N.pl3 207  ARG207     -0.0865
     20  CZ        21.9040   -8.7720   -4.2140 C.cat 207  ARG207      0.5346
     21  NH1       20.9630   -9.2670   -3.4230 N.pl3 207  ARG207      0.1354
     22  NH2       21.5650   -7.9790   -5.2220 N.pl3 207  ARG207      0.1354
     23  N         24.5260   -8.4250    1.4080 N.am  208  ALA208     -0.1980
     24  CA        23.6330   -7.7220    2.3140 C.3   208  ALA208      0.1597
     25  C         24.3230   -6.5320    2.9730 C.2   208  ALA208      0.2287
     26  O         23.7080   -5.4740    3.1460 O.2   208  ALA208     -0.2864
     27  CB        23.1320   -8.6730    3.3850 C.3   208  ALA208      0.0319
     28  N         27.1410   -4.9250    1.8700 N.3   210  LYS210     -0.1231
     29  CA        27.4390   -3.9350    0.8530 C.3   210  LYS210      0.1693
     30  C         26.1670   -3.1680    0.5280 C.2   210  LYS210      0.2591
     31  O         26.2010   -1.9620    0.3290 O.2   210  LYS210     -0.2718
     32  CB        27.9650   -4.6200   -0.4070 C.3   210  LYS210      0.0285
     33  CG        29.4160   -5.0410   -0.3320 C.3   210  LYS210      0.0035
     34  CD        29.8570   -5.5520   -1.6820 C.3   210  LYS210      0.0206
     35  CE        31.3600   -5.5970   -1.7820 C.3   210  LYS210      0.1093
     36  NZ        31.7580   -5.3030   -3.1940 N.3   210  LYS210     -0.1314
     37  N         25.0390   -3.8630    0.4720 N.am  211  ALA211     -0.1980
     38  CA        23.7850   -3.1890    0.1570 C.3   211  ALA211      0.1597
     39  C         23.4870   -2.2060    1.2720 C.2   211  ALA211      0.2287
     40  O         23.3060   -1.0010    1.0510 O.2   211  ALA211     -0.2864
     41  CB        22.6740   -4.1800    0.0400 C.3   211  ALA211      0.0319
     42  N         25.8760    0.6400    0.9900 N.3   214  VAL214     -0.1245
     43  CA        25.6070    1.5540   -0.0920 C.3   214  VAL214      0.1561
     44  C         24.4660    2.4930    0.2970 C.2   214  VAL214      0.2260
     45  O         24.5980    3.7250    0.2000 O.2   214  VAL214     -0.2867
     46  CB        25.3100    0.7800   -1.3790 C.3   214  VAL214      0.0252
     47  CG1       24.2730    1.4810   -2.2030 C.3   214  VAL214      0.0019
     48  CG2       26.5760    0.6860   -2.1920 C.3   214  VAL214      0.0019
     49  N         27.7000    7.6690   -7.4300 N.3   226  PHE226     -0.1241
     50  CA        27.6710    6.2460   -7.1470 C.3   226  PHE226      0.1605
     51  C         29.0230    5.5410   -7.1770 C.2   226  PHE226      0.2264
     52  O         29.2860    4.6860   -6.3400 O.2   226  PHE226     -0.2867
     53  CB        26.7090    5.5370   -8.0880 C.3   226  PHE226      0.0534
     54  CG        26.6700    4.0550   -7.8910 C.ar  226  PHE226     -0.0203
     55  CD1       27.2160    3.2090   -8.8310 C.ar  226  PHE226     -0.0042
     56  CD2       26.0740    3.5050   -6.7660 C.ar  226  PHE226     -0.0042
     57  CE1       27.1690    1.8380   -8.6590 C.ar  226  PHE226     -0.0003
     58  CE2       26.0190    2.1280   -6.5810 C.ar  226  PHE226     -0.0003
     59  CZ        26.5670    1.2940   -7.5290 C.ar  226  PHE226     -0.0000
     60  N         30.2910    3.6090   -4.0450 N.3   230  SER230     -0.1217
     61  CA        30.7100    2.2350   -4.1460 C.3   230  SER230      0.1889
     62  C         32.1540    2.0650   -3.7390 C.2   230  SER230      0.2288
     63  O         32.4960    1.0830   -3.0720 O.2   230  SER230     -0.2866
     64  CB        30.4910    1.6860   -5.5420 C.3   230  SER230      0.2089
     65  OG        30.6070    0.2750   -5.4920 O.3   230  SER230     -0.2183
     66  N         32.0540    1.7680   -0.1730 N.3   233  VAL233     -0.1245
     67  CA        31.4800    0.5610    0.4180 C.3   233  VAL233      0.1561
     68  C         32.4400   -0.6080    0.2470 C.2   233  VAL233      0.2260
     69  O         32.5400   -1.4690    1.1240 O.2   233  VAL233     -0.2867
     70  CB        30.0480    0.2270   -0.1410 C.3   233  VAL233      0.0252
     71  CG1       29.9390    0.6270   -1.5860 C.3   233  VAL233      0.0019
     72  CG2       29.7450   -1.2600    0.0010 C.3   233  VAL233      0.0019
     73  N         23.8630   -6.5830   -9.5720 N.3   322  ASP322     -0.1225
     74  CA        24.1720   -5.9540   -8.3180 C.3   322  ASP322      0.1805
     75  C         24.6780   -4.5390   -8.3930 C.2   322  ASP322      0.2597
     76  O         24.5450   -3.8090   -7.4360 O.2   322  ASP322     -0.2718
     77  CB        25.0960   -6.8450   -7.5170 C.3   322  ASP322      0.1424
     78  CG        24.3250   -7.7710   -6.6090 C.2   322  ASP322      0.3668
     79  OD1       23.4550   -8.5330   -7.1040 O.co2 322  ASP322     -0.2456
     80  OD2       24.5780   -7.7130   -5.3920 O.co2 322  ASP322     -0.2456
     81  N         25.2570   -4.1380   -9.5180 N.am  323  VAL323     -0.1980
     82  CA        25.7000   -2.7530   -9.6550 C.3   323  VAL323      0.1595
     83  C         24.4270   -1.9570   -9.8350 C.2   323  VAL323      0.2287
     84  O         24.1780   -0.9860   -9.1330 O.2   323  VAL323     -0.2864
     85  CB        26.5580   -2.5180  -10.9060 C.3   323  VAL323      0.0276
     86  CG1       26.9610   -1.0590  -10.9820 C.3   323  VAL323      0.0022
     87  CG2       27.7820   -3.4070  -10.8710 C.3   323  VAL323      0.0022
     88  N         21.3060   -2.6750   -9.0930 N.3   325  LEU325     -0.1231
     89  CA        20.5480   -2.6600   -7.8570 C.3   325  LEU325      0.1693
     90  C         21.1600   -1.6860   -6.8570 C.2   325  LEU325      0.2592
     91  O         20.4330   -0.9830   -6.1410 O.2   325  LEU325     -0.2718
     92  CB        20.4990   -4.0560   -7.2800 C.3   325  LEU325      0.0284
     93  CG        19.7310   -4.9420   -8.2410 C.3   325  LEU325      0.0019
     94  CD1       19.8610   -6.3950   -7.8430 C.3   325  LEU325      0.0001
     95  CD2       18.2850   -4.4830   -8.2780 C.3   325  LEU325      0.0001
     96  N         22.4940   -1.6450   -6.8270 N.am  326  GLY326     -0.1957
     97  CA        23.1840   -0.7220   -5.9520 C.3   326  GLY326      0.1869
     98  C         22.9200    0.7120   -6.3930 C.2   326  GLY326      0.2309
     99  O         22.7990    1.6260   -5.5660 O.2   326  GLY326     -0.2863
    100  N         19.5460    1.4980   -5.2430 N.3   329  LEU329     -0.1245
    101  CA        19.7280    1.7440   -3.8300 C.3   329  LEU329      0.1561
    102  C         20.4270    3.0710   -3.6470 C.2   329  LEU329      0.2260
    103  O         20.0140    3.8870   -2.8490 O.2   329  LEU329     -0.2867
    104  CB        20.5500    0.6290   -3.2170 C.3   329  LEU329      0.0270
    105  CG        20.5150    0.5810   -1.7020 C.3   329  LEU329      0.0019
    106  CD1       19.1020    0.3240   -1.2120 C.3   329  LEU329      0.0001
    107  CD2       21.4280   -0.5300   -1.2610 C.3   329  LEU329      0.0001
    108  N         16.7920   -1.1120    1.4480 N.3   345  LEU345     -0.1245
    109  CA        17.0830   -2.4930    1.0480 C.3   345  LEU345      0.1561
    110  C         15.8070   -3.2210    0.6780 C.2   345  LEU345      0.2260
    111  O         15.7580   -3.9010   -0.3300 O.2   345  LEU345     -0.2867
    112  CB        17.8080   -3.2160    2.1610 C.3   345  LEU345      0.0270
    113  CG        19.1450   -2.5930    2.5600 C.3   345  LEU345      0.0019
    114  CD1       19.8410   -3.5130    3.5460 C.3   345  LEU345      0.0001
    115  CD2       20.0060   -2.3930    1.3260 C.3   345  LEU345      0.0001
    116  N         14.8850   -1.8370   -2.6150 N.3   348  ALA348     -0.1231
    117  CA        15.8130   -2.3750   -3.5940 C.3   348  ALA348      0.1694
    118  C         15.5500   -3.8620   -3.8220 C.2   348  ALA348      0.2591
    119  O         15.5480   -4.3220   -4.9630 O.2   348  ALA348     -0.2718
    120  CB        17.2370   -2.1760   -3.1100 C.3   348  ALA348      0.0304
    121  N         15.3400   -4.6130   -2.7370 N.am  349  LYS349     -0.1980
    122  CA        15.0900   -6.0450   -2.8310 C.3   349  LYS349      0.1596
    123  C         13.8250   -6.2160   -3.6450 C.2   349  LYS349      0.2287
    124  O         13.6770   -7.1850   -4.3990 O.2   349  LYS349     -0.2864
    125  CB        14.9000   -6.6590   -1.4390 C.3   349  LYS349      0.0298
    126  CG        15.1210   -8.1710   -1.3720 C.3   349  LYS349      0.0038
    127  CD        13.8390   -8.9740   -1.4450 C.3   349  LYS349      0.0206
    128  CE        14.0460  -10.2710   -2.2180 C.3   349  LYS349      0.1093
    129  NZ        14.1650  -10.0400   -3.6900 N.3   349  LYS349     -0.1314
    130  N         14.3500   -5.3990   -7.1490 N.3   352  GLU352     -0.1245
    131  CA        15.1970   -6.4930   -7.6340 C.3   352  GLU352      0.1567
    132  C         14.2640   -7.6230   -8.0020 C.2   352  GLU352      0.2260
    133  O         14.4000   -8.2200   -9.0620 O.2   352  GLU352     -0.2867
    134  CB        16.1760   -6.9960   -6.5450 C.3   352  GLU352      0.0388
    135  CG        16.8790   -8.3290   -6.8700 C.3   352  GLU352      0.1160
    136  CD        17.5010   -9.0270   -5.6420 C.2   352  GLU352      0.3649
    137  OE1       18.7490   -8.9940   -5.4740 O.co2 352  GLU352     -0.2457
    138  OE2       16.7340   -9.6170   -4.8390 O.co2 352  GLU352     -0.2457
    139  N         15.6670  -12.2340    7.1160 N.3   478  SER478     -0.1202
    140  CA        16.6350  -11.4410    6.3890 C.3   478  SER478      0.2020
    141  C         16.8410  -10.1030    7.1050 C.2   478  SER478      0.2619
    142  O         16.0180   -9.6710    7.9140 O.2   478  SER478     -0.2717
    143  CB        16.1590  -11.2060    4.9590 C.3   478  SER478      0.2103
    144  OG        15.7610   -9.8610    4.7790 O.3   478  SER478     -0.2182
    145  N         17.9560   -9.4570    6.8000 N.am  479  LEU479     -0.1965
    146  CA        18.3040   -8.1720    7.3900 C.3   479  LEU479      0.1728
    147  C         17.1060   -7.2430    7.3270 C.2   479  LEU479      0.2616
    148  O         16.8310   -6.4870    8.2690 O.2   479  LEU479     -0.2715
    149  CB        19.4850   -7.5640    6.6230 C.3   479  LEU479      0.0311
    150  CG        20.4130   -6.5950    7.3680 C.3   479  LEU479      0.0022
    151  CD1       20.6320   -7.0560    8.8050 C.3   479  LEU479      0.0001
    152  CD2       21.7390   -6.4880    6.6160 C.3   479  LEU479      0.0001
    153  N         16.3850   -7.3470    6.2140 N.am  480  VAL480     -0.1977
    154  CA        15.2100   -6.5430    5.9360 C.3   480  VAL480      0.1596
    155  C         13.8900   -7.1440    6.4150 C.2   480  VAL480      0.2287
    156  O         12.9030   -6.4350    6.5600 O.2   480  VAL480     -0.2864
    157  CB        15.0950   -6.2650    4.4200 C.3   480  VAL480      0.0276
    158  CG1       16.1540   -5.3040    3.9960 C.3   480  VAL480      0.0022
    159  CG2       15.2430   -7.5470    3.6340 C.3   480  VAL480      0.0022
@<TRIPOS>BOND
     1    86    85    1
     2    85    87    1
     3    85    82    1
     4    83    82    1
     5    83    84    2
     6    82    81    1
     7    73    74    1
     8    81    75   am
     9    88    89    1
    10   133   132    2
    11    55    57   ar
    12    55    54   ar
    13    57    59   ar
    14    75    74    1
    15    75    76    2
    16    74    77    1
    17    95    93    1
    18    93    94    1
    19    93    92    1
    20    53    54    1
    21    53    50    1
    22   132   131    1
    23    54    56   ar
    24    89    92    1
    25    89    90    1
    26   131   130    1
    27   131   134    1
    28    59    58   ar
    29    77    78    1
    30    49    50    1
    31    51    50    1
    32    51    52    2
    33    79    78   ar
    34   135   134    1
    35   135   136    1
    36    90    96   am
    37    90    91    2
    38    96    97    1
    39    56    58   ar
    40    78    80   ar
    41    98    97    1
    42    98    99    2
    43   136   137   ar
    44   136   138   ar
    45    64    65    1
    46    64    61    1
    47   100   101    1
    48    22    20    1
    49   119   118    2
    50   124   123    2
    51    20    19    2
    52    20    21    1
    53    61    60    1
    54    61    62    1
    55    19    18    1
    56   101   102    1
    57   101   104    1
    58   118   117    1
    59   118   121   am
    60    62    63    2
    61   129   128    1
    62   102   103    2
    63   123   122    1
    64   117   120    1
    65   117   116    1
    66   104   105    1
    67    36    35    1
    68    18    17    1
    69   122   121    1
    70   122   125    1
    71   128   127    1
    72    47    46    1
    73    48    46    1
    74    17    16    1
    75    35    34    1
    76   105   107    1
    77   105   106    1
    78    34    33    1
    79    71    70    1
    80   127   126    1
    81   125   126    1
    82    46    43    1
    83    16    13    1
    84    32    33    1
    85    32    29    1
    86   111   110    2
    87    13    14    1
    88    13    12    1
    89    66    67    1
    90    70    72    1
    91    70    67    1
    92    43    44    1
    93    43    42    1
    94    41    38    1
    95    38    37    1
    96    38    39    1
    97    45    44    2
    98    68    67    1
    99    68    69    2
   100    31    30    2
   101    15    14    2
   102    37    30   am
   103    30    29    1
   104    14    23   am
   105   110   109    1
   106    29    28    1
   107   109   108    1
   108   109   112    1
   109    40    39    2
   110   115   113    1
   111    23    24    1
   112   112   113    1
   113    24    25    1
   114    24    27    1
   115   113   114    1
   116    25    26    2
   117   159   157    1
   118     4     3    2
   119   158   157    1
   120   157   154    1
   121   144   143    1
   122     3     2    1
   123   143   140    1
   124   154   153    1
   125   154   155    1
   126   153   147   am
   127     2     5    1
   128     2     1    1
   129   140   141    1
   130   140   139    1
   131   155   156    2
   132   152   150    1
   133   149   150    1
   134   149   146    1
   135     5     6    1
   136   145   141   am
   137   145   146    1
   138   141   142    2
   139   147   146    1
   140   147   148    2
   141   150   151    1
   142     8     6   ar
   143     8    10   ar
   144     6     7   ar
   145    10    11   ar
   146     7     9   ar
   147    11     9   ar
