@<TRIPOS>MOLECULE
tmp/3tdlA02.pdb
 152 139 0 0 0
SMALL
GASTEIGER

@<TRIPOS>ATOM
      1  N          4.3750    3.1370   11.2070 N.3   385  LEU385     -0.1245
      2  CA         4.8190    2.6580   12.4900 C.3   385  LEU385      0.1561
      3  C          5.5340    3.7610   13.2240 C.2   385  LEU385      0.2260
      4  O          5.4520    3.8170   14.4450 O.2   385  LEU385     -0.2867
      5  CB         5.6930    1.4140   12.3440 C.3   385  LEU385      0.0270
      6  CG         4.9330    0.0850   12.4760 C.3   385  LEU385      0.0019
      7  CD1        3.7470    0.0220   11.5230 C.3   385  LEU385      0.0001
      8  CD2        5.8890   -1.0610   12.2040 C.3   385  LEU385      0.0001
      9  N          3.6430    5.0040   16.3750 N.3   389  ASN389     -0.1240
     10  CA         4.3410    4.8120   17.6260 C.3   389  ASN389      0.1653
     11  C          4.7800    6.0760   18.3060 C.2   389  ASN389      0.2266
     12  O          4.6820    6.1850   19.5210 O.2   389  ASN389     -0.2867
     13  CB         5.4910    3.8440   17.4380 C.3   389  ASN389      0.1155
     14  CG         5.0150    2.4240   17.3930 C.2   389  ASN389      0.2627
     15  OD1        4.6540    1.9080   16.3410 O.2   389  ASN389     -0.2716
     16  ND2        4.9680    1.7910   18.5460 N.am  389  ASN389     -0.0877
     17  N          1.7680   -5.1700   24.5240 N.3   408  ARG408     -0.1231
     18  CA         1.7030   -5.5040   23.1010 C.3   408  ARG408      0.1694
     19  C          2.5020   -6.7660   22.7860 C.2   408  ARG408      0.2592
     20  O          1.9820   -7.7040   22.2130 O.2   408  ARG408     -0.2718
     21  CB         2.2140   -4.3360   22.2440 C.3   408  ARG408      0.0321
     22  CG         2.6810   -4.7190   20.8450 C.3   408  ARG408      0.0489
     23  CD         2.3760   -3.6400   19.8260 C.3   408  ARG408      0.2205
     24  NE         2.8840   -2.3340   20.2300 N.pl3 408  ARG408     -0.0865
     25  CZ         2.5890   -1.1910   19.6170 C.cat 408  ARG408      0.5346
     26  NH1        3.1030   -0.0530   20.0680 N.pl3 408  ARG408      0.1354
     27  NH2        1.7830   -1.1830   18.5550 N.pl3 408  ARG408      0.1354
     28  N          3.7610   -6.7840   23.1980 N.am  409  TYR409     -0.1976
     29  CA         4.6650   -7.8810   22.9150 C.3   409  TYR409      0.1639
     30  C          4.4650   -9.1420   23.7780 C.2   409  TYR409      0.2290
     31  O          4.5880  -10.2740   23.3010 O.2   409  TYR409     -0.2864
     32  CB         6.0810   -7.3420   23.0170 C.3   409  TYR409      0.0560
     33  CG         6.2770   -6.1440   22.1260 C.ar  409  TYR409     -0.0198
     34  CD1        5.9460   -6.2060   20.7770 C.ar  409  TYR409     -0.0009
     35  CD2        6.7830   -4.9540   22.6270 C.ar  409  TYR409     -0.0009
     36  CE1        6.1120   -5.1110   19.9420 C.ar  409  TYR409      0.0417
     37  CE2        6.9610   -3.8480   21.8010 C.ar  409  TYR409      0.0417
     38  CZ         6.6240   -3.9350   20.4590 C.ar  409  TYR409      0.1957
     39  OH         6.8150   -2.8580   19.6330 O.3   409  TYR409     -0.2866
     40  N          2.0680  -10.6200   22.0750 N.3   412  LYS412     -0.1231
     41  CA         2.5780  -11.1420   20.8200 C.3   412  LYS412      0.1693
     42  C          3.4360  -12.3770   21.0310 C.2   412  LYS412      0.2591
     43  O          3.2760  -13.3710   20.3230 O.2   412  LYS412     -0.2718
     44  CB         3.3600  -10.0580   20.0810 C.3   412  LYS412      0.0285
     45  CG         2.5070   -8.8410   19.7960 C.3   412  LYS412      0.0035
     46  CD         3.0570   -7.9560   18.7100 C.3   412  LYS412      0.0206
     47  CE         1.9340   -7.0760   18.1900 C.3   412  LYS412      0.1093
     48  NZ         2.2160   -6.5600   16.8160 N.3   412  LYS412     -0.1314
     49  N          4.3420  -12.3150   22.0030 N.am  413  VAL413     -0.1980
     50  CA         5.2140  -13.4440   22.3200 C.3   413  VAL413      0.1595
     51  C          5.3010  -13.6890   23.8280 C.2   413  VAL413      0.2287
     52  O          6.2690  -13.2820   24.4740 O.2   413  VAL413     -0.2864
     53  CB         6.6370  -13.2640   21.7160 C.3   413  VAL413      0.0276
     54  CG1        6.5900  -13.5740   20.2380 C.3   413  VAL413      0.0022
     55  CG2        7.1510  -11.8510   21.9390 C.3   413  VAL413      0.0022
     56  N          8.3790  -15.7120   25.6750 N.3   416  VAL416     -0.1245
     57  CA         9.6280  -15.0130   25.9260 C.3   416  VAL416      0.1561
     58  C          9.7280  -14.7450   27.4170 C.2   416  VAL416      0.2260
     59  O          8.7230  -14.5010   28.0640 O.2   416  VAL416     -0.2867
     60  CB         9.6710  -13.6930   25.1360 C.3   416  VAL416      0.0252
     61  CG1       10.8060  -12.8280   25.6180 C.3   416  VAL416      0.0019
     62  CG2        9.8430  -13.9870   23.6570 C.3   416  VAL416      0.0019
     63  N         11.3930   -9.5170   28.0290 N.3   421  LEU421     -0.1245
     64  CA        10.3010   -8.6590   27.5930 C.3   421  LEU421      0.1561
     65  C         10.3670   -7.2820   28.2540 C.2   421  LEU421      0.2260
     66  O         10.0080   -6.2850   27.6360 O.2   421  LEU421     -0.2867
     67  CB         8.9570   -9.3030   27.8830 C.3   421  LEU421      0.0270
     68  CG         8.4990  -10.2750   26.7960 C.3   421  LEU421      0.0019
     69  CD1        7.5620  -11.3110   27.3920 C.3   421  LEU421      0.0001
     70  CD2        7.8490   -9.5150   25.6610 C.3   421  LEU421      0.0001
     71  N         13.7660   -5.4850   26.3550 N.3   424  VAL424     -0.1245
     72  CA        13.4760   -5.1140   24.9660 C.3   424  VAL424      0.1561
     73  C         12.3670   -4.0770   24.8900 C.2   424  VAL424      0.2260
     74  O         12.3720   -3.2240   24.0150 O.2   424  VAL424     -0.2867
     75  CB        13.0720   -6.3490   24.0990 C.3   424  VAL424      0.0252
     76  CG1       13.9450   -7.5540   24.4520 C.3   424  VAL424      0.0019
     77  CG2       11.5970   -6.6610   24.2810 C.3   424  VAL424      0.0019
     78  N         13.1380   -0.5710   23.6940 N.3   428  LEU428     -0.1245
     79  CA        12.2230   -0.1390   22.6390 C.3   428  LEU428      0.1561
     80  C         11.6160    1.2190   22.9710 C.2   428  LEU428      0.2260
     81  O         11.5760    2.1110   22.1300 O.2   428  LEU428     -0.2867
     82  CB        11.1170   -1.1630   22.4550 C.3   428  LEU428      0.0270
     83  CG        11.4850   -2.2650   21.4760 C.3   428  LEU428      0.0019
     84  CD1       10.5190   -3.4390   21.5650 C.3   428  LEU428      0.0001
     85  CD2       11.4530   -1.6490   20.0980 C.3   428  LEU428      0.0001
     86  N         16.6840    0.0500   16.8100 N.3   451  LEU451     -0.1245
     87  CA        15.8640   -1.1160   16.5770 C.3   451  LEU451      0.1561
     88  C         16.6780   -2.3750   16.3320 C.2   451  LEU451      0.2260
     89  O         16.6200   -3.3010   17.1340 O.2   451  LEU451     -0.2867
     90  CB        14.9180   -0.8700   15.4070 C.3   451  LEU451      0.0270
     91  CG        13.4120   -0.9660   15.7120 C.3   451  LEU451      0.0019
     92  CD1       12.9400   -2.4040   15.6100 C.3   451  LEU451      0.0001
     93  CD2       13.1290   -0.4260   17.0800 C.3   451  LEU451      0.0001
     94  N         16.5230   -5.3650   18.6160 N.3   455  LEU455     -0.1245
     95  CA        16.0560   -6.6100   18.0420 C.3   455  LEU455      0.1561
     96  C         17.1610   -7.6250   18.1610 C.2   455  LEU455      0.2260
     97  O         16.9470   -8.7100   18.6860 O.2   455  LEU455     -0.2867
     98  CB        15.6680   -6.4120   16.5790 C.3   455  LEU455      0.0270
     99  CG        14.3680   -5.6200   16.3550 C.3   455  LEU455      0.0019
    100  CD1       13.9140   -5.7640   14.9300 C.3   455  LEU455      0.0001
    101  CD2       13.2850   -6.1060   17.2830 C.3   455  LEU455      0.0001
    102  N         17.7980   -8.7460   21.5460 N.3   458  LEU458     -0.1245
    103  CA        16.6550   -9.6120   21.8070 C.3   458  LEU458      0.1561
    104  C         16.8450  -10.9350   21.1030 C.2   458  LEU458      0.2260
    105  O         16.6800  -11.9990   21.6840 O.2   458  LEU458     -0.2867
    106  CB        15.3720   -8.9310   21.3180 C.3   458  LEU458      0.0270
    107  CG        14.1430   -9.6880   20.7830 C.3   458  LEU458      0.0019
    108  CD1       13.5990  -10.7040   21.7910 C.3   458  LEU458      0.0001
    109  CD2       13.0860   -8.6550   20.4380 C.3   458  LEU458      0.0001
    110  N          9.9370  -15.9650   17.0740 N.3   471  VAL471     -0.1245
    111  CA        10.9940  -15.0040   17.3040 C.3   471  VAL471      0.1561
    112  C         12.2150  -15.5120   16.5560 C.2   471  VAL471      0.2260
    113  O         12.8400  -14.7780   15.7930 O.2   471  VAL471     -0.2867
    114  CB        11.3200  -14.8730   18.8210 C.3   471  VAL471      0.0252
    115  CG1       12.5920  -14.0710   19.0160 C.3   471  VAL471      0.0019
    116  CG2       10.1620  -14.2050   19.5650 C.3   471  VAL471      0.0019
    117  N         12.6830   -6.8490   11.2590 N.3   483  ARG483     -0.1245
    118  CA        11.7410   -6.0120   11.9720 C.3   483  ARG483      0.1563
    119  C         10.3240   -6.2390   11.4800 C.2   483  ARG483      0.2260
    120  O          9.3920   -6.3130   12.2760 O.2   483  ARG483     -0.2867
    121  CB        12.1670   -4.5510   11.8400 C.3   483  ARG483      0.0307
    122  CG        11.3760   -3.5810   12.6570 C.3   483  ARG483      0.0489
    123  CD        10.6080   -2.6960   11.7140 C.3   483  ARG483      0.2205
    124  NE         9.4340   -3.3600   11.1770 N.pl3 483  ARG483     -0.0865
    125  CZ         8.8130   -2.9830   10.0710 C.cat 483  ARG483      0.5346
    126  NH1        7.7530   -3.6340    9.6510 N.pl3 483  ARG483      0.1354
    127  NH2        9.2510   -1.9520    9.3730 N.pl3 483  ARG483      0.1354
    128  N          8.7750   -9.2330   13.0400 N.3   486  PHE486     -0.1227
    129  CA         8.3520   -8.8410   14.3770 C.3   486  PHE486      0.1736
    130  C          7.0360   -8.0860   14.3360 C.2   486  PHE486      0.2596
    131  O          6.0880   -8.4450   15.0260 O.2   486  PHE486     -0.2718
    132  CB         9.3660   -7.9160   15.0080 C.3   486  PHE486      0.0547
    133  CG        10.4950   -8.6130   15.6660 C.ar  486  PHE486     -0.0202
    134  CD1       11.6950   -8.7900   15.0000 C.ar  486  PHE486     -0.0042
    135  CD2       10.3830   -9.0490   16.9740 C.ar  486  PHE486     -0.0042
    136  CE1       12.7710   -9.3820   15.6290 C.ar  486  PHE486     -0.0003
    137  CE2       11.4550   -9.6440   17.6060 C.ar  486  PHE486     -0.0003
    138  CZ        12.6510   -9.8090   16.9320 C.ar  486  PHE486     -0.0000
    139  N          7.0010   -7.0160   13.5410 N.am  487  SER487     -0.1952
    140  CA         5.8110   -6.1870   13.3910 C.3   487  SER487      0.1924
    141  C          4.6560   -6.9910   12.8120 C.2   487  SER487      0.2314
    142  O          3.5380   -6.5060   12.7280 O.2   487  SER487     -0.2863
    143  CB         6.1230   -5.0150   12.4900 C.3   487  SER487      0.2116
    144  OG         7.2620   -4.3520   12.9810 O.3   487  SER487     -0.2180
    145  N          4.2910  -10.1080   14.0610 N.3   489  LEU489     -0.1245
    146  CA         4.0030  -10.9760   15.1970 C.3   489  LEU489      0.1561
    147  C          2.6430  -10.5480   15.6930 C.2   489  LEU489      0.2260
    148  O          2.4180   -9.3830   16.0340 O.2   489  LEU489     -0.2867
    149  CB         5.0480  -10.7990   16.3030 C.3   489  LEU489      0.0270
    150  CG         6.0550  -11.9060   16.6600 C.3   489  LEU489      0.0019
    151  CD1        6.2490  -12.9290   15.5560 C.3   489  LEU489      0.0001
    152  CD2        7.3690  -11.2300   16.9980 C.3   489  LEU489      0.0001
@<TRIPOS>BOND
     1   127   125    1
     2   126   125    1
     3   125   124    2
     4   124   123    1
     5     1     2    1
     6   117   118    1
     7   119   118    1
     8   119   120    2
     9     7     6    1
    10   123   122    1
    11   121   118    1
    12   121   122    1
    13     8     6    1
    14     5     6    1
    15     5     2    1
    16     2     3    1
    17   143   144    1
    18   143   140    1
    19   142   141    2
    20   141   140    1
    21   128   129    1
    22     3     4    2
    23   140   139    1
    24   139   130   am
    25   145   146    1
    26   130   129    1
    27   130   131    2
    28   129   132    1
    29   100    99    1
    30   134   136   ar
    31   134   133   ar
    32   132   133    1
    33   146   147    1
    34   146   149    1
    35    90    91    1
    36    90    87    1
    37   151   150    1
    38    92    91    1
    39   136   138   ar
    40   133   135   ar
    41   147   148    2
    42    91    93    1
    43   113   112    2
    44   149   150    1
    45    88    87    1
    46    88    89    2
    47    15    14    2
    48    99    98    1
    49    99   101    1
    50     9    10    1
    51   112   111    1
    52    87    86    1
    53    98    95    1
    54   150   152    1
    55    48    47    1
    56   138   137   ar
    57   135   137   ar
    58   110   111    1
    59   111   114    1
    60    14    13    1
    61    14    16   am
    62    13    10    1
    63    10    11    1
    64    95    96    1
    65    95    94    1
    66    96    97    2
    67    47    46    1
    68    11    12    2
    69    27    25    1
    70    46    45    1
    71   114   115    1
    72   114   116    1
    73    25    26    1
    74    25    24    2
    75    39    38    1
    76    45    44    1
    77    23    24    1
    78    23    22    1
    79    36    38   ar
    80    36    34   ar
    81    44    41    1
    82    85    83    1
    83    54    53    1
    84    43    42    2
    85   109   107    1
    86    38    37   ar
    87    34    33   ar
    88   107   106    1
    89   107   108    1
    90    41    42    1
    91    41    40    1
    92    22    21    1
    93    42    49   am
    94   104   105    2
    95   104   103    1
    96   106   103    1
    97    83    84    1
    98    83    82    1
    99   102   103    1
   100    53    55    1
   101    53    50    1
   102    37    35   ar
   103    49    50    1
   104    33    35   ar
   105    33    32    1
   106    81    80    2
   107    20    19    2
   108    21    18    1
   109    50    51    1
   110    82    79    1
   111    79    80    1
   112    79    78    1
   113    19    18    1
   114    19    28   am
   115    29    32    1
   116    29    28    1
   117    29    30    1
   118    18    17    1
   119    31    30    2
   120    62    60    1
   121    51    52    2
   122    74    73    2
   123    75    77    1
   124    75    76    1
   125    75    72    1
   126    73    72    1
   127    72    71    1
   128    60    61    1
   129    60    57    1
   130    70    68    1
   131    56    57    1
   132    57    58    1
   133    68    69    1
   134    68    67    1
   135    58    59    2
   136    64    67    1
   137    64    63    1
   138    64    65    1
   139    66    65    2
