@<TRIPOS>MOLECULE
tmp/3tdlA05.pdb
 178 168 0 0 0
SMALL
GASTEIGER

@<TRIPOS>ATOM
      1  N         25.8530   -2.6150   18.6380 N.3   193  LYS193     -0.1245
      2  CA        26.0160   -2.2800   17.2320 C.3   193  LYS193      0.1561
      3  C         27.1990   -3.0050   16.5800 C.2   193  LYS193      0.2260
      4  O         27.0780   -3.4720   15.4500 O.2   193  LYS193     -0.2867
      5  CB        26.1650   -0.7600   17.0780 C.3   193  LYS193      0.0271
      6  CG        26.3040   -0.2680   15.6480 C.3   193  LYS193      0.0035
      7  CD        25.9390    1.1970   15.5660 C.3   193  LYS193      0.0206
      8  CE        24.5290    1.4420   16.1220 C.3   193  LYS193      0.1093
      9  NZ        24.2260    2.8980   16.2960 N.3   193  LYS193     -0.1314
     10  N         27.0640   -5.6100   13.7010 N.3   197  LYS197     -0.1245
     11  CA        27.8060   -5.3540   12.4760 C.3   197  LYS197      0.1561
     12  C         28.7290   -6.5020   12.0650 C.2   197  LYS197      0.2260
     13  O         28.8860   -6.7620   10.8920 O.2   197  LYS197     -0.2867
     14  CB        28.5370   -4.0020   12.5700 C.3   197  LYS197      0.0271
     15  CG        27.7000   -2.8350   12.0200 C.3   197  LYS197      0.0035
     16  CD        26.2180   -3.2190   11.7740 C.3   197  LYS197      0.0206
     17  CE        25.6910   -2.8350   10.3800 C.3   197  LYS197      0.1093
     18  NZ        24.7470   -3.8580    9.7970 N.3   197  LYS197     -0.1314
     19  N         25.5920   -6.7210    3.3430 N.3   209  PHE209     -0.1241
     20  CA        26.3460   -5.6820    4.0100 C.3   209  PHE209      0.1605
     21  C         26.6360   -4.5640    3.0380 C.2   209  PHE209      0.2264
     22  O         26.4380   -3.4070    3.3360 O.2   209  PHE209     -0.2867
     23  CB        27.6650   -6.2220    4.5490 C.3   209  PHE209      0.0534
     24  CG        28.4680   -5.1920    5.2800 C.ar  209  PHE209     -0.0203
     25  CD1       28.4950   -5.1720    6.6630 C.ar  209  PHE209     -0.0042
     26  CD2       29.1520   -4.2010    4.5790 C.ar  209  PHE209     -0.0042
     27  CE1       29.1920   -4.1750    7.3380 C.ar  209  PHE209     -0.0003
     28  CE2       29.8500   -3.1990    5.2380 C.ar  209  PHE209     -0.0003
     29  CZ        29.8720   -3.1840    6.6240 C.ar  209  PHE209     -0.0000
     30  N         23.4510   -2.7320    2.4810 N.3   212  TRP212     -0.1227
     31  CA        23.2100   -1.9140    3.6300 C.3   212  TRP212      0.1737
     32  C         24.1180   -0.7150    3.5480 C.2   212  TRP212      0.2595
     33  O         23.6560    0.4160    3.6350 O.2   212  TRP212     -0.2718
     34  CB        23.5260   -2.6970    4.8790 C.3   212  TRP212      0.0564
     35  CG        23.2960   -1.9060    6.0640 C.ar  212  TRP212      0.0003
     36  CD1       22.0910   -1.6100    6.6340 C.ar  212  TRP212      0.0946
     37  CD2       24.2870   -1.2440    6.8420 C.ar  212  TRP212      0.0152
     38  NE1       22.2700   -0.7950    7.7260 N.ar  212  TRP212     -0.2442
     39  CE2       23.6080   -0.5550    7.8830 C.ar  212  TRP212      0.0810
     40  CE3       25.6850   -1.1670    6.7730 C.ar  212  TRP212      0.0012
     41  CZ2       24.2730    0.1920    8.8390 C.ar  212  TRP212      0.0191
     42  CZ3       26.3510   -0.4230    7.7290 C.ar  212  TRP212      0.0001
     43  CH2       25.6440    0.2510    8.7520 C.ar  212  TRP212      0.0015
     44  N         25.4070   -0.9700    3.3430 N.am  213  ALA213     -0.1980
     45  CA        26.4230    0.0630    3.2790 C.3   213  ALA213      0.1597
     46  C         26.1500    1.1070    2.2000 C.2   213  ALA213      0.2287
     47  O         26.1880    2.3140    2.4510 O.2   213  ALA213     -0.2864
     48  CB        27.7790   -0.5720    3.0630 C.3   213  ALA213      0.0319
     49  N         23.3020    3.2780    3.2710 N.3   216  ARG216     -0.1231
     50  CA        23.7750    4.1820    4.2910 C.3   216  ARG216      0.1694
     51  C         24.6330    5.2730    3.6720 C.2   216  ARG216      0.2591
     52  O         24.3330    6.4670    3.7720 O.2   216  ARG216     -0.2718
     53  CB        24.5860    3.4250    5.3290 C.3   216  ARG216      0.0321
     54  CG        23.7900    3.0400    6.5400 C.3   216  ARG216      0.0489
     55  CD        24.5040    3.3970    7.8380 C.3   216  ARG216      0.2205
     56  NE        23.5220    3.6120    8.9090 N.pl3 216  ARG216     -0.0865
     57  CZ        23.8110    3.9370   10.1650 C.cat 216  ARG216      0.5346
     58  NH1       22.8230    4.1090   11.0320 N.pl3 216  ARG216      0.1354
     59  NH2       25.0700    4.0890   10.5640 N.pl3 216  ARG216      0.1354
     60  N         25.7100    4.8520    3.0260 N.am  217  LEU217     -0.1980
     61  CA        26.6270    5.7800    2.4230 C.3   217  LEU217      0.1596
     62  C         25.9500    6.8360    1.5620 C.2   217  LEU217      0.2287
     63  O         26.3040    8.0080    1.6010 O.2   217  LEU217     -0.2864
     64  CB        27.6140    5.0080    1.5870 C.3   217  LEU217      0.0297
     65  CG        28.8070    4.4780    2.3610 C.3   217  LEU217      0.0022
     66  CD1       29.7690    3.7950    1.3750 C.3   217  LEU217      0.0001
     67  CD2       29.4550    5.6280    3.0880 C.3   217  LEU217      0.0001
     68  N         23.9510    9.2490    3.6720 N.3   220  ARG220     -0.1231
     69  CA        24.8940   10.1330    4.3300 C.3   220  ARG220      0.1694
     70  C         25.6460   11.0280    3.3540 C.2   220  ARG220      0.2592
     71  O         25.9820   12.1580    3.6770 O.2   220  ARG220     -0.2718
     72  CB        25.8550    9.3320    5.2270 C.3   220  ARG220      0.0321
     73  CG        25.3160    9.0440    6.6500 C.3   220  ARG220      0.0489
     74  CD        24.2280    7.9430    6.6530 C.3   220  ARG220      0.2205
     75  NE        23.5520    7.6970    7.9350 N.pl3 220  ARG220     -0.0865
     76  CZ        24.1350    7.7290    9.1350 C.cat 220  ARG220      0.5346
     77  NH1       23.4140    7.4830   10.2220 N.pl3 220  ARG220      0.1354
     78  NH2       25.4320    8.0200    9.2650 N.pl3 220  ARG220      0.1354
     79  N         25.8700   10.5500    2.1400 N.am  221  PHE221     -0.1976
     80  CA        26.5680   11.3490    1.1440 C.3   221  PHE221      0.1639
     81  C         25.7660   11.4880   -0.1490 C.2   221  PHE221      0.2290
     82  O         26.2490   11.1190   -1.2200 O.2   221  PHE221     -0.2864
     83  CB        27.9090   10.7150    0.8120 C.3   221  PHE221      0.0560
     84  CG        28.7800   10.4750    2.0080 C.ar  221  PHE221     -0.0200
     85  CD1       29.4260    9.2570    2.1670 C.ar  221  PHE221     -0.0042
     86  CD2       28.9780   11.4740    2.9580 C.ar  221  PHE221     -0.0042
     87  CE1       30.2460    9.0440    3.2320 C.ar  221  PHE221     -0.0003
     88  CE2       29.7970   11.2640    4.0260 C.ar  221  PHE221     -0.0003
     89  CZ        30.4360   10.0490    4.1680 C.ar  221  PHE221     -0.0000
     90  N         34.9540    0.2570    2.8710 N.3   236  LEU236     -0.1245
     91  CA        34.3070    0.1370    4.1650 C.3   236  LEU236      0.1561
     92  C         34.0560   -1.3240    4.4880 C.2   236  LEU236      0.2260
     93  O         34.2460   -1.7510    5.6220 O.2   236  LEU236     -0.2867
     94  CB        32.9730    0.8710    4.1720 C.3   236  LEU236      0.0270
     95  CG        32.9800    2.3110    4.6790 C.3   236  LEU236      0.0019
     96  CD1       31.7090    2.9770    4.2110 C.3   236  LEU236      0.0001
     97  CD2       33.0710    2.3610    6.1990 C.3   236  LEU236      0.0001
     98  N         37.5090   -2.6450    5.6240 N.3   239  VAL239     -0.1231
     99  CA        37.8390   -2.2230    6.9790 C.3   239  VAL239      0.1692
    100  C         36.9370   -2.9130    7.9750 C.2   239  VAL239      0.2592
    101  O         37.3860   -3.3380    9.0340 O.2   239  VAL239     -0.2718
    102  CB        37.7430   -0.6690    7.1680 C.3   239  VAL239      0.0266
    103  CG1       37.7590    0.0160    5.8190 C.3   239  VAL239      0.0020
    104  CG2       36.5100   -0.2740    7.9700 C.3   239  VAL239      0.0020
    105  N         35.6650   -3.0350    7.6250 N.am  240  HIS240     -0.1976
    106  CA        34.6920   -3.6760    8.4830 C.3   240  HIS240      0.1656
    107  C         35.0580   -5.1220    8.7100 C.2   240  HIS240      0.2291
    108  O         34.9750   -5.6250    9.8410 O.2   240  HIS240     -0.2864
    109  CB        33.3090   -3.6240    7.8470 C.3   240  HIS240      0.0771
    110  CG        32.2860   -4.4160    8.5930 C.ar  240  HIS240      0.0820
    111  ND1       31.5140   -3.8620    9.5860 N.ar  240  HIS240     -0.2267
    112  CD2       31.9600   -5.7350    8.5460 C.ar  240  HIS240      0.1154
    113  CE1       30.7530   -4.8060   10.1160 C.ar  240  HIS240      0.1986
    114  NE2       31.0040   -5.9530    9.5030 N.ar  240  HIS240     -0.2212
    115  N         37.9460   -5.3240   11.1080 N.3   243  CYS243     -0.1235
    116  CA        37.6370   -4.9350   12.4830 C.3   243  CYS243      0.1677
    117  C         36.8420   -6.0190   13.1630 C.2   243  CYS243      0.2270
    118  O         36.8780   -6.1660   14.3770 O.2   243  CYS243     -0.2867
    119  CB        36.8760   -3.6100   12.5040 C.3   243  CYS243      0.0956
    120  SG        37.8670   -2.2390   11.8280 S.3   243  CYS243     -0.0801
    121  N         40.7640    1.8410    9.0070 N.3   255  ARG255     -0.1245
    122  CA        39.8500    2.9480    9.2270 C.3   255  ARG255      0.1563
    123  C         40.5710    4.2850    9.1160 C.2   255  ARG255      0.2260
    124  O         39.9820    5.2970    8.7400 O.2   255  ARG255     -0.2867
    125  CB        39.1940    2.8100   10.5910 C.3   255  ARG255      0.0307
    126  CG        38.5280    1.4690   10.8060 C.3   255  ARG255      0.0489
    127  CD        37.8190    1.4470   12.1200 C.3   255  ARG255      0.2205
    128  NE        37.2950    2.7790   12.4190 N.pl3 255  ARG255     -0.0865
    129  CZ        36.2720    3.0150   13.2310 C.cat 255  ARG255      0.5346
    130  NH1       35.8750    4.2670   13.4530 N.pl3 255  ARG255      0.1354
    131  NH2       35.6410    1.9870   13.8000 N.pl3 255  ARG255      0.1354
    132  N         41.0020    4.7620    5.2060 N.3   258  LEU258     -0.1231
    133  CA        39.7020    5.1840    4.7220 C.3   258  LEU258      0.1693
    134  C         39.4050    6.6350    5.1380 C.2   258  LEU258      0.2591
    135  O         39.0660    7.4760    4.3050 O.2   258  LEU258     -0.2718
    136  CB        38.6460    4.2450    5.2830 C.3   258  LEU258      0.0284
    137  CG        37.2280    4.2930    4.7280 C.3   258  LEU258      0.0019
    138  CD1       37.1930    3.8210    3.2800 C.3   258  LEU258      0.0001
    139  CD2       36.3650    3.4090    5.6010 C.3   258  LEU258      0.0001
    140  N         39.5500    6.9370    6.4150 N.am  259  ALA259     -0.1980
    141  CA        39.2640    8.2820    6.8650 C.3   259  ALA259      0.1597
    142  C         40.1300    9.2880    6.1080 C.2   259  ALA259      0.2287
    143  O         39.6650   10.3690    5.7460 O.2   259  ALA259     -0.2864
    144  CB        39.4960    8.3950    8.3580 C.3   259  ALA259      0.0319
    145  N         38.9110    9.5610    2.6850 N.3   262  ILE262     -0.1245
    146  CA        37.6940   10.3510    2.7460 C.3   262  ILE262      0.1561
    147  C         37.9160   11.8280    3.0320 C.2   262  ILE262      0.2260
    148  O         37.0350   12.6570    2.7960 O.2   262  ILE262     -0.2867
    149  CB        36.7220    9.7480    3.7920 C.3   262  ILE262      0.0252
    150  CG1       36.0830    8.4830    3.2230 C.3   262  ILE262      0.0019
    151  CG2       35.6280   10.7410    4.1890 C.3   262  ILE262      0.0019
    152  CD1       35.0790    7.8240    4.1550 C.3   262  ILE262      0.0001
    153  N         38.0300    8.5900   11.5160 N.3   285  SER285     -0.1217
    154  CA        37.0560    7.6070   11.0550 C.3   285  SER285      0.1889
    155  C         35.8000    7.5930   11.9250 C.2   285  SER285      0.2288
    156  O         34.6900    7.5420   11.4170 O.2   285  SER285     -0.2866
    157  CB        37.6900    6.2180   11.0220 C.3   285  SER285      0.2089
    158  OG        37.6780    5.6310   12.2990 O.3   285  SER285     -0.2183
    159  N         33.8530   10.6700   11.1860 N.3   288  ILE288     -0.1231
    160  CA        33.2690   10.4170    9.8850 C.3   288  ILE288      0.1692
    161  C         32.0640    9.4840    9.9950 C.2   288  ILE288      0.2591
    162  O         30.9630    9.8340    9.5680 O.2   288  ILE288     -0.2718
    163  CB        34.3150    9.8360    8.9410 C.3   288  ILE288      0.0266
    164  CG1       35.4870   10.8200    8.8340 C.3   288  ILE288      0.0019
    165  CG2       33.6880    9.5650    7.5870 C.3   288  ILE288      0.0020
    166  CD1       36.5310   10.4600    7.8140 C.3   288  ILE288      0.0001
    167  N         32.2790    8.3090   10.5820 N.am  289  ALA289     -0.1980
    168  CA        31.2270    7.3100   10.7750 C.3   289  ALA289      0.1597
    169  C         29.9630    7.9620   11.3020 C.2   289  ALA289      0.2287
    170  O         28.8730    7.7390   10.7770 O.2   289  ALA289     -0.2864
    171  CB        31.6930    6.2460   11.7560 C.3   289  ALA289      0.0319
    172  N         29.2460   11.2010   11.2230 N.3   291  VAL291     -0.1245
    173  CA        28.7990   12.3930   10.4890 C.3   291  VAL291      0.1561
    174  C         27.3350   12.3330   10.0280 C.2   291  VAL291      0.2260
    175  O         26.7980   11.2520    9.7380 O.2   291  VAL291     -0.2867
    176  CB        29.7300   12.7000    9.2790 C.3   291  VAL291      0.0252
    177  CG1       29.3690   11.8270    8.0760 C.3   291  VAL291      0.0019
    178  CG2       29.6670   14.1840    8.9470 C.3   291  VAL291      0.0019
@<TRIPOS>BOND
     1    82    81    2
     2    81    80    1
     3    83    80    1
     4    83    84    1
     5    80    79    1
     6    66    65    1
     7    62    63    2
     8    62    61    1
     9    64    65    1
    10    64    61    1
    11    84    85   ar
    12    84    86   ar
    13    79    70   am
    14    85    87   ar
    15    46    47    2
    16    46    45    1
    17    65    67    1
    18    61    60    1
    19    30    31    1
    20   145   146    1
    21   146   147    1
    22   146   149    1
    23   148   147    2
    24    90    91    1
    25    86    88   ar
    26    60    51   am
    27    21    22    2
    28    21    20    1
    29    48    45    1
    30   150   149    1
    31   150   152    1
    32    87    89   ar
    33    49    50    1
    34    45    44    1
    35   138   137    1
    36    44    32   am
    37    19    20    1
    38    70    71    2
    39    70    69    1
    40    32    31    1
    41    32    33    2
    42    31    34    1
    43    68    69    1
    44    51    52    2
    45    51    50    1
    46   149   151    1
    47    20    23    1
    48    88    89   ar
    49    91    94    1
    50    91    92    1
    51    94    95    1
    52    96    95    1
    53    50    53    1
    54   135   134    2
    55    69    72    1
    56    92    93    2
    57    23    24    1
    58    26    28   ar
    59    26    24   ar
    60    95    97    1
    61   133   134    1
    62   133   132    1
    63   133   136    1
    64   137   136    1
    65   137   139    1
    66    34    35    1
    67   134   140   am
    68    72    73    1
    69    28    29   ar
    70    24    25   ar
    71    53    54    1
    72    98    99    1
    73   143   142    2
    74   103   102    1
    75    35    36   ar
    76    35    37   ar
    77   142   141    1
    78   140   141    1
    79    54    55    1
    80    29    27   ar
    81    36    38   ar
    82    73    74    1
    83    74    75    1
    84    25    27   ar
    85    40    37   ar
    86    40    42   ar
    87    37    39   ar
    88   141   144    1
    89    99   102    1
    90    99   100    1
    91   102   104    1
    92   165   163    1
    93   105   100   am
    94   105   106    1
    95    38    39   ar
    96    42    43   ar
    97   166   164    1
    98    55    56    1
    99   109   106    1
   100   109   110    1
   101    39    41   ar
   102    75    76    2
   103   100   101    2
   104   177   176    1
   105   106   107    1
   106   112   110   ar
   107   112   114   ar
   108   110   111   ar
   109   107   108    2
   110   124   123    2
   111    43    41   ar
   112   164   163    1
   113    56    57    2
   114   163   160    1
   115   178   176    1
   116   121   122    1
   117   123   122    1
   118    76    78    1
   119    76    77    1
   120   122   125    1
   121   176   173    1
   122   114   113   ar
   123   162   161    2
   124   111   113   ar
   125   175   174    2
   126    18    17    1
   127   160   161    1
   128   160   159    1
   129   161   167   am
   130   174   173    1
   131    57    59    1
   132    57    58    1
   133    17    16    1
   134   173   172    1
   135   167   168    1
   136   125   126    1
   137   168   169    1
   138   168   171    1
   139   170   169    2
   140   126   127    1
   141    13    12    2
   142   157   154    1
   143   157   158    1
   144   154   153    1
   145   154   155    1
   146   115   116    1
   147   156   155    2
   148    16    15    1
   149   120   119    1
   150    15    14    1
   151    12    11    1
   152   127   128    1
   153   128   129    2
   154    11    14    1
   155    11    10    1
   156   116   119    1
   157   116   117    1
   158   117   118    2
   159   129   130    1
   160   129   131    1
   161     4     3    2
   162     7     6    1
   163     7     8    1
   164     6     5    1
   165     8     9    1
   166     3     2    1
   167     5     2    1
   168     2     1    1
