@<TRIPOS>MOLECULE
tmp/3tdoA02.pdb
 124 120 0 0 0
SMALL
GASTEIGER

@<TRIPOS>ATOM
      1  N         11.6150   15.7510   -9.2210 N.3   113  TRP113     -0.1241
      2  CA        10.2020   15.8330   -8.8370 C.3   113  TRP113      0.1605
      3  C          9.6220   14.4450   -8.5800 C.2   113  TRP113      0.2264
      4  O          8.9660   14.1920   -7.5550 O.2   113  TRP113     -0.2867
      5  CB         9.4020   16.5350   -9.9310 C.3   113  TRP113      0.0550
      6  CG         7.9900   16.8830   -9.5680 C.ar  113  TRP113      0.0003
      7  CD1        7.5190   18.1060   -9.1920 C.ar  113  TRP113      0.0946
      8  CD2        6.8570   15.9970   -9.5750 C.ar  113  TRP113      0.0152
      9  NE1        6.1550   18.0380   -8.9640 N.ar  113  TRP113     -0.2442
     10  CE2        5.7290   16.7550   -9.1890 C.ar  113  TRP113      0.0810
     11  CE3        6.6930   14.6320   -9.8560 C.ar  113  TRP113      0.0012
     12  CZ2        4.4440   16.1910   -9.0720 C.ar  113  TRP113      0.0191
     13  CZ3        5.4130   14.0710   -9.7540 C.ar  113  TRP113      0.0001
     14  CH2        4.3060   14.8530   -9.3630 C.ar  113  TRP113      0.0015
     15  N          8.7350   12.5210   -5.0430 N.3   117  LEU117     -0.1245
     16  CA         7.4570   11.8470   -4.8370 C.3   117  LEU117      0.1561
     17  C          7.6540   10.4080   -4.3360 C.2   117  LEU117      0.2260
     18  O          6.8670    9.9180   -3.5230 O.2   117  LEU117     -0.2867
     19  CB         6.6220   11.8450   -6.1250 C.3   117  LEU117      0.0270
     20  CG         5.4210   10.8960   -6.1480 C.3   117  LEU117      0.0019
     21  CD1        4.3240   11.3700   -5.1860 C.3   117  LEU117      0.0001
     22  CD2        4.8710   10.7710   -7.5570 C.3   117  LEU117      0.0001
     23  N          5.8510    9.0390   -1.0310 N.3   121  LEU121     -0.1245
     24  CA         5.0470    7.8300   -1.0860 C.3   121  LEU121      0.1561
     25  C          5.5110    6.8300   -0.0180 C.2   121  LEU121      0.2260
     26  O          4.6970    6.2860    0.7380 O.2   121  LEU121     -0.2867
     27  CB         5.1400    7.2030   -2.4760 C.3   121  LEU121      0.0270
     28  CG         4.3600    7.8940   -3.5990 C.3   121  LEU121      0.0019
     29  CD1        4.6140    7.1700   -4.9110 C.3   121  LEU121      0.0001
     30  CD2        2.8510    7.9430   -3.3040 C.3   121  LEU121      0.0001
     31  N          3.1730   16.4810   -1.4670 N.3   207  MET207     -0.1245
     32  CA         3.1740   15.0930   -1.9220 C.3   207  MET207      0.1570
     33  C          2.9520   14.2120   -0.7260 C.2   207  MET207      0.2261
     34  O          2.1930   13.2420   -0.8040 O.2   207  MET207     -0.2867
     35  CB         4.5060   14.7420   -2.5670 C.3   207  MET207      0.0387
     36  CG         4.8250   15.5640   -3.7820 C.3   207  MET207      0.0595
     37  SD         6.4770   15.2200   -4.3730 S.3   207  MET207     -0.1393
     38  CE         6.4050   15.9180   -6.0380 C.3   207  MET207      0.0692
     39  N         -0.6770   14.3710    0.5720 N.3   210  TYR210     -0.1227
     40  CA        -1.5800   13.5110   -0.1850 C.3   210  TYR210      0.1736
     41  C         -1.2460   12.0230   -0.0380 C.2   210  TYR210      0.2596
     42  O         -2.1490   11.1900   -0.0460 O.2   210  TYR210     -0.2718
     43  CB        -1.7150   13.9590   -1.6540 C.3   210  TYR210      0.0548
     44  CG        -2.5030   15.2490   -1.7530 C.ar  210  TYR210     -0.0200
     45  CD1       -3.8870   15.2550   -1.5930 C.ar  210  TYR210     -0.0009
     46  CD2       -1.8590   16.4730   -1.9460 C.ar  210  TYR210     -0.0009
     47  CE1       -4.6230   16.4410   -1.6450 C.ar  210  TYR210      0.0417
     48  CE2       -2.5820   17.6610   -2.0090 C.ar  210  TYR210      0.0417
     49  CZ        -3.9580   17.6400   -1.8510 C.ar  210  TYR210      0.1957
     50  OH        -4.6580   18.8190   -1.8950 O.3   210  TYR210     -0.2866
     51  N          0.0290   11.6830    0.1390 N.am  211  SER211     -0.1952
     52  CA         0.3770   10.2720    0.2970 C.3   211  SER211      0.1924
     53  C         -0.2020    9.7300    1.5910 C.2   211  SER211      0.2314
     54  O         -0.7460    8.6310    1.6130 O.2   211  SER211     -0.2863
     55  CB         1.8990   10.0350    0.2710 C.3   211  SER211      0.2116
     56  OG         2.4660   10.5510    1.4410 O.3   211  SER211     -0.2180
     57  N         -4.1150    9.7020    1.2550 N.3   214  LEU214     -0.1231
     58  CA        -4.5520    8.6500    0.3290 C.3   214  LEU214      0.1693
     59  C         -4.2360    7.2000    0.7710 C.2   214  LEU214      0.2592
     60  O         -5.0610    6.2940    0.5850 O.2   214  LEU214     -0.2718
     61  CB        -4.0530    8.9420   -1.0950 C.3   214  LEU214      0.0284
     62  CG        -4.8710   10.0810   -1.7260 C.3   214  LEU214      0.0019
     63  CD1       -4.1030   10.7750   -2.8220 C.3   214  LEU214      0.0001
     64  CD2       -6.3000    9.6030   -2.2290 C.3   214  LEU214      0.0001
     65  N         -3.0650    6.9750    1.3640 N.am  215  PHE215     -0.1962
     66  CA        -2.7410    5.6300    1.8510 C.3   215  PHE215      0.1771
     67  C         -3.5560    5.2550    3.0790 C.2   215  PHE215      0.2620
     68  O         -3.8030    4.0870    3.3180 O.2   215  PHE215     -0.2715
     69  CB        -1.2420    5.4860    2.1620 C.3   215  PHE215      0.0574
     70  CG        -0.4030    5.2220    0.9540 C.ar  215  PHE215     -0.0200
     71  CD1       -0.7200    4.1850    0.0940 C.ar  215  PHE215     -0.0042
     72  CD2        0.6950    6.0170    0.6670 C.ar  215  PHE215     -0.0042
     73  CE1        0.0430    3.9430   -1.0320 C.ar  215  PHE215     -0.0003
     74  CE2        1.4660    5.7790   -0.4520 C.ar  215  PHE215     -0.0003
     75  CZ         1.1350    4.7460   -1.3040 C.ar  215  PHE215     -0.0000
     76  N         -3.9540    6.2400    3.8760 N.am  216  SER216     -0.1936
     77  CA        -4.7430    5.9590    5.0780 C.3   216  SER216      0.2040
     78  C         -6.1820    5.5520    4.7420 C.2   216  SER216      0.2485
     79  O         -6.9010    6.3010    4.0780 O.2   216  SER216     -0.2729
     80  CB        -4.7630    7.1790    5.9920 C.3   216  SER216      0.2129
     81  OG        -5.6000    6.9530    7.1040 O.3   216  SER216     -0.2179
     82  N         -6.6120    4.3660    5.2070 N.am  217  PRO217     -0.2726
     83  CA        -7.9900    3.9290    4.9390 C.3   217  PRO217      0.1402
     84  C         -9.0500    4.7200    5.7210 C.2   217  PRO217      0.2269
     85  O        -10.2210    4.7270    5.3400 O.2   217  PRO217     -0.2865
     86  CB        -7.9850    2.4350    5.3240 C.3   217  PRO217      0.0296
     87  CG        -6.8120    2.2420    6.2240 C.3   217  PRO217      0.0237
     88  CD        -5.9080    3.4740    6.1460 C.3   217  PRO217      0.0939
     89  N         -9.1230   11.8000   -2.8170 N.3   223  THR223     -0.1203
     90  CA        -8.6550   10.9630   -3.9180 C.3   223  THR223      0.1994
     91  C         -7.4550   11.4960   -4.7080 C.2   223  THR223      0.2617
     92  O         -6.9590   12.5810   -4.4410 O.2   223  THR223     -0.2717
     93  CB        -9.7720   10.8760   -5.0060 C.3   223  THR223      0.1784
     94  OG1       -9.9620   12.1720   -5.5940 O.3   223  THR223     -0.2211
     95  CG2      -11.1230   10.3700   -4.4290 C.3   223  THR223      0.0376
     96  N         -7.1640   10.8350   -5.8240 N.am  224  ILE224     -0.1979
     97  CA        -5.8910   11.0100   -6.5200 C.3   224  ILE224      0.1595
     98  C         -5.9510   12.2040   -7.4700 C.2   224  ILE224      0.2287
     99  O         -4.9690   12.9340   -7.6250 O.2   224  ILE224     -0.2864
    100  CB        -5.4500    9.7250   -7.2770 C.3   224  ILE224      0.0276
    101  CG1       -4.7310    8.7490   -6.3350 C.3   224  ILE224      0.0022
    102  CG2       -4.5020   10.0590   -8.4140 C.3   224  ILE224      0.0022
    103  CD1       -4.8040    7.2700   -6.7850 C.3   224  ILE224      0.0001
    104  N         -5.3690   15.3010   -5.6840 N.3   227  ALA227     -0.1231
    105  CA        -3.9340   15.4660   -5.4130 C.3   227  ALA227      0.1694
    106  C         -3.1520   15.9750   -6.6210 C.2   227  ALA227      0.2591
    107  O         -2.3060   16.8580   -6.4970 O.2   227  ALA227     -0.2718
    108  CB        -3.3140   14.1600   -4.8910 C.3   227  ALA227      0.0304
    109  N         -3.4200   15.3940   -7.7830 N.am  228  ILE228     -0.1980
    110  CA        -2.8040   15.8440   -9.0280 C.3   228  ILE228      0.1595
    111  C         -3.1680   17.3100   -9.3210 C.2   228  ILE228      0.2287
    112  O         -2.3070   18.1130   -9.6590 O.2   228  ILE228     -0.2864
    113  CB        -3.2230   14.9280  -10.2200 C.3   228  ILE228      0.0276
    114  CG1       -2.7560   13.4900   -9.9840 C.3   228  ILE228      0.0022
    115  CG2       -2.6750   15.4500  -11.5420 C.3   228  ILE228      0.0022
    116  CD1       -3.3020   12.4910  -11.0150 C.3   228  ILE228      0.0001
    117  N         -1.1680   19.4880   -7.0560 N.3   231  LEU231     -0.1245
    118  CA         0.2700   19.3740   -7.3050 C.3   231  LEU231      0.1561
    119  C          0.6790   20.0320   -8.6170 C.2   231  LEU231      0.2260
    120  O          1.7510   20.6480   -8.7050 O.2   231  LEU231     -0.2867
    121  CB         0.7240   17.9150   -7.2700 C.3   231  LEU231      0.0270
    122  CG         0.7520   17.2730   -5.8760 C.3   231  LEU231      0.0019
    123  CD1        0.7640   15.7380   -5.9950 C.3   231  LEU231      0.0001
    124  CD2        1.9330   17.7830   -5.0130 C.3   231  LEU231      0.0001
@<TRIPOS>BOND
     1   115   113    1
     2   116   114    1
     3   113   114    1
     4   113   110    1
     5     5     6    1
     6     5     2    1
     7    11    13   ar
     8    11     8   ar
     9    13    14   ar
    10   112   111    2
    11     8     6   ar
    12     8    10   ar
    13     6     7   ar
    14    14    12   ar
    15   111   110    1
    16     1     2    1
    17     7     9   ar
    18    10    12   ar
    19    10     9   ar
    20   110   109    1
    21     2     3    1
    22   120   119    2
    23   119   118    1
    24     3     4    2
    25   102   100    1
    26   109   106   am
    27    99    98    2
    28    22    20    1
    29    98    97    1
    30   118   121    1
    31   118   117    1
    32   100    97    1
    33   100   101    1
    34   121   122    1
    35   103   101    1
    36   106   107    2
    37   106   105    1
    38    97    96    1
    39    20    19    1
    40    20    21    1
    41    19    16    1
    42    38    37    1
    43   123   122    1
    44   122   124    1
    45    96    91   am
    46   104   105    1
    47    94    93    1
    48   105   108    1
    49    15    16    1
    50    93    95    1
    51    93    90    1
    52    29    28    1
    53    16    17    1
    54    91    92    2
    55    91    90    1
    56    37    36    1
    57    17    18    2
    58    90    89    1
    59    36    35    1
    60    28    30    1
    61    28    27    1
    62    63    62    1
    63    35    32    1
    64    27    24    1
    65    64    62    1
    66    48    46   ar
    67    48    49   ar
    68    46    44   ar
    69    32    31    1
    70    32    33    1
    71    50    49    1
    72    49    47   ar
    73    44    43    1
    74    44    45   ar
    75    62    61    1
    76    43    40    1
    77    47    45   ar
    78    75    73   ar
    79    75    74   ar
    80    61    58    1
    81    24    23    1
    82    24    25    1
    83    73    71   ar
    84    34    33    2
    85    74    72   ar
    86    40    41    1
    87    40    39    1
    88    42    41    2
    89    41    51   am
    90    25    26    2
    91    71    70   ar
    92    51    52    1
    93    55    52    1
    94    55    56    1
    95    52    53    1
    96    58    59    1
    97    58    57    1
    98    60    59    2
    99    72    70   ar
   100    59    65   am
   101    70    69    1
   102    65    66    1
   103    53    54    2
   104    66    69    1
   105    66    67    1
   106    67    68    2
   107    67    76   am
   108    76    77    1
   109    79    78    2
   110    78    77    1
   111    78    82   am
   112    83    82    1
   113    83    86    1
   114    83    84    1
   115    77    80    1
   116    82    88    1
   117    86    87    1
   118    85    84    2
   119    80    81    1
   120    88    87    1
