@<TRIPOS>MOLECULE
tmp/3tdtA00.pdb
 148 137 0 0 0
SMALL
GASTEIGER

@<TRIPOS>ATOM
      1  N          7.1320    8.4480    0.4570 N.3   141  ASP141     -0.1239
      2  CA         7.7090    7.1070    0.3640 C.3   141  ASP141      0.1674
      3  C          6.6470    6.0430   -0.0260 C.2   141  ASP141      0.2266
      4  O          5.4710    6.3210   -0.1420 O.2   141  ASP141     -0.2867
      5  CB         8.3390    6.7340    1.6970 C.3   141  ASP141      0.1410
      6  CG         9.6080    5.9200    1.5380 C.2   141  ASP141      0.3668
      7  OD1        9.7590    5.2530    0.5070 O.co2 141  ASP141     -0.2456
      8  OD2       10.4860    6.0520    2.3900 O.co2 141  ASP141     -0.2456
      9  N          9.3070   14.3470    5.1390 N.3   157  HIS157     -0.1241
     10  CA         9.4860   12.9810    4.7420 C.3   157  HIS157      0.1621
     11  C          8.2950   12.1660    5.2520 C.2   157  HIS157      0.2264
     12  O          8.0960   12.0300    6.4540 O.2   157  HIS157     -0.2867
     13  CB        10.8270   12.3600    5.2810 C.3   157  HIS157      0.0745
     14  CG        11.0210   10.9350    4.8500 C.ar  157  HIS157      0.0817
     15  ND1       11.7870   10.5860    3.7550 N.ar  157  HIS157     -0.2268
     16  CD2       10.4370    9.7880    5.2810 C.ar  157  HIS157      0.1154
     17  CE1       11.6700    9.2880    3.5340 C.ar  157  HIS157      0.1986
     18  NE2       10.8670    8.7810    4.4560 N.ar  157  HIS157     -0.2212
     19  N          7.0420    8.6830    5.4970 N.3   159  SER159     -0.1202
     20  CA         7.5610    7.3280    5.4250 C.3   159  SER159      0.2020
     21  C          6.6480    6.3260    4.7470 C.2   159  SER159      0.2619
     22  O          5.4820    6.6180    4.4340 O.2   159  SER159     -0.2717
     23  CB         7.9380    6.8140    6.8320 C.3   159  SER159      0.2103
     24  OG         9.0090    7.5410    7.3580 O.3   159  SER159     -0.2182
     25  N          7.1750    5.1140    4.5650 N.am  160  GLY160     -0.1956
     26  CA         6.4080    4.0320    3.9110 C.3   160  GLY160      0.1869
     27  C          5.0770    3.7570    4.6090 C.2   160  GLY160      0.2309
     28  O          4.9980    3.6870    5.8390 O.2   160  GLY160     -0.2863
     29  N          8.9800   14.9420   10.0220 N.3   183  PHE183     -0.1241
     30  CA         9.2810   13.5590    9.6100 C.3   183  PHE183      0.1605
     31  C          8.1230   12.7170   10.1370 C.2   183  PHE183      0.2264
     32  O          7.8350   12.7740   11.3200 O.2   183  PHE183     -0.2867
     33  CB        10.5840   13.0500   10.2690 C.3   183  PHE183      0.0534
     34  CG        10.8830   11.6010    9.9660 C.ar  183  PHE183     -0.0203
     35  CD1       11.6290   11.2460    8.8410 C.ar  183  PHE183     -0.0042
     36  CD2       10.4000   10.6030   10.7880 C.ar  183  PHE183     -0.0042
     37  CE1       11.8850    9.9010    8.5310 C.ar  183  PHE183     -0.0003
     38  CE2       10.6730    9.2360   10.5080 C.ar  183  PHE183     -0.0003
     39  CZ        11.3900    8.9060    9.3460 C.ar  183  PHE183     -0.0000
     40  N          6.9550    8.9570   10.6840 N.3   185  GLY185     -0.1210
     41  CA         7.4480    7.5610   10.7400 C.3   185  GLY185      0.1956
     42  C          6.5180    6.5560   10.1010 C.2   185  GLY185      0.2611
     43  O          5.3230    6.7830    9.9840 O.2   185  GLY185     -0.2717
     44  N          7.0880    5.4370    9.6730 N.am  186  ALA186     -0.1979
     45  CA         6.3500    4.4210    8.9220 C.3   186  ALA186      0.1597
     46  C          5.0510    3.9530    9.5390 C.2   186  ALA186      0.2287
     47  O          4.9380    3.8290   10.7700 O.2   186  ALA186     -0.2864
     48  CB         7.2260    3.2570    8.6110 C.3   186  ALA186      0.0319
     49  N          8.7840   15.3360   14.8070 N.3   201  VAL201     -0.1245
     50  CA         9.1560   13.9990   14.3780 C.3   201  VAL201      0.1561
     51  C          8.1860   13.0510   14.9560 C.2   201  VAL201      0.2260
     52  O          8.0980   12.9460   16.1710 O.2   201  VAL201     -0.2867
     53  CB        10.5660   13.6200   14.8720 C.3   201  VAL201      0.0252
     54  CG1       10.8210   12.1010   14.7470 C.3   201  VAL201      0.0019
     55  CG2       11.6020   14.3920   14.0930 C.3   201  VAL201      0.0019
     56  N          7.0790    9.2210   15.3280 N.3   203  SER203     -0.1202
     57  CA         7.6660    7.9080   15.2250 C.3   203  SER203      0.2020
     58  C          6.7940    6.9470   14.4170 C.2   203  SER203      0.2618
     59  O          5.7480    7.3240   13.8810 O.2   203  SER203     -0.2717
     60  CB         7.8730    7.3530   16.6340 C.3   203  SER203      0.2103
     61  OG         8.7060    6.2110   16.6140 O.3   203  SER203     -0.2182
     62  N          7.2010    5.6870   14.3540 N.am  204  MET204     -0.1979
     63  CA         6.4270    4.6910   13.6230 C.3   204  MET204      0.1605
     64  C          5.1520    4.2990   14.3480 C.2   204  MET204      0.2287
     65  O          5.1310    4.2090   15.5600 O.2   204  MET204     -0.2864
     66  CB         7.2520    3.4080   13.4920 C.3   204  MET204      0.0413
     67  CG         8.5420    3.5440   12.7100 C.3   204  MET204      0.0598
     68  SD         9.4320    1.9620   12.6800 S.3   204  MET204     -0.1393
     69  CE        10.1000    1.9390   14.2600 C.3   204  MET204      0.0692
     70  N          4.6380   14.2670   28.6700 N.3   217  ARG217     -0.1245
     71  CA         5.1000   13.7240   29.9510 C.3   217  ARG217      0.1563
     72  C          5.8300   14.7320   30.8450 C.2   217  ARG217      0.2260
     73  O          5.8190   14.5970   32.0690 O.2   217  ARG217     -0.2867
     74  CB         5.9460   12.4490   29.7560 C.3   217  ARG217      0.0307
     75  CG         7.2220   12.6430   28.9430 C.3   217  ARG217      0.0489
     76  CD         8.0510   11.3850   28.9810 C.3   217  ARG217      0.2205
     77  NE         9.3400   11.5560   28.3230 N.pl3 217  ARG217     -0.0865
     78  CZ        10.2110   10.5660   28.1670 C.cat 217  ARG217      0.5346
     79  NH1        9.9150    9.3660   28.6320 N.pl3 217  ARG217      0.1354
     80  NH2       11.3740   10.7660   27.5650 N.pl3 217  ARG217      0.1354
     81  N          8.9240   15.2490   19.4780 N.3   232  VAL232     -0.1245
     82  CA         9.1990   13.8950   19.0700 C.3   232  VAL232      0.1561
     83  C          8.0780   13.1330   19.7460 C.2   232  VAL232      0.2260
     84  O          7.9320   13.1510   20.9940 O.2   232  VAL232     -0.2867
     85  CB        10.5500   13.3850   19.5810 C.3   232  VAL232      0.0252
     86  CG1       10.7570   11.8830   19.1420 C.3   232  VAL232      0.0019
     87  CG2       11.6790   14.2720   19.0490 C.3   232  VAL232      0.0019
     88  N          5.7900    9.5180   20.2080 N.3   234  VAL234     -0.1231
     89  CA         5.8120    8.0620   20.0220 C.3   234  VAL234      0.1692
     90  C          4.5470    7.4950   20.6160 C.2   234  VAL234      0.2592
     91  O          3.8280    8.2010   21.3400 O.2   234  VAL234     -0.2718
     92  CB         7.0700    7.3850   20.6990 C.3   234  VAL234      0.0266
     93  CG1        8.4030    7.9930   20.1820 C.3   234  VAL234      0.0020
     94  CG2        7.0020    7.5630   22.1560 C.3   234  VAL234      0.0020
     95  N          4.2690    6.2230   20.3120 N.am  235  SER235     -0.1952
     96  CA         3.0780    5.5320   20.8340 C.3   235  SER235      0.1924
     97  C          3.2120    5.1550   22.3100 C.2   235  SER235      0.2314
     98  O          4.2730    4.7090   22.7750 O.2   235  SER235     -0.2863
     99  CB         2.8540    4.2250   20.0420 C.3   235  SER235      0.2116
    100  OG         2.3760    4.5250   18.7610 O.3   235  SER235     -0.2180
    101  N          7.7840   12.7130   23.9370 N.3   253  VAL253     -0.1231
    102  CA         8.8560   12.2440   24.8410 C.3   253  VAL253      0.1692
    103  C          9.9900   13.2330   24.9900 C.2   253  VAL253      0.2591
    104  O         10.7640   13.1370   25.9420 O.2   253  VAL253     -0.2718
    105  CB         9.4780   10.8950   24.3870 C.3   253  VAL253      0.0266
    106  CG1        8.5180    9.7460   24.5970 C.3   253  VAL253      0.0020
    107  CG2        9.9350   10.9820   22.9810 C.3   253  VAL253      0.0020
    108  N         10.1240   14.1610   24.0330 N.am  254  LYS254     -0.1980
    109  CA        11.2290   15.1250   24.0710 C.3   254  LYS254      0.1596
    110  C         11.1720   16.0700   22.8760 C.2   254  LYS254      0.2287
    111  O         10.3100   15.9340   21.9730 O.2   254  LYS254     -0.2864
    112  CB        12.5630   14.3770   24.0460 C.3   254  LYS254      0.0298
    113  CG        12.9330   13.8440   22.6560 C.3   254  LYS254      0.0038
    114  CD        14.1330   12.8800   22.7090 C.3   254  LYS254      0.0206
    115  CE        15.2110   13.2570   21.6900 C.3   254  LYS254      0.1093
    116  NZ        16.3880   12.3370   21.7300 N.3   254  LYS254     -0.1314
    117  N         20.6140   13.9970   18.2520 N.3   259  LYS259     -0.1231
    118  CA        20.4930   12.5510   18.1570 C.3   259  LYS259      0.1693
    119  C         19.2770   12.2130   17.2480 C.2   259  LYS259      0.2592
    120  O         19.3600   11.3690   16.3630 O.2   259  LYS259     -0.2718
    121  CB        20.3470   11.9790   19.5520 C.3   259  LYS259      0.0285
    122  CG        19.6450   10.6820   19.6000 C.3   259  LYS259      0.0035
    123  CD        19.8700   10.0140   20.9240 C.3   259  LYS259      0.0206
    124  CE        19.9770    8.5230   20.7200 C.3   259  LYS259      0.1093
    125  NZ        19.4460    7.7680   21.8770 N.3   259  LYS259     -0.1314
    126  N         18.1790   12.9530   17.4080 N.am  260  THR260     -0.1953
    127  CA        17.0000   12.7310   16.5670 C.3   260  THR260      0.1897
    128  C         17.2830   13.0480   15.0970 C.2   260  THR260      0.2313
    129  O         17.0370   12.2140   14.2100 O.2   260  THR260     -0.2863
    130  CB        15.7930   13.5450   17.0400 C.3   260  THR260      0.1794
    131  OG1       15.5810   13.3060   18.4380 O.3   260  THR260     -0.2208
    132  CG2       14.5470   13.1210   16.2580 C.3   260  THR260      0.0378
    133  N         18.7210   10.5390   12.6810 N.3   263  LYS263     -0.1231
    134  CA        17.9640    9.4330   12.1690 C.3   263  LYS263      0.1693
    135  C         16.8900    9.8030   11.2100 C.2   263  LYS263      0.2591
    136  O         16.2060    8.9480   10.7020 O.2   263  LYS263     -0.2718
    137  CB        17.3360    8.7010   13.3390 C.3   263  LYS263      0.0285
    138  CG        18.1520    8.7460   14.5860 C.3   263  LYS263      0.0035
    139  CD        17.4430    7.9640   15.6780 C.3   263  LYS263      0.0206
    140  CE        18.4080    7.5070   16.7630 C.3   263  LYS263      0.1093
    141  NZ        18.0060    6.1950   17.3630 N.3   263  LYS263     -0.1314
    142  N         16.6470   11.0790   11.0130 N.am  264  VAL264     -0.1980
    143  CA        15.5260   11.4190   10.1390 C.3   264  VAL264      0.1595
    144  C         15.8340   12.3900    9.0430 C.2   264  VAL264      0.2287
    145  O         14.9170   12.9400    8.4240 O.2   264  VAL264     -0.2864
    146  CB        14.3520   11.9530   10.9500 C.3   264  VAL264      0.0276
    147  CG1       14.0830   11.0260   12.0650 C.3   264  VAL264      0.0022
    148  CG2       14.6850   13.3590   11.5040 C.3   264  VAL264      0.0022
@<TRIPOS>BOND
     1     4     3    2
     2     3     2    1
     3     2     1    1
     4     2     5    1
     5     7     6   ar
     6     6     5    1
     7     6     8   ar
     8    17    15   ar
     9    17    18   ar
    10    15    14   ar
    11    26    25    1
    12    26    27    1
    13    22    21    2
    14    18    16   ar
    15    25    21   am
    16    27    28    2
    17    10     9    1
    18    10    11    1
    19    10    13    1
    20    21    20    1
    21    14    16   ar
    22    14    13    1
    23    11    12    2
    24    20    19    1
    25    20    23    1
    26    23    24    1
    27   145   144    2
    28    37    35   ar
    29    37    39   ar
    30    48    45    1
    31    35    34   ar
    32    45    46    1
    33    45    44    1
    34   144   143    1
    35    39    38   ar
    36    46    47    2
    37    30    29    1
    38    30    31    1
    39    30    33    1
    40    44    42   am
    41    34    33    1
    42    34    36   ar
    43    43    42    2
    44    42    41    1
    45    31    32    2
    46   143   146    1
    47   143   142    1
    48    38    36   ar
    49    40    41    1
    50   136   135    2
    51   146   148    1
    52   146   147    1
    53   142   135   am
    54   135   134    1
    55   134   133    1
    56   134   137    1
    57    68    67    1
    58    68    69    1
    59    67    66    1
    60   137   138    1
    61    66    63    1
    62    63    64    1
    63    63    62    1
    64    59    58    2
    65    55    53    1
    66   129   128    2
    67    64    65    2
    68    62    58   am
    69    50    49    1
    70    50    53    1
    71    50    51    1
    72    58    57    1
    73   138   139    1
    74    54    53    1
    75    51    52    2
    76   128   127    1
    77    57    56    1
    78    57    60    1
    79   139   140    1
    80   132   130    1
    81   120   119    2
    82   127   130    1
    83   127   126    1
    84    61    60    1
    85   140   141    1
    86   130   131    1
    87   119   126   am
    88   119   118    1
    89   118   117    1
    90   118   121    1
    91   100    99    1
    92    87    85    1
    93    82    81    1
    94    82    85    1
    95    82    83    1
    96    86    85    1
    97   121   122    1
    98   122   123    1
    99    83    84    2
   100    89    88    1
   101    89    90    1
   102    89    92    1
   103    99    96    1
   104    93    92    1
   105    95    90   am
   106    95    96    1
   107    90    91    2
   108    92    94    1
   109   124   123    1
   110   124   125    1
   111    96    97    1
   112   115   116    1
   113   115   114    1
   114   111   110    2
   115    97    98    2
   116   113   114    1
   117   113   112    1
   118   110   109    1
   119   107   105    1
   120   101   102    1
   121   108   109    1
   122   108   103   am
   123   112   109    1
   124   105   106    1
   125   105   102    1
   126   102   103    1
   127   103   104    2
   128    80    78    1
   129    78    77    2
   130    78    79    1
   131    77    76    1
   132    70    71    1
   133    75    76    1
   134    75    74    1
   135    74    71    1
   136    71    72    1
   137    72    73    2
