@<TRIPOS>MOLECULE
tmp/3tdwA00.pdb
 177 167 0 0 0
SMALL
GASTEIGER

@<TRIPOS>ATOM
      1  N         -8.0720   10.1240   10.5610 N.3    24  LEU24      -0.1231
      2  CA        -8.9070   10.6290   11.6360 C.3    24  LEU24       0.1693
      3  C         -9.2440    9.5140   12.6180 C.2    24  LEU24       0.2593
      4  O         -9.1990    9.7130   13.8270 O.2    24  LEU24      -0.2718
      5  CB       -10.1880   11.2500   11.0770 C.3    24  LEU24       0.0284
      6  CG       -11.1810   11.6940   12.1400 C.3    24  LEU24       0.0019
      7  CD1      -10.5590   12.7960   13.0050 C.3    24  LEU24       0.0001
      8  CD2      -12.4900   12.1690   11.5060 C.3    24  LEU24       0.0001
      9  N         -9.5590    8.3400   12.0860 N.am   25  GLY25      -0.1942
     10  CA        -9.9460    7.2120   12.9150 C.3    25  GLY25       0.2014
     11  C        -10.3550    6.0180   12.0760 C.2    25  GLY25       0.2639
     12  O        -10.4960    6.1030   10.8470 O.2    25  GLY25      -0.2714
     13  N        -10.5260    4.8850   12.7410 N.am   26  GLU26      -0.1963
     14  CA       -10.8110    3.6550   12.0460 C.3    26  GLU26       0.1733
     15  C        -11.5400    2.7500   13.0110 C.2    26  GLU26       0.2617
     16  O        -11.2300    2.7330   14.1950 O.2    26  GLU26      -0.2715
     17  CB        -9.4820    3.0160   11.6290 C.3    26  GLU26       0.0429
     18  CG        -9.5750    1.8390   10.7030 C.3    26  GLU26       0.1163
     19  CD        -8.2060    1.2390   10.4120 C.2    26  GLU26       0.3649
     20  OE1       -7.2020    1.7790   10.9200 O.co2  26  GLU26      -0.2457
     21  OE2       -8.1350    0.2310    9.6830 O.co2  26  GLU26      -0.2457
     22  N        -12.5060    1.9980   12.4950 N.am   27  GLY27      -0.1940
     23  CA       -13.1470    0.9450   13.2490 C.3    27  GLY27       0.2014
     24  C        -13.0580   -0.3590   12.4900 C.2    27  GLY27       0.2639
     25  O        -12.2270   -0.5160   11.5780 O.2    27  GLY27      -0.2714
     26  N        -13.9140   -1.3080   12.8480 N.am   28  PHE28      -0.1959
     27  CA       -13.9400   -2.5820   12.1310 C.3    28  PHE28       0.1771
     28  C        -14.5590   -2.4720   10.7380 C.2    28  PHE28       0.2619
     29  O        -14.3290   -3.3360    9.8990 O.2    28  PHE28      -0.2715
     30  CB       -14.7140   -3.6340   12.9310 C.3    28  PHE28       0.0574
     31  CG       -13.9640   -4.1810   14.1140 C.ar   28  PHE28      -0.0200
     32  CD1      -13.9460   -3.4970   15.3140 C.ar   28  PHE28      -0.0042
     33  CD2      -13.3070   -5.3980   14.0350 C.ar   28  PHE28      -0.0042
     34  CE1      -13.2650   -4.0000   16.4070 C.ar   28  PHE28      -0.0003
     35  CE2      -12.6260   -5.9120   15.1330 C.ar   28  PHE28      -0.0003
     36  CZ       -12.6020   -5.2070   16.3130 C.ar   28  PHE28      -0.0000
     37  N        -15.3550   -1.4290   10.4970 N.am   29  ARG29      -0.1963
     38  CA       -16.1530   -1.3560    9.2650 C.3    29  ARG29       0.1729
     39  C        -15.6960   -0.2650    8.3150 C.2    29  ARG29       0.2616
     40  O        -15.9200   -0.3770    7.1080 O.2    29  ARG29      -0.2715
     41  CB       -17.6390   -1.1210    9.5880 C.3    29  ARG29       0.0348
     42  CG       -18.2790   -2.2310   10.4270 C.3    29  ARG29       0.0492
     43  CD       -18.6570   -3.4960    9.6080 C.3    29  ARG29       0.2205
     44  NE       -19.3890   -4.3970   10.5090 N.pl3  29  ARG29      -0.0865
     45  CZ       -18.8200   -5.3670   11.2250 C.cat  29  ARG29       0.5346
     46  NH1      -17.5250   -5.6340   11.0870 N.pl3  29  ARG29       0.1354
     47  NH2      -19.5550   -6.0980   12.0590 N.pl3  29  ARG29       0.1354
     48  N        -15.0900    0.7880    8.8670 N.am   30  ASN30      -0.1972
     49  CA       -14.7420    1.9970    8.1100 C.3    30  ASN30       0.1688
     50  C        -13.3960    2.6030    8.4580 C.2    30  ASN30       0.2292
     51  O        -12.9680    2.5750    9.6110 O.2    30  ASN30      -0.2864
     52  CB       -15.7950    3.0870    8.3350 C.3    30  ASN30       0.1181
     53  CG       -17.1410    2.7050    7.7900 C.2    30  ASN30       0.2629
     54  OD1      -17.3720    2.7850    6.5970 O.2    30  ASN30      -0.2716
     55  ND2      -18.0490    2.2980    8.6690 N.am   30  ASN30      -0.0877
     56  N        -11.6710    6.3780    8.3050 N.3    32  ALA32      -0.1245
     57  CA       -12.0590    7.7820    8.1620 C.3    32  ALA32       0.1562
     58  C        -10.8630    8.7220    8.0540 C.2    32  ALA32       0.2260
     59  O         -9.9170    8.6270    8.8310 O.2    32  ALA32      -0.2867
     60  CB       -12.9700    8.2130    9.3200 C.3    32  ALA32       0.0290
     61  N        -15.0720   15.0000    6.9740 N.3    40  VAL40      -0.1245
     62  CA       -14.7760   13.5930    7.1850 C.3    40  VAL40       0.1561
     63  C        -15.1790   12.8000    5.9550 C.2    40  VAL40       0.2260
     64  O        -16.3280   12.8730    5.5170 O.2    40  VAL40      -0.2867
     65  CB       -15.5650   13.0100    8.3760 C.3    40  VAL40       0.0252
     66  CG1      -15.2230   11.5190    8.5560 C.3    40  VAL40       0.0019
     67  CG2      -15.2790   13.8170    9.6360 C.3    40  VAL40       0.0019
     68  N        -15.3800    8.8670    4.7140 N.3    42  ARG42      -0.1245
     69  CA       -15.4380    7.6180    5.4310 C.3    42  ARG42       0.1563
     70  C        -15.6270    6.4840    4.4330 C.2    42  ARG42       0.2260
     71  O        -16.6080    6.4580    3.6780 O.2    42  ARG42      -0.2867
     72  CB       -16.5910    7.6950    6.4310 C.3    42  ARG42       0.0307
     73  CG       -16.8190    6.5030    7.3160 C.3    42  ARG42       0.0489
     74  CD       -17.9570    6.8930    8.2420 C.3    42  ARG42       0.2205
     75  NE       -18.4500    5.8820    9.1800 N.pl3  42  ARG42      -0.0865
     76  CZ       -19.6070    5.2440    9.0440 C.cat  42  ARG42       0.5346
     77  NH1      -20.3520    5.4460    7.9620 N.pl3  42  ARG42       0.1354
     78  NH2      -20.0260    4.3980    9.9870 N.pl3  42  ARG42       0.1354
     79  N        -23.8180   -1.7370    5.7780 N.3    52  GLU52      -0.1245
     80  CA       -24.1900   -0.8670    6.9000 C.3    52  GLU52       0.1567
     81  C        -24.2570    0.6040    6.4380 C.2    52  GLU52       0.2260
     82  O        -25.1640    1.3320    6.8040 O.2    52  GLU52      -0.2867
     83  CB       -23.2350   -1.0490    8.0860 C.3    52  GLU52       0.0388
     84  CG       -23.2960   -2.4720    8.6700 C.3    52  GLU52       0.1160
     85  CD       -22.3390   -2.7280    9.8380 C.2    52  GLU52       0.3649
     86  OE1      -21.7270   -1.7790   10.3890 O.co2  52  GLU52      -0.2457
     87  OE2      -22.2020   -3.9050   10.2270 O.co2  52  GLU52      -0.2457
     88  N        -18.8590   13.9410    5.0970 N.3    89  TYR89      -0.1241
     89  CA       -19.7240   14.8010    5.9170 C.3    89  TYR89       0.1605
     90  C        -18.9420   15.8290    6.7090 C.2    89  TYR89       0.2264
     91  O        -17.7550   15.6190    6.9850 O.2    89  TYR89      -0.2867
     92  CB       -20.6040   13.9770    6.8610 C.3    89  TYR89       0.0534
     93  CG       -19.9110   12.9520    7.7690 C.ar   89  TYR89      -0.0201
     94  CD1      -19.7150   11.6490    7.3440 C.ar   89  TYR89      -0.0009
     95  CD2      -19.5370   13.2740    9.0760 C.ar   89  TYR89      -0.0009
     96  CE1      -19.1320   10.6890    8.1800 C.ar   89  TYR89       0.0417
     97  CE2      -18.9420   12.3220    9.9120 C.ar   89  TYR89       0.0417
     98  CZ       -18.7460   11.0290    9.4590 C.ar   89  TYR89       0.1957
     99  OH       -18.1840   10.0550   10.2880 O.3    89  TYR89      -0.2866
    100  N        -17.4050   17.3890    9.7040 N.3    91  LYS91      -0.1231
    101  CA       -16.9800   16.8040   10.9760 C.3    91  LYS91       0.1693
    102  C        -17.9630   17.1510   12.0940 C.2    91  LYS91       0.2591
    103  O        -18.3590   18.3140   12.2480 O.2    91  LYS91      -0.2718
    104  CB       -15.6000   17.3450   11.3510 C.3    91  LYS91       0.0285
    105  CG       -14.8420   16.5620   12.4080 C.3    91  LYS91       0.0035
    106  CD       -13.5850   17.3390   12.8190 C.3    91  LYS91       0.0206
    107  CE       -12.6430   16.4760   13.6510 C.3    91  LYS91       0.1093
    108  NZ       -11.6950   17.2900   14.4850 N.3    91  LYS91      -0.1314
    109  N        -18.3650   16.1410   12.8570 N.am   92  VAL92      -0.1980
    110  CA       -19.1190   16.3700   14.0800 C.3    92  VAL92       0.1595
    111  C        -18.1050   16.8890   15.1020 C.2    92  VAL92       0.2287
    112  O        -17.1310   16.1970   15.4460 O.2    92  VAL92      -0.2864
    113  CB       -19.8010   15.0800   14.5830 C.3    92  VAL92       0.0276
    114  CG1      -20.5490   15.3370   15.9090 C.3    92  VAL92       0.0022
    115  CG2      -20.7400   14.5050   13.5070 C.3    92  VAL92       0.0022
    116  N        -16.0870   18.4340   18.4260 N.3    94  GLY94      -0.1225
    117  CA       -15.9010   18.0370   19.8110 C.3    94  GLY94       0.1811
    118  C        -14.7520   17.0610   19.9270 C.2    94  GLY94       0.2280
    119  O        -14.1290   16.6900   18.9220 O.2    94  GLY94      -0.2866
    120  N        -13.6840   13.2070   21.1140 N.3    96  ILE96      -0.1245
    121  CA       -14.2260   11.8770   21.3860 C.3    96  ILE96       0.1561
    122  C        -13.9990   11.5260   22.8520 C.2    96  ILE96       0.2260
    123  O        -12.8600   11.5020   23.3090 O.2    96  ILE96      -0.2867
    124  CB       -13.5290   10.8100   20.5460 C.3    96  ILE96       0.0252
    125  CG1      -13.7370   11.0770   19.0510 C.3    96  ILE96       0.0019
    126  CG2      -14.0180    9.4110   20.9380 C.3    96  ILE96       0.0019
    127  CD1      -14.8320   10.2410   18.4230 C.3    96  ILE96       0.0001
    128  N        -24.6270    0.9070   18.5450 N.3   193  ASP193     -0.1239
    129  CA       -23.2060    1.0150   18.8620 C.3   193  ASP193      0.1674
    130  C        -22.9790    2.2210   19.7650 C.2   193  ASP193      0.2266
    131  O        -22.0640    3.0270   19.5510 O.2   193  ASP193     -0.2867
    132  CB       -22.3890    1.1210   17.5610 C.3   193  ASP193      0.1410
    133  CG       -21.0540    0.4060   17.6470 C.2   193  ASP193      0.3668
    134  OD1      -20.6790   -0.0220   18.7590 O.co2 193  ASP193     -0.2456
    135  OD2      -20.3710    0.2780   16.6070 O.co2 193  ASP193     -0.2456
    136  N        -16.8550    5.9200   22.5470 N.3   197  ASP197     -0.1225
    137  CA       -15.9720    6.1820   21.3980 C.3   197  ASP197      0.1805
    138  C        -16.7400    6.8560   20.2560 C.2   197  ASP197      0.2597
    139  O        -16.1550    7.2520   19.2420 O.2   197  ASP197     -0.2718
    140  CB       -15.2510    4.9240   20.9080 C.3   197  ASP197      0.1424
    141  CG       -14.3250    4.3390   21.9510 C.2   197  ASP197      0.3668
    142  OD1      -14.2850    3.0970   22.0720 O.co2 197  ASP197     -0.2456
    143  OD2      -13.6410    5.1210   22.6470 O.co2 197  ASP197     -0.2456
    144  N        -18.0460    6.9970   20.4310 N.am  198  HIS198     -0.1975
    145  CA       -18.8870    7.6820   19.4520 C.3   198  HIS198      0.1656
    146  C        -19.5450    8.9280   20.0110 C.2   198  HIS198      0.2291
    147  O        -20.4490    9.4780   19.3840 O.2   198  HIS198     -0.2864
    148  CB       -19.9890    6.7550   18.9260 C.3   198  HIS198      0.0771
    149  CG       -19.4780    5.5780   18.1590 C.ar  198  HIS198      0.0820
    150  ND1      -20.1160    4.3560   18.1710 N.ar  198  HIS198     -0.2267
    151  CD2      -18.3870    5.4270   17.3680 C.ar  198  HIS198      0.1154
    152  CE1      -19.4460    3.5060   17.4140 C.ar  198  HIS198      0.1986
    153  NE2      -18.3950    4.1300   16.9160 N.ar  198  HIS198     -0.2212
    154  N        -19.2780   12.7510   21.0150 N.3   200  LEU200     -0.1245
    155  CA       -18.4740   13.9310   20.7290 C.3   200  LEU200      0.1561
    156  C        -18.8330   14.9790   21.7640 C.2   200  LEU200      0.2260
    157  O        -19.9960   15.3410   21.8990 O.2   200  LEU200     -0.2867
    158  CB       -18.7710   14.4470   19.3270 C.3   200  LEU200      0.0270
    159  CG       -17.9380   13.8020   18.2240 C.3   200  LEU200      0.0019
    160  CD1      -16.4670   14.0580   18.4400 C.3   200  LEU200      0.0001
    161  CD2      -18.2040   12.2980   18.1130 C.3   200  LEU200      0.0001
    162  N        -21.8280    9.7430   16.5720 N.3   214  ILE214     -0.1231
    163  CA       -21.4910    9.2570   15.2370 C.3   214  ILE214      0.1692
    164  C        -21.7550    7.7510   15.0780 C.2   214  ILE214      0.2592
    165  O        -22.2780    7.1040   15.9920 O.2   214  ILE214     -0.2718
    166  CB       -20.0240    9.5500   14.9060 C.3   214  ILE214      0.0266
    167  CG1      -19.1040    8.9150   15.9550 C.3   214  ILE214      0.0019
    168  CG2      -19.7820   11.0660   14.8420 C.3   214  ILE214      0.0020
    169  CD1      -17.6410    8.8420   15.5170 C.3   214  ILE214      0.0001
    170  N        -21.4020    7.2230   13.9000 N.am  215  ASP215     -0.1974
    171  CA       -21.4370    5.7880   13.5780 C.3   215  ASP215      0.1709
    172  C        -22.7570    5.0740   13.8150 C.2   215  ASP215      0.2293
    173  O        -22.9210    4.3540   14.8130 O.2   215  ASP215     -0.2864
    174  CB       -20.3310    5.0140   14.2990 C.3   215  ASP215      0.1436
    175  CG       -20.1090    3.6390   13.6970 C.2   215  ASP215      0.3671
    176  OD1      -20.7200    3.3290   12.6410 O.co2 215  ASP215     -0.2456
    177  OD2      -19.3100    2.8570   14.2510 O.co2 215  ASP215     -0.2456
@<TRIPOS>BOND
     1    71    70    2
     2    70    69    1
     3    68    69    1
     4    88    89    1
     5    69    72    1
     6    64    63    2
     7    79    80    1
     8    89    90    1
     9    89    92    1
    10    63    62    1
    11    72    73    1
    12    81    82    2
    13    81    80    1
    14    54    53    2
    15    90    91    2
    16    92    93    1
    17    80    83    1
    18    61    62    1
    19    40    39    2
    20    62    65    1
    21    73    74    1
    22    94    93   ar
    23    94    96   ar
    24    93    95   ar
    25    53    52    1
    26    53    55   am
    27    77    76    1
    28    58    57    1
    29    58    59    2
    30    83    84    1
    31    49    52    1
    32    49    50    1
    33    49    48    1
    34    57    56    1
    35    57    60    1
    36    96    98   ar
    37    74    75    1
    38    39    48   am
    39    39    38    1
    40    65    66    1
    41    65    67    1
    42    50    51    2
    43    84    85    1
    44    76    75    2
    45    76    78    1
    46    95    97   ar
    47    38    41    1
    48    38    37    1
    49    98    97   ar
    50    98    99    1
    51    41    42    1
    52    43    42    1
    53    43    44    1
    54    21    19   ar
    55   100   101    1
    56    85    87   ar
    57    85    86   ar
    58    29    28    2
    59    19    18    1
    60    19    20   ar
    61    37    28   am
    62    44    45    2
    63     1     2    1
    64    18    17    1
    65    28    27    1
    66    12    11    2
    67   101   104    1
    68   101   102    1
    69     5     2    1
    70     5     6    1
    71    46    45    1
    72    45    47    1
    73   104   105    1
    74     8     6    1
    75    25    24    2
    76    17    14    1
    77     2     3    1
    78    14    13    1
    79    14    15    1
    80    11    13   am
    81    11    10    1
    82     9     3   am
    83     9    10    1
    84   102   103    2
    85   102   109   am
    86    27    26    1
    87    27    30    1
    88     6     7    1
    89   105   106    1
    90    24    26   am
    91    24    23    1
    92    22    15   am
    93    22    23    1
    94     3     4    2
    95   176   175   ar
    96   106   107    1
    97   109   110    1
    98    30    31    1
    99    15    16    2
   100   115   113    1
   101   171   172    1
   102   171   170    1
   103   171   174    1
   104   107   108    1
   105   175   177   ar
   106   175   174    1
   107   172   173    2
   108   170   164   am
   109    33    31   ar
   110    33    35   ar
   111   110   113    1
   112   110   111    1
   113    31    32   ar
   114   113   114    1
   115   168   166    1
   116   166   163    1
   117   166   167    1
   118   164   163    1
   119   164   165    2
   120   111   112    2
   121    35    36   ar
   122   163   162    1
   123    32    34   ar
   124   169   167    1
   125    36    34   ar
   126   135   133   ar
   127   153   151   ar
   128   153   152   ar
   129   151   149   ar
   130   152   150   ar
   131   132   133    1
   132   132   129    1
   133   133   134   ar
   134   161   159    1
   135   149   150   ar
   136   149   148    1
   137   159   160    1
   138   159   158    1
   139   127   125    1
   140   116   117    1
   141   128   129    1
   142   129   130    1
   143   119   118    2
   144   148   145    1
   145   125   124    1
   146   139   138    2
   147   158   155    1
   148   147   146    2
   149   145   146    1
   150   145   144    1
   151   131   130    2
   152   117   118    1
   153   138   144   am
   154   138   137    1
   155   124   126    1
   156   124   121    1
   157   155   154    1
   158   155   156    1
   159   140   137    1
   160   140   141    1
   161   120   121    1
   162   121   122    1
   163   137   136    1
   164   156   157    2
   165   141   142   ar
   166   141   143   ar
   167   122   123    2
