@<TRIPOS>MOLECULE
tmp/3tdxC00.pdb
 149 141 0 0 0
SMALL
GASTEIGER

@<TRIPOS>ATOM
      1  N        -19.9550   31.1400  -41.2430 N.3    43  ILE43      -0.1245
      2  CA       -18.9200   30.8860  -42.2350 C.3    43  ILE43       0.1561
      3  C        -18.0380   32.1170  -42.4580 C.2    43  ILE43       0.2260
      4  O        -16.8160   32.0040  -42.5310 O.2    43  ILE43      -0.2867
      5  CB       -19.5180   30.3870  -43.5660 C.3    43  ILE43       0.0252
      6  CG1      -19.9050   28.9050  -43.4540 C.3    43  ILE43       0.0019
      7  CG2      -18.5320   30.5770  -44.7120 C.3    43  ILE43       0.0019
      8  CD1      -18.7130   27.9550  -43.3030 C.3    43  ILE43       0.0001
      9  N        -15.7090   32.1920  -39.2910 N.3    46  ILE46      -0.1231
     10  CA       -14.6600   31.1870  -39.1440 C.3    46  ILE46       0.1692
     11  C        -13.7030   31.1650  -40.3480 C.2    46  ILE46       0.2592
     12  O        -12.5400   30.7560  -40.2320 O.2    46  ILE46      -0.2718
     13  CB       -15.2110   29.7770  -38.7770 C.3    46  ILE46       0.0266
     14  CG1      -15.9130   29.1300  -39.9640 C.3    46  ILE46       0.0019
     15  CG2      -16.1630   29.8580  -37.5740 C.3    46  ILE46       0.0020
     16  CD1      -16.2680   27.6800  -39.7200 C.3    46  ILE46       0.0001
     17  N        -14.1750   31.6350  -41.4960 N.am   47  PHE47      -0.1976
     18  CA       -13.2950   31.7380  -42.6590 C.3    47  PHE47       0.1639
     19  C        -12.3550   32.9230  -42.5350 C.2    47  PHE47       0.2290
     20  O        -11.2440   32.8960  -43.0530 O.2    47  PHE47      -0.2864
     21  CB       -14.0770   31.7680  -43.9770 C.3    47  PHE47       0.0560
     22  CG       -14.3850   30.4000  -44.5160 C.ar   47  PHE47      -0.0200
     23  CD1      -14.7910   29.3850  -43.6630 C.ar   47  PHE47      -0.0042
     24  CD2      -14.2570   30.1200  -45.8660 C.ar   47  PHE47      -0.0042
     25  CE1      -15.0710   28.1080  -44.1550 C.ar   47  PHE47      -0.0003
     26  CE2      -14.5440   28.8460  -46.3630 C.ar   47  PHE47      -0.0003
     27  CZ       -14.9460   27.8420  -45.5090 C.ar   47  PHE47      -0.0000
     28  N         -7.8040   25.0610  -36.9110 N.3    62  LYS62      -0.1245
     29  CA        -9.0580   24.3340  -37.0890 C.3    62  LYS62       0.1561
     30  C         -9.8010   24.1970  -35.7700 C.2    62  LYS62       0.2260
     31  O        -11.0280   24.0700  -35.7390 O.2    62  LYS62      -0.2867
     32  CB        -8.7960   22.9740  -37.7340 C.3    62  LYS62       0.0271
     33  CG        -8.0790   23.0970  -39.0670 C.3    62  LYS62       0.0035
     34  CD        -7.9320   21.7550  -39.7600 C.3    62  LYS62       0.0206
     35  CE        -7.3990   21.9110  -41.1780 C.3    62  LYS62       0.1093
     36  NZ        -7.2470   20.5920  -41.8560 N.3    62  LYS62      -0.1314
     37  N        -11.4940   27.6300  -35.3180 N.3    65  MET65      -0.1245
     38  CA       -12.6380   27.7090  -36.2230 C.3    65  MET65       0.1570
     39  C        -13.8510   26.9830  -35.6680 C.2    65  MET65       0.2261
     40  O        -14.9730   27.4940  -35.7230 O.2    65  MET65      -0.2867
     41  CB       -12.2940   27.1550  -37.6080 C.3    65  MET65       0.0387
     42  CG       -11.4290   28.0950  -38.4450 C.3    65  MET65       0.0595
     43  SD       -10.8470   27.3490  -39.9740 S.3    65  MET65      -0.1393
     44  CE       -12.3670   27.1130  -40.8970 C.3    65  MET65       0.0692
     45  N         -8.5110   31.8120  -48.4550 N.3   141  PHE141     -0.1241
     46  CA        -9.0260   30.7240  -47.6420 C.3   141  PHE141      0.1605
     47  C        -10.3360   30.2240  -48.2370 C.2   141  PHE141      0.2264
     48  O        -10.6010   29.0220  -48.2500 O.2   141  PHE141     -0.2867
     49  CB        -9.2160   31.1380  -46.1780 C.3   141  PHE141      0.0534
     50  CG        -9.4930   29.9790  -45.2660 C.ar  141  PHE141     -0.0203
     51  CD1       -8.4490   29.1840  -44.7950 C.ar  141  PHE141     -0.0042
     52  CD2      -10.7940   29.6560  -44.9050 C.ar  141  PHE141     -0.0042
     53  CE1       -8.6940   28.1000  -43.9640 C.ar  141  PHE141     -0.0003
     54  CE2      -11.0460   28.5710  -44.0700 C.ar  141  PHE141     -0.0003
     55  CZ        -9.9940   27.7930  -43.5980 C.ar  141  PHE141     -0.0000
     56  N        -10.5300   26.5310  -49.9540 N.3   145  THR145     -0.1218
     57  CA       -11.4620   25.6360  -49.2880 C.3   145  THR145      0.1862
     58  C        -12.6020   25.2280  -50.2100 C.2   145  THR145      0.2287
     59  O        -13.0440   24.0850  -50.1880 O.2   145  THR145     -0.2866
     60  CB       -12.0270   26.2720  -48.0040 C.3   145  THR145      0.1770
     61  OG1      -10.9550   26.4810  -47.0780 O.3   145  THR145     -0.2211
     62  CG2      -13.0720   25.3550  -47.3660 C.3   145  THR145      0.0375
     63  N        -13.2290   21.2190  -51.3100 N.3   149  LYS149     -0.1245
     64  CA       -14.5070   20.5600  -51.0450 C.3   149  LYS149      0.1561
     65  C        -15.1600   20.0460  -52.3200 C.2   149  LYS149      0.2260
     66  O        -15.8530   19.0290  -52.3070 O.2   149  LYS149     -0.2867
     67  CB       -15.4760   21.5030  -50.3240 C.3   149  LYS149      0.0271
     68  CG       -15.1370   21.7520  -48.8700 C.3   149  LYS149      0.0035
     69  CD       -16.1390   22.7020  -48.2270 C.3   149  LYS149      0.0206
     70  CE       -15.7500   23.0080  -46.7880 C.3   149  LYS149      0.1093
     71  NZ       -15.7320   21.7760  -45.9320 N.3   149  LYS149     -0.1314
     72  N        -19.0310   12.3590  -44.7860 N.3   160  ARG160     -0.1245
     73  CA       -18.8250   13.5930  -44.0370 C.3   160  ARG160      0.1563
     74  C        -20.1470   14.3100  -43.7770 C.2   160  ARG160      0.2260
     75  O        -20.3180   14.9410  -42.7350 O.2   160  ARG160     -0.2867
     76  CB       -17.8490   14.5190  -44.7630 C.3   160  ARG160      0.0307
     77  CG       -16.4200   14.0410  -44.6730 C.3   160  ARG160      0.0489
     78  CD       -15.4590   14.9600  -45.3930 C.3   160  ARG160      0.2205
     79  NE       -14.2290   14.2530  -45.7270 N.pl3 160  ARG160     -0.0865
     80  CZ       -13.0270   14.8100  -45.7530 C.cat 160  ARG160      0.5346
     81  NH1      -12.8880   16.0970  -45.4540 N.pl3 160  ARG160      0.1354
     82  NH2      -11.9640   14.0770  -46.0720 N.pl3 160  ARG160      0.1354
     83  N        -17.2240   20.9390  -37.1110 N.3   196  ILE196     -0.1231
     84  CA       -16.2760   21.7810  -37.8330 C.3   196  ILE196      0.1692
     85  C        -14.8380   21.2770  -37.6670 C.2   196  ILE196      0.2593
     86  O        -14.1390   21.0330  -38.6520 O.2   196  ILE196     -0.2718
     87  CB       -16.3680   23.2640  -37.3760 C.3   196  ILE196      0.0266
     88  CG1      -17.6450   23.9010  -37.9200 C.3   196  ILE196      0.0019
     89  CG2      -15.1460   24.0570  -37.8350 C.3   196  ILE196      0.0020
     90  CD1      -17.6990   23.9450  -39.4410 C.3   196  ILE196      0.0001
     91  N        -14.3900   21.1150  -36.4280 N.am  197  THR197     -0.1939
     92  CA       -13.0100   20.6820  -36.2040 C.3   197  THR197      0.2028
     93  C        -12.6910   19.2620  -36.7170 C.2   197  THR197      0.2643
     94  O        -11.6250   19.0290  -37.2920 O.2   197  THR197     -0.2714
     95  CB       -12.5910   20.8390  -34.7420 C.3   197  THR197      0.1808
     96  OG1      -12.7060   22.2170  -34.3730 O.3   197  THR197     -0.2208
     97  CG2      -11.1540   20.3960  -34.5600 C.3   197  THR197      0.0379
     98  N        -13.6120   18.3240  -36.5320 N.am  198  SER198     -0.1935
     99  CA       -13.3870   16.9560  -37.0070 C.3   198  SER198      0.2055
    100  C        -13.3720   16.8860  -38.5280 C.2   198  SER198      0.2644
    101  O        -12.7770   15.9690  -39.0980 O.2   198  SER198     -0.2714
    102  CB       -14.4270   15.9780  -36.4420 C.3   198  SER198      0.2130
    103  OG       -14.4150   15.9710  -35.0200 O.3   198  SER198     -0.2179
    104  N        -14.0350   17.8420  -39.1820 N.am  199  GLY199     -0.1939
    105  CA       -14.0100   17.9310  -40.6360 C.3   199  GLY199      0.2014
    106  C        -15.2260   17.3780  -41.3740 C.2   199  GLY199      0.2638
    107  O        -15.1040   16.8250  -42.4650 O.2   199  GLY199     -0.2714
    108  N        -16.4090   17.5380  -40.7940 N.am  200  PHE200     -0.1973
    109  CA       -17.6290   17.0510  -41.4270 C.3   200  PHE200      0.1639
    110  C        -18.2660   18.1260  -42.3240 C.2   200  PHE200      0.2290
    111  O        -17.9310   19.3080  -42.2260 O.2   200  PHE200     -0.2864
    112  CB       -18.6000   16.5370  -40.3630 C.3   200  PHE200      0.0560
    113  CG       -17.9860   15.5220  -39.4280 C.ar  200  PHE200     -0.0200
    114  CD1      -17.0950   14.5790  -39.9020 C.ar  200  PHE200     -0.0042
    115  CD2      -18.2890   15.5300  -38.0660 C.ar  200  PHE200     -0.0042
    116  CE1      -16.5260   13.6530  -39.0480 C.ar  200  PHE200     -0.0003
    117  CE2      -17.7220   14.6060  -37.2000 C.ar  200  PHE200     -0.0003
    118  CZ       -16.8390   13.6680  -37.6890 C.ar  200  PHE200     -0.0000
    119  N        -21.3300   20.3320  -44.1730 N.3   202  HIS202     -0.1241
    120  CA       -22.6140   20.9400  -43.8780 C.3   202  HIS202      0.1621
    121  C        -23.1060   21.6340  -45.1520 C.2   202  HIS202      0.2264
    122  O        -22.4420   22.5390  -45.6660 O.2   202  HIS202     -0.2867
    123  CB       -22.4100   21.9330  -42.7320 C.3   202  HIS202      0.0745
    124  CG       -23.6720   22.4790  -42.1480 C.ar  202  HIS202      0.0817
    125  ND1      -24.4100   23.4720  -42.7590 N.ar  202  HIS202     -0.2268
    126  CD2      -24.3070   22.2070  -40.9820 C.ar  202  HIS202      0.1154
    127  CE1      -25.4520   23.7720  -42.0050 C.ar  202  HIS202      0.1986
    128  NE2      -25.4150   23.0190  -40.9220 N.ar  202  HIS202     -0.2212
    129  N        -24.2350   25.5780  -44.9800 N.3   205  ALA205     -0.1231
    130  CA       -23.0160   26.3640  -44.7980 C.3   205  ALA205      0.1694
    131  C        -22.2030   26.4240  -46.0950 C.2   205  ALA205      0.2592
    132  O        -21.6870   27.4780  -46.4680 O.2   205  ALA205     -0.2718
    133  CB       -22.1660   25.7970  -43.6410 C.3   205  ALA205      0.0304
    134  N        -22.0930   25.2900  -46.7820 N.am  206  ASN206     -0.1974
    135  CA       -21.4240   25.2520  -48.0850 C.3   206  ASN206      0.1688
    136  C        -22.0420   26.1780  -49.1350 C.2   206  ASN206      0.2292
    137  O        -21.3560   26.6300  -50.0470 O.2   206  ASN206     -0.2864
    138  CB       -21.3380   23.8160  -48.6070 C.3   206  ASN206      0.1181
    139  CG       -20.2860   23.0130  -47.8860 C.2   206  ASN206      0.2629
    140  OD1      -19.7100   23.4790  -46.9030 O.2   206  ASN206     -0.2716
    141  ND2      -20.0210   21.8090  -48.3670 N.am  206  ASN206     -0.0877
    142  N        -20.1630   29.3260  -48.7090 N.3   209  ILE209     -0.1245
    143  CA       -18.8000   29.1570  -49.1910 C.3   209  ILE209      0.1561
    144  C        -18.7260   29.3510  -50.7070 C.2   209  ILE209      0.2260
    145  O        -17.8800   30.1030  -51.2030 O.2   209  ILE209     -0.2867
    146  CB       -18.2290   27.7770  -48.8220 C.3   209  ILE209      0.0252
    147  CG1      -17.9430   27.7100  -47.3170 C.3   209  ILE209      0.0019
    148  CG2      -16.9650   27.4980  -49.6300 C.3   209  ILE209      0.0019
    149  CD1      -17.5870   26.3320  -46.8180 C.3   209  ILE209      0.0001
@<TRIPOS>BOND
     1    65    66    2
     2    65    64    1
     3    63    64    1
     4   145   144    2
     5    64    67    1
     6   144   143    1
     7    67    68    1
     8    58    59    2
     9    58    57    1
    10   137   136    2
    11    56    57    1
    12   148   146    1
    13    57    60    1
    14   143   146    1
    15   143   142    1
    16   136   135    1
    17    68    69    1
    18   146   147    1
    19   138   135    1
    20   138   139    1
    21    45    46    1
    22   141   139   am
    23    48    47    2
    24    47    46    1
    25    69    70    1
    26   135   134    1
    27    60    62    1
    28    60    61    1
    29   139   140    2
    30    46    49    1
    31   147   149    1
    32    70    71    1
    33   134   131   am
    34   132   131    2
    35    26    24   ar
    36    26    27   ar
    37    49    50    1
    38   131   130    1
    39    82    80    1
    40    24    22   ar
    41    80    79    2
    42    80    81    1
    43    79    78    1
    44   122   121    2
    45    27    25   ar
    46    78    77    1
    47    50    52   ar
    48    50    51   ar
    49   121   120    1
    50   129   130    1
    51    52    54   ar
    52   130   133    1
    53    51    53   ar
    54    72    73    1
    55    76    77    1
    56    76    73    1
    57     7     5    1
    58    22    21    1
    59    22    23   ar
    60   119   120    1
    61    25    23   ar
    62    54    55   ar
    63    73    74    1
    64    21    18    1
    65    53    55   ar
    66   120   123    1
    67    74    75    2
    68     5     6    1
    69     5     2    1
    70     6     8    1
    71    20    19    2
    72   125   124   ar
    73   125   127   ar
    74   123   124    1
    75    18    19    1
    76    18    17    1
    77     4     3    2
    78   107   106    2
    79     3     2    1
    80   110   111    2
    81   110   109    1
    82     2     1    1
    83   124   126   ar
    84   127   128   ar
    85    36    35    1
    86    17    11   am
    87   109   108    1
    88   109   112    1
    89   106   108   am
    90   106   105    1
    91    35    34    1
    92   126   128   ar
    93    44    43    1
    94   105   104    1
    95   112   113    1
    96    11    12    2
    97    11    10    1
    98    43    42    1
    99    14    16    1
   100    14    13    1
   101   114   113   ar
   102   114   116   ar
   103    34    33    1
   104    90    88    1
   105   113   115   ar
   106     9    10    1
   107   104   100   am
   108    10    13    1
   109   101   100    2
   110    33    32    1
   111   116   118   ar
   112    13    15    1
   113    86    85    2
   114   100    99    1
   115    42    41    1
   116   115   117   ar
   117    88    87    1
   118    89    87    1
   119    84    85    1
   120    84    87    1
   121    84    83    1
   122    32    29    1
   123   118   117   ar
   124    85    91   am
   125    41    38    1
   126    94    93    2
   127    29    28    1
   128    29    30    1
   129    99    98    1
   130    99   102    1
   131    93    98   am
   132    93    92    1
   133   102   103    1
   134    91    92    1
   135    38    39    1
   136    38    37    1
   137    92    95    1
   138    30    31    2
   139    40    39    2
   140    95    97    1
   141    95    96    1
