@<TRIPOS>MOLECULE
tmp/3te5C00.pdb
 217 207 0 0 0
SMALL
GASTEIGER

@<TRIPOS>ATOM
      1  N        -27.3310   54.6150   -6.4670 N.3    77  THR77      -0.1218
      2  CA       -25.8920   54.8850   -6.3630 C.3    77  THR77       0.1862
      3  C        -25.0470   53.7130   -6.8660 C.2    77  THR77       0.2287
      4  O        -24.1080   53.9030   -7.6450 O.2    77  THR77      -0.2866
      5  CB       -25.4990   55.2400   -4.9160 C.3    77  THR77       0.1770
      6  OG1      -26.1450   56.4660   -4.5520 O.3    77  THR77      -0.2211
      7  CG2      -23.9890   55.4180   -4.7850 C.3    77  THR77       0.0375
      8  N        -31.4760   62.4080    8.0650 N.3   132  LEU132     -0.1245
      9  CA       -30.9590   63.6860    7.5880 C.3   132  LEU132      0.1561
     10  C        -29.4400   63.7190    7.5700 C.2   132  LEU132      0.2260
     11  O        -28.8300   64.0190    6.5440 O.2   132  LEU132     -0.2867
     12  CB       -31.4570   64.8350    8.4630 C.3   132  LEU132      0.0270
     13  CG       -32.7070   65.6300    8.0890 C.3   132  LEU132      0.0019
     14  CD1      -32.7720   66.8410    8.9990 C.3   132  LEU132      0.0001
     15  CD2      -32.7040   66.0640    6.6240 C.3   132  LEU132      0.0001
     16  N        -27.1090   61.7700    5.3980 N.3   135  ARG135     -0.1231
     17  CA       -27.2490   62.2420    4.0170 C.3   135  ARG135      0.1694
     18  C        -27.7780   61.1240    3.1200 C.2   135  ARG135      0.2593
     19  O        -27.1190   60.6730    2.1820 O.2   135  ARG135     -0.2718
     20  CB       -25.9400   62.8550    3.4960 C.3   135  ARG135      0.0321
     21  CG       -25.6780   64.2740    4.0130 C.3   135  ARG135      0.0489
     22  CD       -24.3360   64.8160    3.5160 C.3   135  ARG135      0.2205
     23  NE       -23.9810   66.1030    4.1230 N.pl3 135  ARG135     -0.0865
     24  CZ       -23.4330   66.2530    5.3310 C.cat 135  ARG135      0.5346
     25  NH1      -23.1670   65.1980    6.0950 N.pl3 135  ARG135      0.1354
     26  NH2      -23.1490   67.4690    5.7820 N.pl3 135  ARG135      0.1354
     27  N        -28.9770   60.6680    3.4610 N.am  136  SER136     -0.1938
     28  CA       -29.6660   59.6130    2.7380 C.3   136  SER136      0.2055
     29  C        -31.1590   59.9100    2.7690 C.2   136  SER136      0.2643
     30  O        -31.6400   60.5500    3.7030 O.2   136  SER136     -0.2714
     31  CB       -29.3850   58.2550    3.3880 C.3   136  SER136      0.2130
     32  OG       -30.2160   57.2470    2.8430 O.3   136  SER136     -0.2179
     33  N        -31.8810   59.4530    1.7480 N.am  137  GLY137     -0.1954
     34  CA       -33.3320   59.6170    1.6900 C.3   137  GLY137      0.1869
     35  C        -34.0920   58.4490    2.2910 C.2   137  GLY137      0.2309
     36  O        -35.3240   58.4260    2.2690 O.2   137  GLY137     -0.2863
     37  N        -37.9540   59.1760    3.5300 N.3   159  GLN159     -0.1245
     38  CA       -38.3780   60.5470    3.8140 C.3   159  GLN159      0.1566
     39  C        -39.8000   60.8110    3.3500 C.2   159  GLN159      0.2260
     40  O        -40.5900   61.4080    4.0880 O.2   159  GLN159     -0.2867
     41  CB       -37.4790   61.5490    3.1070 C.3   159  GLN159      0.0367
     42  CG       -36.1070   61.6620    3.6620 C.3   159  GLN159      0.0905
     43  CD       -35.3230   62.7740    3.0020 C.2   159  GLN159      0.2608
     44  OE1      -35.1640   62.8060    1.7780 O.2   159  GLN159     -0.2717
     45  NE2      -34.8270   63.6940    3.8120 N.am  159  GLN159     -0.0878
     46  N        -32.3850   75.8470   -1.1920 N.3   187  THR187     -0.1218
     47  CA       -31.0120   76.0250   -1.6400 C.3   187  THR187      0.1862
     48  C        -31.0270   76.7940   -2.9560 C.2   187  THR187      0.2287
     49  O        -31.6460   76.3680   -3.9320 O.2   187  THR187     -0.2866
     50  CB       -30.2120   74.7020   -1.7520 C.3   187  THR187      0.1770
     51  OG1      -30.4200   74.1040   -3.0330 O.3   187  THR187     -0.2211
     52  CG2      -30.6030   73.7360   -0.6520 C.3   187  THR187      0.0375
     53  N        -27.9000   78.7730   -3.7530 N.3   189  ASP189     -0.1225
     54  CA       -26.4900   78.9240   -4.0900 C.3   189  ASP189      0.1805
     55  C        -25.9010   77.6690   -4.7030 C.2   189  ASP189      0.2598
     56  O        -26.1620   76.5600   -4.2400 O.2   189  ASP189     -0.2718
     57  CB       -25.6850   79.3310   -2.8520 C.3   189  ASP189      0.1424
     58  CG       -26.1480   80.6520   -2.2630 C.2   189  ASP189      0.3668
     59  OD1      -26.9990   81.3280   -2.8890 O.co2 189  ASP189     -0.2456
     60  OD2      -25.6610   81.0150   -1.1710 O.co2 189  ASP189     -0.2456
     61  N        -25.1050   77.8690   -5.7520 N.am  190  ASN190     -0.1960
     62  CA       -24.3580   76.7990   -6.4120 C.3   190  ASN190      0.1819
     63  C        -25.2490   75.6380   -6.8580 C.2   190  ASN190      0.2621
     64  O        -25.0140   74.4760   -6.5050 O.2   190  ASN190     -0.2715
     65  CB       -23.1990   76.3200   -5.5240 C.3   190  ASN190      0.1195
     66  CG       -22.4240   77.4740   -4.9040 C.2   190  ASN190      0.2630
     67  OD1      -22.3050   77.5710   -3.6800 O.2   190  ASN190     -0.2716
     68  ND2      -21.9110   78.3680   -5.7460 N.am  190  ASN190     -0.0877
     69  N        -26.2820   75.9790   -7.6250 N.am  191  MET191     -0.1963
     70  CA       -27.1410   74.9920   -8.2580 C.3   191  MET191      0.1736
     71  C        -26.3480   74.2510   -9.3160 C.2   191  MET191      0.2616
     72  O        -25.8250   74.8610  -10.2550 O.2   191  MET191     -0.2715
     73  CB       -28.3590   75.6600   -8.9040 C.3   191  MET191      0.0427
     74  CG       -29.4190   76.1540   -7.9250 C.3   191  MET191      0.0599
     75  SD       -30.1650   74.8580   -6.9040 S.3   191  MET191     -0.1393
     76  CE       -30.9940   73.8540   -8.1360 C.3   191  MET191      0.0692
     77  N        -26.2350   72.9370   -9.1490 N.am  192  LYS192     -0.1977
     78  CA       -25.6560   72.0980  -10.1860 C.3   192  LYS192      0.1596
     79  C        -26.7410   71.8300  -11.2200 C.2   192  LYS192      0.2287
     80  O        -27.7970   71.2920  -10.8900 O.2   192  LYS192     -0.2864
     81  CB       -25.1230   70.7900   -9.5990 C.3   192  LYS192      0.0298
     82  CG       -23.7890   71.0600   -8.9670 C.3   192  LYS192      0.0038
     83  CD       -23.4590   69.7910   -8.3170 C.3   192  LYS192      0.0206
     84  CE       -21.9330   69.6310   -8.1050 C.3   192  LYS192      0.1093
     85  NZ       -21.1500   69.3120   -9.3460 N.3   192  LYS192     -0.1314
     86  N        -24.3410   63.8420  -10.5550 N.3   207  LEU207     -0.1231
     87  CA       -25.1320   63.2260   -9.4910 C.3   207  LEU207      0.1693
     88  C        -24.2760   62.7590   -8.3110 C.2   207  LEU207      0.2592
     89  O        -24.5510   63.1320   -7.1720 O.2   207  LEU207     -0.2718
     90  CB       -26.0070   62.0880  -10.0380 C.3   207  LEU207      0.0284
     91  CG       -27.1880   62.4930  -10.9310 C.3   207  LEU207      0.0019
     92  CD1      -27.7400   61.2890  -11.6750 C.3   207  LEU207      0.0001
     93  CD2      -28.2850   63.1720  -10.1230 C.3   207  LEU207      0.0001
     94  N        -23.2340   61.9710   -8.5820 N.am  208  THR208     -0.1953
     95  CA       -22.3320   61.5030   -7.5150 C.3   208  THR208      0.1897
     96  C        -21.3590   62.5670   -7.0220 C.2   208  THR208      0.2313
     97  O        -20.9880   62.5780   -5.8470 O.2   208  THR208     -0.2863
     98  CB       -21.5400   60.2200   -7.8970 C.3   208  THR208      0.1794
     99  OG1      -21.2390   60.2190   -9.3000 O.3   208  THR208     -0.2208
    100  CG2      -22.3430   58.9640   -7.5370 C.3   208  THR208      0.0378
    101  N        -23.5190   64.7310   -4.8150 N.3   211  ARG211     -0.1231
    102  CA       -24.2840   63.9200   -3.8600 C.3   211  ARG211      0.1694
    103  C        -25.7470   64.3830   -3.7900 C.2   211  ARG211      0.2592
    104  O        -26.2760   64.6640   -2.7110 O.2   211  ARG211     -0.2718
    105  CB       -23.6270   63.9200   -2.4700 C.3   211  ARG211      0.0321
    106  CG       -22.1650   63.4670   -2.4670 C.3   211  ARG211      0.0489
    107  CD       -21.5380   63.6680   -1.0970 C.3   211  ARG211      0.2205
    108  NE       -22.0030   62.6720   -0.1300 N.pl3 211  ARG211     -0.0865
    109  CZ       -21.9630   62.8210    1.1920 C.cat 211  ARG211      0.5346
    110  NH1      -21.4860   63.9370    1.7370 N.pl3 211  ARG211      0.1354
    111  NH2      -22.4110   61.8500    1.9760 N.pl3 211  ARG211      0.1354
    112  N        -26.3790   64.4650   -4.9600 N.am  212  VAL212     -0.1966
    113  CA       -27.7540   64.9440   -5.0890 C.3   212  VAL212      0.1727
    114  C        -28.6070   63.9420   -5.8720 C.2   212  VAL212      0.2617
    115  O        -28.0840   63.1610   -6.6730 O.2   212  VAL212     -0.2715
    116  CB       -27.8260   66.3520   -5.7600 C.3   212  VAL212      0.0290
    117  CG1      -27.2780   67.4280   -4.8290 C.3   212  VAL212      0.0023
    118  CG2      -27.0870   66.3660   -7.1040 C.3   212  VAL212      0.0023
    119  N        -29.9160   63.9690   -5.6240 N.am  213  SER213     -0.1936
    120  CA       -30.8610   63.0390   -6.2480 C.3   213  SER213      0.2055
    121  C        -31.1970   63.3960   -7.6970 C.2   213  SER213      0.2644
    122  O        -31.6360   62.5370   -8.4640 O.2   213  SER213     -0.2714
    123  CB       -32.1530   62.9660   -5.4320 C.3   213  SER213      0.2130
    124  OG       -31.9220   62.3740   -4.1680 O.3   213  SER213     -0.2179
    125  N        -31.0130   64.6600   -8.0670 N.am  214  SER214     -0.1935
    126  CA       -31.3710   65.0990   -9.4110 C.3   214  SER214      0.2055
    127  C        -30.5590   66.2910   -9.9120 C.2   214  SER214      0.2643
    128  O        -29.9720   67.0410   -9.1250 O.2   214  SER214     -0.2714
    129  CB       -32.8750   65.3920   -9.5040 C.3   214  SER214      0.2130
    130  OG       -33.1970   66.5970   -8.8440 O.3   214  SER214     -0.2179
    131  N        -30.5410   66.4460  -11.2340 N.am  215  VAL215     -0.1963
    132  CA       -29.9090   67.5790  -11.8880 C.3   215  VAL215      0.1712
    133  C        -30.9490   68.2840  -12.7590 C.2   215  VAL215      0.2458
    134  O        -31.4800   67.6870  -13.7020 O.2   215  VAL215     -0.2730
    135  CB       -28.6850   67.1440  -12.7430 C.3   215  VAL215      0.0289
    136  CG1      -28.1000   68.3330  -13.5060 C.3   215  VAL215      0.0023
    137  CG2      -27.6220   66.4880  -11.8620 C.3   215  VAL215      0.0023
    138  N        -31.2560   69.5530  -12.4280 N.am  216  PRO216     -0.2727
    139  CA       -32.1690   70.3810  -13.2090 C.3   216  PRO216      0.1402
    140  C        -31.6180   70.6920  -14.5950 C.2   216  PRO216      0.2269
    141  O        -30.4230   70.9520  -14.7470 O.2   216  PRO216     -0.2865
    142  CB       -32.2840   71.6670  -12.3800 C.3   216  PRO216      0.0296
    143  CG       -31.1400   71.6470  -11.4540 C.3   216  PRO216      0.0237
    144  CD       -30.8570   70.2160  -11.1760 C.3   216  PRO216      0.0939
    145  N        -31.5000   60.4780  -10.4550 N.3   230  ALA230     -0.1245
    146  CA       -30.7970   59.2100  -10.2830 C.3   230  ALA230      0.1562
    147  C        -31.7070   58.0150  -10.5940 C.2   230  ALA230      0.2260
    148  O        -31.2350   57.0050  -11.1180 O.2   230  ALA230     -0.2867
    149  CB       -30.2370   59.1010   -8.8840 C.3   230  ALA230      0.0290
    150  N        -40.9430   64.3000   -4.7320 N.3   285  HIS285     -0.1226
    151  CA       -39.6460   64.1740   -4.0760 C.3   285  HIS285      0.1752
    152  C        -38.9280   65.4980   -3.8860 C.2   285  HIS285      0.2595
    153  O        -38.0750   65.6250   -3.0160 O.2   285  HIS285     -0.2718
    154  CB       -38.7590   63.1600   -4.8020 C.3   285  HIS285      0.0759
    155  CG       -39.1940   61.7430   -4.6090 C.ar  285  HIS285      0.0818
    156  ND1      -39.5270   60.9150   -5.6600 N.ar  285  HIS285     -0.2268
    157  CD2      -39.3680   61.0100   -3.4820 C.ar  285  HIS285      0.1154
    158  CE1      -39.8800   59.7320   -5.1870 C.ar  285  HIS285      0.1986
    159  NE2      -39.7910   59.7630   -3.8680 N.ar  285  HIS285     -0.2212
    160  N        -39.2880   66.4840   -4.6940 N.am  286  ARG286     -0.1980
    161  CA       -38.7560   67.8280   -4.5490 C.3   286  ARG286      0.1597
    162  C        -39.6170   68.8140   -5.3130 C.2   286  ARG286      0.2287
    163  O        -40.4100   68.4280   -6.1760 O.2   286  ARG286     -0.2864
    164  CB       -37.2970   67.9020   -5.0360 C.3   286  ARG286      0.0334
    165  CG       -37.1170   67.7220   -6.5370 C.3   286  ARG286      0.0492
    166  CD       -35.7300   67.2170   -6.8650 C.3   286  ARG286      0.2205
    167  NE       -35.5350   65.8330   -6.4410 N.pl3 286  ARG286     -0.0865
    168  CZ       -35.8110   64.7640   -7.1840 C.cat 286  ARG286      0.5346
    169  NH1      -36.3110   64.8980   -8.4130 N.pl3 286  ARG286      0.1354
    170  NH2      -35.5900   63.5530   -6.6940 N.pl3 286  ARG286      0.1354
    171  N        -38.9160   72.2150   -7.4970 N.3   288  PHE288     -0.1241
    172  CA       -37.9830   73.1570   -8.0690 C.3   288  PHE288      0.1605
    173  C        -38.5680   74.5570   -8.0580 C.2   288  PHE288      0.2264
    174  O        -39.6310   74.8010   -8.6100 O.2   288  PHE288     -0.2867
    175  CB       -37.5600   72.7240   -9.4700 C.3   288  PHE288      0.0534
    176  CG       -36.5210   71.6520   -9.4630 C.ar  288  PHE288     -0.0203
    177  CD1      -35.1830   71.9700   -9.2590 C.ar  288  PHE288     -0.0042
    178  CD2      -36.8780   70.3210   -9.6350 C.ar  288  PHE288     -0.0042
    179  CE1      -34.2190   70.9820   -9.2370 C.ar  288  PHE288     -0.0003
    180  CE2      -35.9180   69.3240   -9.6160 C.ar  288  PHE288     -0.0003
    181  CZ       -34.5870   69.6560   -9.4110 C.ar  288  PHE288     -0.0000
    182  N        -34.1950   75.0070   -5.3910 N.3   299  VAL299     -0.1245
    183  CA       -34.8660   73.7290   -5.1650 C.3   299  VAL299      0.1561
    184  C        -35.2160   73.5250   -3.6840 C.2   299  VAL299      0.2260
    185  O        -34.4530   73.9150   -2.7940 O.2   299  VAL299     -0.2867
    186  CB       -34.0270   72.5380   -5.7290 C.3   299  VAL299      0.0252
    187  CG1      -32.6700   72.4150   -5.0180 C.3   299  VAL299      0.0019
    188  CG2      -34.8010   71.2430   -5.6560 C.3   299  VAL299      0.0019
    189  N        -36.1800   70.3280   -1.4240 N.3   301  THR301     -0.1203
    190  CA       -36.3190   68.8740   -1.3670 C.3   301  THR301      0.1994
    191  C        -37.0100   68.4290   -0.0880 C.2   301  THR301      0.2618
    192  O        -37.2540   69.2340    0.8150 O.2   301  THR301     -0.2717
    193  CB       -34.9640   68.1600   -1.4870 C.3   301  THR301      0.1784
    194  OG1      -34.1720   68.4320   -0.3230 O.3   301  THR301     -0.2211
    195  CG2      -34.2260   68.6270   -2.7380 C.3   301  THR301      0.0376
    196  N        -37.3190   67.1400   -0.0210 N.am  302  LEU302     -0.1965
    197  CA       -37.9150   66.5540    1.1620 C.3   302  LEU302      0.1728
    198  C        -36.9760   66.6830    2.3610 C.2   302  LEU302      0.2617
    199  O        -37.4300   66.8900    3.4890 O.2   302  LEU302     -0.2715
    200  CB       -38.2930   65.0930    0.9090 C.3   302  LEU302      0.0311
    201  CG       -39.3180   64.7980   -0.1960 C.3   302  LEU302      0.0022
    202  CD1      -39.5980   63.3160   -0.2440 C.3   302  LEU302      0.0001
    203  CD2      -40.6320   65.5810   -0.0410 C.3   302  LEU302      0.0001
    204  N        -35.6690   66.5830    2.1100 N.am  303  SER303     -0.1936
    205  CA       -34.6790   66.7680    3.1700 C.3   303  SER303      0.2055
    206  C        -34.6660   68.2010    3.6920 C.2   303  SER303      0.2643
    207  O        -34.4380   68.4180    4.8770 O.2   303  SER303     -0.2714
    208  CB       -33.2800   66.3060    2.7370 C.3   303  SER303      0.2130
    209  OG       -32.7410   67.1250    1.7140 O.3   303  SER303     -0.2179
    210  N        -34.9350   69.1750    2.8220 N.am  304  ASP304     -0.1971
    211  CA       -35.0400   70.5700    3.2570 C.3   304  ASP304      0.1709
    212  C        -36.2990   70.7750    4.0970 C.2   304  ASP304      0.2293
    213  O        -36.2810   71.4830    5.1080 O.2   304  ASP304     -0.2864
    214  CB       -35.0350   71.5330    2.0680 C.3   304  ASP304      0.1436
    215  CG       -33.7460   71.4580    1.2380 C.2   304  ASP304      0.3671
    216  OD1      -32.6300   71.4490    1.8140 O.co2 304  ASP304     -0.2456
    217  OD2      -33.8600   71.4300   -0.0040 O.co2 304  ASP304     -0.2456
@<TRIPOS>BOND
     1   141   140    2
     2   140   139    1
     3   134   133    2
     4   136   135    1
     5   139   138    1
     6   139   142    1
     7   133   138   am
     8   133   132    1
     9   135   132    1
    10   135   137    1
    11   138   144    1
    12   142   143    1
    13   132   131    1
    14    92    91    1
    15   143   144    1
    16   131   127   am
    17    79    80    2
    18    79    78    1
    19   148   147    2
    20    91    93    1
    21    91    90    1
    22   147   146    1
    23    86    87    1
    24   145   146    1
    25   146   149    1
    26    72    71    2
    27    78    81    1
    28    78    77    1
    29    90    87    1
    30   127   126    1
    31   127   128    2
    32   178   180   ar
    33   178   176   ar
    34   180   181   ar
    35    81    82    1
    36   129   126    1
    37   129   130    1
    38    87    88    1
    39   175   176    1
    40   175   172    1
    41   176   177   ar
    42   126   125    1
    43   181   179   ar
    44    85    84    1
    45    71    77   am
    46    71    70    1
    47    99    98    1
    48   177   179   ar
    49    82    83    1
    50    73    70    1
    51    73    74    1
    52   174   173    2
    53    94    88   am
    54    94    95    1
    55   122   121    2
    56   169   168    1
    57    83    84    1
    58    88    89    2
    59    70    69    1
    60    76    75    1
    61   172   173    1
    62   172   171    1
    63   125   121   am
    64    74    75    1
    65    98   100    1
    66    98    95    1
    67   121   120    1
    68     4     3    2
    69    69    63   am
    70    95    96    1
    71   168   170    1
    72   168   167    2
    73   118   116    1
    74    96    97    2
    75     3     2    1
    76   166   165    1
    77   166   167    1
    78    63    64    2
    79    63    62    1
    80   115   114    2
    81   165   164    1
    82     1     2    1
    83    62    61    1
    84    62    65    1
    85     2     5    1
    86   120   119    1
    87   120   123    1
    88   163   162    2
    89   114   119   am
    90   114   113    1
    91   116   113    1
    92   116   117    1
    93    61    55   am
    94    68    66   am
    95   186   188    1
    96   186   183    1
    97   186   187    1
    98   156   158   ar
    99   156   155   ar
   100    65    66    1
   101   123   124    1
   102   182   183    1
   103   162   161    1
   104   158   159   ar
   105   183   184    1
   106   113   112    1
   107   164   161    1
   108   112   103   am
   109     5     7    1
   110     5     6    1
   111    66    67    2
   112   101   102    1
   113   154   155    1
   114   154   151    1
   115   150   151    1
   116    55    56    2
   117    55    54    1
   118   160   161    1
   119   160   152   am
   120   155   157   ar
   121    54    53    1
   122    54    57    1
   123   151   152    1
   124    49    48    2
   125   152   153    2
   126   159   157   ar
   127   102   103    1
   128   102   105    1
   129   103   104    2
   130   184   185    2
   131    51    50    1
   132    48    47    1
   133    59    58   ar
   134    57    58    1
   135   195   193    1
   136   105   106    1
   137   106   107    1
   138    58    60   ar
   139    50    47    1
   140    50    52    1
   141    47    46    1
   142   193   190    1
   143   193   194    1
   144   189   190    1
   145   190   191    1
   146   107   108    1
   147   202   201    1
   148   201   203    1
   149   201   200    1
   150   108   109    2
   151   191   196   am
   152   191   192    2
   153   196   197    1
   154   217   215   ar
   155   200   197    1
   156   197   198    1
   157   109   110    1
   158   109   111    1
   159   215   216   ar
   160   215   214    1
   161    34    33    1
   162    34    35    1
   163   209   208    1
   164    33    29   am
   165    44    43    2
   166   214   211    1
   167   204   198   am
   168   204   205    1
   169    19    18    2
   170    36    35    2
   171   198   199    2
   172   208   205    1
   173    28    29    1
   174    28    31    1
   175    28    27    1
   176    29    30    2
   177   210   211    1
   178   210   206   am
   179    32    31    1
   180    43    42    1
   181    43    45   am
   182    41    42    1
   183    41    38    1
   184    18    27   am
   185    18    17    1
   186   205   206    1
   187   211   212    1
   188    39    38    1
   189    39    40    2
   190    20    21    1
   191    20    17    1
   192    22    21    1
   193    22    23    1
   194    37    38    1
   195   206   207    2
   196    17    16    1
   197   212   213    2
   198    23    24    2
   199    24    26    1
   200    24    25    1
   201    11    10    2
   202    15    13    1
   203    10     9    1
   204     9     8    1
   205     9    12    1
   206    13    12    1
   207    13    14    1
