@<TRIPOS>MOLECULE
tmp/3tegA00.pdb
 113 107 0 0 0
SMALL
GASTEIGER

@<TRIPOS>ATOM
      1  N          6.1160   23.5720   17.5660 N.3   109  HIS109     -0.1241
      2  CA         5.1220   22.6120   17.0790 C.3   109  HIS109      0.1621
      3  C          4.7700   21.6400   18.1810 C.2   109  HIS109      0.2264
      4  O          5.5670   21.4350   19.1100 O.2   109  HIS109     -0.2867
      5  CB         5.5760   21.8820   15.7960 C.3   109  HIS109      0.0745
      6  CG         6.9190   21.2140   15.8810 C.ar  109  HIS109      0.0817
      7  ND1        7.7640   21.3340   16.9680 N.ar  109  HIS109     -0.2268
      8  CD2        7.5810   20.4450   14.9760 C.ar  109  HIS109      0.1154
      9  CE1        8.8740   20.6540   16.7370 C.ar  109  HIS109      0.1986
     10  NE2        8.7900   20.1120   15.5330 N.ar  109  HIS109     -0.2212
     11  N          4.6760   18.5670   17.8720 N.3   111  SER111     -0.1217
     12  CA         5.5690   17.3980   17.7680 C.3   111  SER111      0.1889
     13  C          6.6210   17.3560   18.8850 C.2   111  SER111      0.2288
     14  O          7.2420   16.3090   19.1370 O.2   111  SER111     -0.2866
     15  CB         6.2620   17.3760   16.4120 C.3   111  SER111      0.2089
     16  OG         5.2990   17.4970   15.3800 O.3   111  SER111     -0.2183
     17  N          5.9800   14.4380   21.2260 N.3   114  GLN114     -0.1245
     18  CA         5.9360   13.0480   20.7710 C.3   114  GLN114      0.1566
     19  C          6.7970   12.1080   21.6200 C.2   114  GLN114      0.2260
     20  O          6.3140   11.0780   22.0790 O.2   114  GLN114     -0.2867
     21  CB         6.3760   12.9160   19.3150 C.3   114  GLN114      0.0367
     22  CG         5.4230   13.4910   18.2950 C.3   114  GLN114      0.0905
     23  CD         5.7730   13.0470   16.8920 C.2   114  GLN114      0.2608
     24  OE1        6.6320   12.1780   16.6990 O.2   114  GLN114     -0.2717
     25  NE2        5.0890   13.6180   15.9000 N.am  114  GLN114     -0.0878
     26  N          5.9810   30.7810   16.7170 N.3   133  ARG133     -0.1245
     27  CA         6.9980   30.9950   15.6770 C.3   133  ARG133      0.1563
     28  C          7.1480   32.4690   15.3330 C.2   133  ARG133      0.2260
     29  O          6.1610   33.1990   15.2980 O.2   133  ARG133     -0.2867
     30  CB         6.6570   30.2270   14.3920 C.3   133  ARG133      0.0307
     31  CG         6.5140   28.7350   14.6240 C.3   133  ARG133      0.0489
     32  CD         6.3270   27.9390   13.3390 C.3   133  ARG133      0.2205
     33  NE         5.8640   26.5960   13.6650 N.pl3 133  ARG133     -0.0865
     34  CZ         5.5210   25.6770   12.7700 C.cat 133  ARG133      0.5346
     35  NH1        5.6020   25.9400   11.4660 N.pl3 133  ARG133      0.1354
     36  NH2        5.0970   24.4910   13.1840 N.pl3 133  ARG133      0.1354
     37  N         -1.8890   23.6930   17.1780 N.3   147  GLN147     -0.1245
     38  CA        -1.8000   22.4630   16.4220 C.3   147  GLN147      0.1566
     39  C         -2.4280   21.3280   17.2020 C.2   147  GLN147      0.2260
     40  O         -2.5270   21.3760   18.4310 O.2   147  GLN147     -0.2867
     41  CB        -0.3440   22.1200   16.1370 C.3   147  GLN147      0.0367
     42  CG         0.3980   23.0980   15.2260 C.3   147  GLN147      0.0905
     43  CD         1.7970   22.5700   14.8630 C.2   147  GLN147      0.2608
     44  OE1        2.5360   22.0800   15.7200 O.2   147  GLN147     -0.2717
     45  NE2        2.1450   22.6590   13.5960 N.am  147  GLN147     -0.0878
     46  N         -1.6550   17.2820   17.4080 N.3   149  GLU149     -0.1245
     47  CA        -0.7880   16.1480   17.0950 C.3   149  GLU149      0.1567
     48  C         -1.5360   14.8340   17.3660 C.2   149  GLU149      0.2260
     49  O         -2.3110   14.7330   18.3270 O.2   149  GLU149     -0.2867
     50  CB         0.4580   16.1870   17.9920 C.3   149  GLU149      0.0388
     51  CG         1.6890   15.4410   17.4570 C.3   149  GLU149      0.1160
     52  CD         2.4400   16.2530   16.4150 C.2   149  GLU149      0.3649
     53  OE1        2.0170   17.4060   16.1590 O.co2 149  GLU149     -0.2457
     54  OE2        3.4460   15.7530   15.8530 O.co2 149  GLU149     -0.2457
     55  N          9.9770   15.3320    6.1380 N.3   222  PHE222     -0.1241
     56  CA        10.2110   15.8080    7.4960 C.3   222  PHE222      0.1605
     57  C         11.3200   14.9350    8.0570 C.2   222  PHE222      0.2264
     58  O         11.4400   13.7720    7.6710 O.2   222  PHE222     -0.2867
     59  CB         8.9490   15.6830    8.3580 C.3   222  PHE222      0.0534
     60  CG         7.7690   16.4480    7.8230 C.ar  222  PHE222     -0.0203
     61  CD1        7.6810   17.8350    7.9930 C.ar  222  PHE222     -0.0042
     62  CD2        6.7460   15.7930    7.1610 C.ar  222  PHE222     -0.0042
     63  CE1        6.5830   18.5630    7.4950 C.ar  222  PHE222     -0.0003
     64  CE2        5.6400   16.5120    6.6590 C.ar  222  PHE222     -0.0003
     65  CZ         5.5670   17.8950    6.8200 C.ar  222  PHE222     -0.0000
     66  N         11.4300   13.6740   10.9540 N.3   224  PHE224     -0.1227
     67  CA        10.9310   12.7500   11.9690 C.3   224  PHE224      0.1736
     68  C          9.9630   11.7110   11.4020 C.2   224  PHE224      0.2596
     69  O          9.4400   10.8830   12.1410 O.2   224  PHE224     -0.2718
     70  CB        10.2800   13.5090   13.1490 C.3   224  PHE224      0.0547
     71  CG         9.5600   14.7810   12.7460 C.ar  224  PHE224     -0.0202
     72  CD1        8.1790   14.7830   12.5530 C.ar  224  PHE224     -0.0042
     73  CD2       10.2700   15.9720   12.5660 C.ar  224  PHE224     -0.0042
     74  CE1        7.4970   15.9540   12.1820 C.ar  224  PHE224     -0.0003
     75  CE2        9.6150   17.1600   12.1920 C.ar  224  PHE224     -0.0003
     76  CZ         8.2140   17.1550   12.0000 C.ar  224  PHE224     -0.0000
     77  N          9.7220   11.7500   10.0960 N.am  225  THR225     -0.1953
     78  CA         8.8830   10.7290    9.4830 C.3   225  THR225      0.1897
     79  C          9.4280   10.3680    8.1320 C.2   225  THR225      0.2313
     80  O         10.1460   11.1560    7.5170 O.2   225  THR225     -0.2863
     81  CB         7.4290   11.1990    9.2590 C.3   225  THR225      0.1794
     82  OG1        7.4450   12.4620    8.5830 O.3   225  THR225     -0.2208
     83  CG2        6.6730   11.3350   10.5920 C.3   225  THR225      0.0378
     84  N          0.6800   17.8770    8.1040 N.3   244  GLY244     -0.1210
     85  CA         1.7750   17.0180    7.7050 C.3   244  GLY244      0.1956
     86  C          1.6030   15.6990    8.4400 C.2   244  GLY244      0.2612
     87  O          0.9400   15.6420    9.4700 O.2   244  GLY244     -0.2717
     88  N          2.1910   14.6320    7.9150 N.am  245  CYS245     -0.1970
     89  CA         2.0510   13.3260    8.5390 C.3   245  CYS245      0.1712
     90  C          3.0240   12.3560    7.8900 C.2   245  CYS245      0.2296
     91  O          3.7040   12.6940    6.9350 O.2   245  CYS245     -0.2864
     92  CB         0.6070   12.8070    8.3840 C.3   245  CYS245      0.0983
     93  SG         0.1030   12.4370    6.6580 S.3   245  CYS245     -0.0798
     94  N          2.1440    9.3250   12.5840 N.3   265  ALA265     -0.1231
     95  CA         1.9700   10.5760   13.3020 C.3   265  ALA265      0.1694
     96  C          1.4300   11.6280   12.3360 C.2   265  ALA265      0.2592
     97  O          1.6850   11.5730   11.1370 O.2   265  ALA265     -0.2718
     98  CB         3.2900   11.0220   13.9040 C.3   265  ALA265      0.0304
     99  N          0.6310   12.5530   12.8470 N.am  266  PHE266     -0.1962
    100  CA         0.2480   13.7110   12.0620 C.3   266  PHE266      0.1771
    101  C          0.1530   14.9450   12.9410 C.2   266  PHE266      0.2620
    102  O         -0.0340   14.8330   14.1560 O.2   266  PHE266     -0.2715
    103  CB        -1.0210   13.4720   11.2090 C.3   266  PHE266      0.0574
    104  CG        -2.3040   13.3480   11.9920 C.ar  266  PHE266     -0.0200
    105  CD1       -2.8870   14.4660   12.6010 C.ar  266  PHE266     -0.0042
    106  CD2       -2.9690   12.1280   12.0580 C.ar  266  PHE266     -0.0042
    107  CE1       -4.0920   14.3550   13.2890 C.ar  266  PHE266     -0.0003
    108  CE2       -4.1880   12.0040   12.7480 C.ar  266  PHE266     -0.0003
    109  CZ        -4.7540   13.1250   13.3620 C.ar  266  PHE266     -0.0000
    110  N          0.3490   16.1100   12.3310 N.am  267  GLY267     -0.1954
    111  CA         0.1180   17.3780   12.9990 C.3   267  GLY267      0.1869
    112  C         -0.7730   18.2560   12.1280 C.2   267  GLY267      0.2309
    113  O         -0.4830   18.4740   10.9610 O.2   267  GLY267     -0.2863
@<TRIPOS>BOND
     1    55    56    1
     2    93    92    1
     3    64    65   ar
     4    64    62   ar
     5    65    63   ar
     6    91    90    2
     7    62    60   ar
     8    63    61   ar
     9    56    57    1
    10    56    59    1
    11    80    79    2
    12    58    57    2
    13    85    84    1
    14    85    86    1
    15    60    61   ar
    16    60    59    1
    17    90    89    1
    18    88    86   am
    19    88    89    1
    20    79    78    1
    21    92    89    1
    22    86    87    2
    23    82    81    1
    24    81    78    1
    25    81    83    1
    26    78    77    1
    27    77    68   am
    28    66    67    1
    29   113   112    2
    30    97    96    2
    31   103   104    1
    32   103   100    1
    33    68    67    1
    34    68    69    2
    35    35    34    1
    36    67    70    1
    37   104   106   ar
    38   104   105   ar
    39    76    74   ar
    40    76    75   ar
    41   106   108   ar
    42   100    99    1
    43   100   101    1
    44   112   111    1
    45    74    72   ar
    46    75    73   ar
    47   110   101   am
    48   110   111    1
    49    96    99   am
    50    96    95    1
    51    72    71   ar
    52    73    71   ar
    53    94    95    1
    54   105   107   ar
    55    71    70    1
    56   108   109   ar
    57    34    36    1
    58    34    33    2
    59   101   102    2
    60   107   109   ar
    61    95    98    1
    62    32    33    1
    63    32    31    1
    64    45    43   am
    65    30    31    1
    66    30    27    1
    67    43    42    1
    68    43    44    2
    69     8    10   ar
    70     8     6   ar
    71    42    41    1
    72    29    28    2
    73    28    27    1
    74    16    15    1
    75    10     9   ar
    76    27    26    1
    77     5     6    1
    78     5     2    1
    79    54    52   ar
    80     6     7   ar
    81    25    23   am
    82    41    38    1
    83    53    52   ar
    84    15    12    1
    85    52    51    1
    86    38    37    1
    87    38    39    1
    88    24    23    2
    89     9     7   ar
    90    23    22    1
    91     2     1    1
    92     2     3    1
    93    47    48    1
    94    47    46    1
    95    47    50    1
    96    39    40    2
    97    48    49    2
    98    51    50    1
    99    12    11    1
   100    12    13    1
   101     3     4    2
   102    22    21    1
   103    13    14    2
   104    21    18    1
   105    18    17    1
   106    18    19    1
   107    19    20    2
