@<TRIPOS>MOLECULE
tmp/3temB02.pdb
 88 83 0 0 0
SMALL
GASTEIGER

@<TRIPOS>ATOM
      1  N        -28.2090   -7.8810   16.9820 N.3    67  GLY67      -0.1210
      2  CA       -28.4920   -8.8980   15.9680 C.3    67  GLY67       0.1956
      3  C        -29.9500   -8.9660   15.5870 C.2    67  GLY67       0.2611
      4  O        -30.2780   -8.9940   14.3970 O.2    67  GLY67      -0.2717
      5  N        -30.8460   -8.9780   16.5660 N.am   68  VAL68      -0.1979
      6  CA       -32.2660   -9.0320   16.2390 C.3    68  VAL68       0.1595
      7  C        -32.7050   -7.7980   15.4480 C.2    68  VAL68       0.2287
      8  O        -33.3700   -7.9110   14.4230 O.2    68  VAL68      -0.2864
      9  CB       -33.1240   -9.1410   17.5080 C.3    68  VAL68       0.0276
     10  CG1      -34.6210   -8.9520   17.1980 C.3    68  VAL68       0.0022
     11  CG2      -32.8860  -10.5010   18.1670 C.3    68  VAL68       0.0022
     12  N        -18.7550   -6.4890   10.9750 N.3   116  ASP116     -0.1239
     13  CA       -19.7930   -6.5530   11.9900 C.3   116  ASP116      0.1674
     14  C        -21.1090   -5.9540   11.5020 C.2   116  ASP116      0.2266
     15  O        -22.1600   -6.4890   11.7770 O.2   116  ASP116     -0.2867
     16  CB       -19.3850   -5.7930   13.2530 C.3   116  ASP116      0.1410
     17  CG       -18.2050   -6.3890   14.0000 C.2   116  ASP116      0.3668
     18  OD1      -17.7540   -7.5200   13.7200 O.co2 116  ASP116     -0.2456
     19  OD2      -17.6840   -5.6490   14.8870 O.co2 116  ASP116     -0.2456
     20  N        -22.3290   -7.4740    7.2770 N.3   119  LEU119     -0.1231
     21  CA       -22.6740   -8.8750    7.1030 C.3   119  LEU119      0.1693
     22  C        -23.7570   -9.3060    8.0880 C.2   119  LEU119      0.2592
     23  O        -23.5540  -10.1660    8.9310 O.2   119  LEU119     -0.2718
     24  CB       -21.4120   -9.7150    7.2340 C.3   119  LEU119      0.0284
     25  CG       -20.2570   -9.3780    6.3010 C.3   119  LEU119      0.0019
     26  CD1      -19.0170  -10.1960    6.6240 C.3   119  LEU119      0.0001
     27  CD2      -20.6580   -9.5380    4.8360 C.3   119  LEU119      0.0001
     28  N        -24.9410   -8.7220    7.9670 N.am  120  CYS120     -0.1956
     29  CA       -25.9890   -9.0020    8.9280 C.3   120  CYS120      0.1843
     30  C        -26.8230  -10.2230    8.5350 C.2   120  CYS120      0.2625
     31  O        -26.8110  -10.6930    7.3940 O.2   120  CYS120     -0.2714
     32  CB       -26.8810   -7.7750    9.0880 C.3   120  CYS120      0.0997
     33  SG       -27.9570   -7.4450    7.6930 S.3   120  CYS120     -0.0797
     34  N        -27.5280  -10.7750    9.5150 N.am  121  GLN121     -0.1977
     35  CA       -28.3990  -11.9200    9.2450 C.3   121  GLN121      0.1601
     36  C        -29.4490  -11.4770    8.2470 C.2   121  GLN121      0.2287
     37  O        -29.9400  -10.3390    8.3060 O.2   121  GLN121     -0.2864
     38  CB       -29.0580  -12.4190   10.5480 C.3   121  GLN121      0.0394
     39  CG       -29.7610  -13.7200   10.3790 C.3   121  GLN121      0.0908
     40  CD       -30.2460  -14.2870   11.6790 C.2   121  GLN121      0.2608
     41  OE1      -29.8620  -13.8270   12.7640 O.2   121  GLN121     -0.2717
     42  NE2      -31.0870  -15.3050   11.5860 N.am  121  GLN121     -0.0878
     43  N        -26.0700  -14.3390    5.8550 N.3   125  PHE125     -0.1241
     44  CA       -26.3130  -15.6860    6.3700 C.3   125  PHE125      0.1605
     45  C        -27.6730  -15.7150    7.0120 C.2   125  PHE125      0.2264
     46  O        -28.2340  -14.6840    7.3530 O.2   125  PHE125     -0.2867
     47  CB       -25.2820  -16.0480    7.4420 C.3   125  PHE125      0.0534
     48  CG       -25.4530  -15.2680    8.6950 C.ar  125  PHE125     -0.0203
     49  CD1      -26.2210  -15.7630    9.7440 C.ar  125  PHE125     -0.0042
     50  CD2      -24.8750  -14.0130    8.8160 C.ar  125  PHE125     -0.0042
     51  CE1      -26.4000  -15.0140   10.8970 C.ar  125  PHE125     -0.0003
     52  CE2      -25.0350  -13.2580    9.9840 C.ar  125  PHE125     -0.0003
     53  CZ       -25.8080  -13.7650   11.0130 C.ar  125  PHE125     -0.0000
     54  N        -30.5960  -18.8930    9.0630 N.3   127  ILE127     -0.1245
     55  CA       -30.9140  -20.2850    9.3290 C.3   127  ILE127      0.1561
     56  C        -31.7740  -20.6810    8.1320 C.2   127  ILE127      0.2260
     57  O        -32.9110  -20.1970    7.9960 O.2   127  ILE127     -0.2867
     58  CB       -31.7020  -20.4450   10.6350 C.3   127  ILE127      0.0252
     59  CG1      -30.9660  -19.7420   11.7700 C.3   127  ILE127      0.0019
     60  CG2      -31.9270  -21.9500   10.9750 C.3   127  ILE127      0.0019
     61  CD1      -31.8900  -19.1590   12.8200 C.3   127  ILE127      0.0001
     62  N        -22.0960  -21.3930    6.2130 N.3   131  TYR131     -0.1241
     63  CA       -20.9830  -22.1290    5.6180 C.3   131  TYR131      0.1605
     64  C        -21.2620  -22.3970    4.1220 C.2   131  TYR131      0.2264
     65  O        -21.5110  -21.4580    3.3950 O.2   131  TYR131     -0.2867
     66  CB       -20.6520  -23.3670    6.4610 C.3   131  TYR131      0.0534
     67  CG       -19.9600  -22.9720    7.7640 C.ar  131  TYR131     -0.0201
     68  CD1      -18.8480  -22.1560    7.7410 C.ar  131  TYR131     -0.0009
     69  CD2      -20.4420  -23.3780    9.0100 C.ar  131  TYR131     -0.0009
     70  CE1      -18.2000  -21.7710    8.9160 C.ar  131  TYR131      0.0417
     71  CE2      -19.8010  -23.0050   10.1940 C.ar  131  TYR131      0.0417
     72  CZ       -18.6830  -22.2010   10.1390 C.ar  131  TYR131      0.1957
     73  OH       -18.0350  -21.8110   11.2990 O.3   131  TYR131     -0.2866
     74  N        -14.4980  -18.3370   10.0350 N.3   173  GLY173     -0.1225
     75  CA       -15.5410  -17.8330   10.9060 C.3   173  GLY173      0.1811
     76  C        -16.3630  -16.7380   10.2670 C.2   173  GLY173      0.2280
     77  O        -17.5090  -16.5430   10.6590 O.2   173  GLY173     -0.2866
     78  N        -18.3730  -18.7600    6.5260 N.3   177  PHE177     -0.1241
     79  CA       -19.6680  -18.7630    7.1810 C.3   177  PHE177      0.1605
     80  C        -20.7560  -18.1010    6.3300 C.2   177  PHE177      0.2264
     81  O        -21.8860  -18.5710    6.2800 O.2   177  PHE177     -0.2867
     82  CB       -19.5490  -18.1030    8.5560 C.3   177  PHE177      0.0534
     83  CG       -20.7770  -18.2270    9.3970 C.ar  177  PHE177     -0.0203
     84  CD1      -20.9830  -19.3540   10.1800 C.ar  177  PHE177     -0.0042
     85  CD2      -21.7250  -17.2260    9.4240 C.ar  177  PHE177     -0.0042
     86  CE1      -22.1140  -19.4730   10.9630 C.ar  177  PHE177     -0.0003
     87  CE2      -22.8420  -17.3380   10.2010 C.ar  177  PHE177     -0.0003
     88  CZ       -23.0440  -18.4740   10.9720 C.ar  177  PHE177     -0.0000
@<TRIPOS>BOND
     1    65    64    2
     2    64    63    1
     3    27    25    1
     4    63    62    1
     5    63    66    1
     6    43    44    1
     7    81    80    2
     8    25    26    1
     9    25    24    1
    10    80    79    1
    11    44    45    1
    12    44    47    1
    13    66    67    1
    14    78    79    1
    15    45    46    2
    16    21    24    1
    17    21    20    1
    18    21    22    1
    19    79    82    1
    20    31    30    2
    21    47    48    1
    22    33    32    1
    23    68    67   ar
    24    68    70   ar
    25    67    69   ar
    26    28    22   am
    27    28    29    1
    28    57    56    2
    29    22    23    2
    30    56    55    1
    31    36    37    2
    32    36    35    1
    33    30    29    1
    34    30    34   am
    35    82    83    1
    36    48    50   ar
    37    48    49   ar
    38    50    52   ar
    39    70    72   ar
    40    29    32    1
    41    69    71   ar
    42    54    55    1
    43    35    34    1
    44    35    38    1
    45    55    58    1
    46    83    85   ar
    47    83    84   ar
    48    85    87   ar
    49    49    51   ar
    50    52    53   ar
    51    74    75    1
    52    72    71   ar
    53    72    73    1
    54    84    86   ar
    55    87    88   ar
    56    76    77    2
    57    76    75    1
    58    39    38    1
    59    39    40    1
    60    58    60    1
    61    58    59    1
    62    51    53   ar
    63    86    88   ar
    64    12    13    1
    65    14    15    2
    66    14    13    1
    67    42    40   am
    68    40    41    2
    69    59    61    1
    70    13    16    1
    71    16    17    1
    72    18    17   ar
    73    17    19   ar
    74     4     3    2
    75     8     7    2
    76     7     6    1
    77     3     2    1
    78     3     5   am
    79     2     1    1
    80     6     5    1
    81     6     9    1
    82    10     9    1
    83     9    11    1
