@<TRIPOS>MOLECULE
tmp/3tfcA00.pdb
 95 89 0 0 0
SMALL
GASTEIGER

@<TRIPOS>ATOM
      1  N         28.8170  -12.1810   -9.2250 N.3   137  ARG137     -0.1245
      2  CA        28.6200  -13.6270   -9.2630 C.3   137  ARG137      0.1563
      3  C         29.8380  -14.2680   -8.6280 C.2   137  ARG137      0.2260
      4  O         30.9270  -13.6990   -8.6380 O.2   137  ARG137     -0.2867
      5  CB        28.5170  -14.1590  -10.7020 C.3   137  ARG137      0.0307
      6  CG        29.7210  -13.7970  -11.5740 C.3   137  ARG137      0.0489
      7  CD        30.1020  -14.8400  -12.6270 C.3   137  ARG137      0.2205
      8  NE        30.5620  -16.1150  -12.0450 N.pl3 137  ARG137     -0.0865
      9  CZ        29.9690  -17.3040  -12.2250 C.cat 137  ARG137      0.5346
     10  NH1       28.9040  -17.4310  -13.0160 N.pl3 137  ARG137      0.1354
     11  NH2       30.4680  -18.3920  -11.6430 N.pl3 137  ARG137      0.1354
     12  N         30.6790  -25.7370   -6.6850 N.3   142  LYS142     -0.1231
     13  CA        31.0470  -25.8870   -8.0840 C.3   142  LYS142      0.1678
     14  C         30.7680  -27.2890   -8.6220 C.2   142  LYS142      0.2434
     15  O         31.4230  -28.2480   -8.2120 O.2   142  LYS142     -0.2733
     16  CB        32.5440  -25.5960   -8.2640 C.3   142  LYS142      0.0284
     17  CG        32.9840  -24.1940   -7.8590 C.3   142  LYS142      0.0035
     18  CD        32.1950  -23.0790   -8.5530 C.3   142  LYS142      0.0206
     19  CE        32.2300  -23.1570  -10.0760 C.3   142  LYS142      0.1093
     20  NZ        31.4220  -22.0700  -10.7150 N.3   142  LYS142     -0.1314
     21  N         29.7840  -27.4140   -9.5270 N.am  143  PRO143     -0.2729
     22  CA        29.5510  -28.7100  -10.1740 C.3   143  PRO143      0.1401
     23  C         30.7540  -29.0520  -11.0570 C.2   143  PRO143      0.2269
     24  O         31.0390  -28.3150  -11.9960 O.2   143  PRO143     -0.2865
     25  CB        28.3050  -28.4620  -11.0430 C.3   143  PRO143      0.0296
     26  CG        27.6720  -27.2300  -10.4970 C.3   143  PRO143      0.0237
     27  CD        28.7790  -26.4060   -9.9130 C.3   143  PRO143      0.0939
     28  N         25.4040  -20.0640   -7.0720 N.3   175  GLU175     -0.1245
     29  CA        24.7320  -21.3380   -7.3290 C.3   175  GLU175      0.1567
     30  C         24.4530  -22.1810   -6.0890 C.2   175  GLU175      0.2260
     31  O         25.3280  -22.3800   -5.2410 O.2   175  GLU175     -0.2867
     32  CB        25.5350  -22.1710   -8.3460 C.3   175  GLU175      0.0388
     33  CG        24.8190  -23.4550   -8.7820 C.3   175  GLU175      0.1160
     34  CD        25.5350  -24.2350   -9.8730 C.2   175  GLU175      0.3649
     35  OE1       25.0260  -25.3230  -10.2440 O.co2 175  GLU175     -0.2457
     36  OE2       26.6010  -23.7900  -10.3550 O.co2 175  GLU175     -0.2457
     37  N         21.2640  -19.0870   -8.0540 N.3   193  GLN193     -0.1245
     38  CA        21.5110  -19.6340   -9.3900 C.3   193  GLN193      0.1566
     39  C         21.3260  -21.1570   -9.4000 C.2   193  GLN193      0.2260
     40  O         21.7610  -21.8430   -8.4730 O.2   193  GLN193     -0.2867
     41  CB        22.9160  -19.2770   -9.8970 C.3   193  GLN193      0.0367
     42  CG        23.3030  -19.9590  -11.2130 C.3   193  GLN193      0.0905
     43  CD        24.5930  -19.4110  -11.7920 C.2   193  GLN193      0.2608
     44  OE1       24.7330  -18.2070  -11.9760 O.2   193  GLN193     -0.2717
     45  NE2       25.5290  -20.2910  -12.0970 N.am  193  GLN193     -0.0878
     46  N         22.3360  -24.1190  -11.7880 N.3   195  GLY195     -0.1210
     47  CA        23.2430  -24.4070  -12.8910 C.3   195  GLY195      0.1956
     48  C         22.6800  -25.2750  -13.9910 C.2   195  GLY195      0.2612
     49  O         21.6790  -25.9880  -13.7980 O.2   195  GLY195     -0.2717
     50  N         23.3430  -25.2190  -15.1450 N.am  196  ALA196     -0.1965
     51  CA        22.9440  -25.9740  -16.3260 C.3   196  ALA196      0.1728
     52  C         22.7300  -27.4700  -16.0410 C.2   196  ALA196      0.2616
     53  O         21.7300  -28.0580  -16.4700 O.2   196  ALA196     -0.2715
     54  CB        23.9880  -25.7940  -17.4290 C.3   196  ALA196      0.0334
     55  N         23.6570  -28.0670  -15.3000 N.am  197  ARG197     -0.1977
     56  CA        23.5820  -29.5020  -14.9670 C.3   197  ARG197      0.1597
     57  C         22.4100  -29.8590  -14.0370 C.2   197  ARG197      0.2287
     58  O         22.0160  -31.0250  -13.9600 O.2   197  ARG197     -0.2864
     59  CB        24.9110  -29.9620  -14.3660 C.3   197  ARG197      0.0334
     60  CG        26.0460  -29.8580  -15.3670 C.3   197  ARG197      0.0492
     61  CD        27.4260  -29.9840  -14.7490 C.3   197  ARG197      0.2205
     62  NE        28.4320  -29.8100  -15.7910 N.pl3 197  ARG197     -0.0865
     63  CZ        28.8220  -28.6300  -16.2730 C.cat 197  ARG197      0.5346
     64  NH1       28.3030  -27.4920  -15.8040 N.pl3 197  ARG197      0.1354
     65  NH2       29.7330  -28.5850  -17.2360 N.pl3 197  ARG197      0.1354
     66  N         19.7540  -21.4120  -15.3560 N.3   218  LYS218     -0.1245
     67  CA        20.5690  -21.6490  -16.5410 C.3   218  LYS218      0.1561
     68  C         20.0230  -22.7920  -17.3820 C.2   218  LYS218      0.2260
     69  O         19.6160  -23.8140  -16.8530 O.2   218  LYS218     -0.2867
     70  CB        22.0260  -21.9210  -16.1640 C.3   218  LYS218      0.0271
     71  CG        22.7720  -20.6550  -15.7880 C.3   218  LYS218      0.0035
     72  CD        24.2440  -20.9260  -15.6210 C.3   218  LYS218      0.0206
     73  CE        25.0850  -19.7280  -15.9980 C.3   218  LYS218      0.1093
     74  NZ        26.5200  -20.1400  -16.0090 N.3   218  LYS218     -0.1314
     75  N         23.3310  -20.0570  -21.9520 N.3   248  ARG248     -0.1245
     76  CA        24.7580  -20.2530  -21.6980 C.3   248  ARG248      0.1563
     77  C         25.4430  -21.2260  -22.6800 C.2   248  ARG248      0.2260
     78  O         26.5080  -21.7850  -22.3860 O.2   248  ARG248     -0.2867
     79  CB        24.9790  -20.6540  -20.2200 C.3   248  ARG248      0.0307
     80  CG        24.0970  -21.7990  -19.6960 C.3   248  ARG248      0.0489
     81  CD        24.5150  -23.1430  -20.2410 C.3   248  ARG248      0.2205
     82  NE        25.7800  -23.5860  -19.6760 N.pl3 248  ARG248     -0.0865
     83  CZ        26.5900  -24.4830  -20.2380 C.cat 248  ARG248      0.5346
     84  NH1       26.3110  -24.9880  -21.4300 N.pl3 248  ARG248      0.1354
     85  NH2       27.7330  -24.8190  -19.6360 N.pl3 248  ARG248      0.1354
     86  N         30.7320  -19.0690  -20.2560 N.3   283  HIS283     -0.1241
     87  CA        30.4640  -20.5170  -20.2920 C.3   283  HIS283      0.1621
     88  C         29.9720  -21.0460  -21.6070 C.2   283  HIS283      0.2264
     89  O         30.0620  -22.2410  -21.8600 O.2   283  HIS283     -0.2867
     90  CB        29.5270  -20.9240  -19.1610 C.3   283  HIS283      0.0745
     91  CG        30.1400  -20.7440  -17.8040 C.ar  283  HIS283      0.0817
     92  ND1       29.8510  -19.6970  -17.0150 N.ar  283  HIS283     -0.2268
     93  CD2       31.1310  -21.4720  -17.1460 C.ar  283  HIS283      0.1154
     94  CE1       30.5780  -19.7720  -15.8920 C.ar  283  HIS283      0.1986
     95  NE2       31.3630  -20.8590  -15.9740 N.ar  283  HIS283     -0.2212
@<TRIPOS>BOND
     1    77    78    2
     2    77    76    1
     3    75    76    1
     4    89    88    2
     5    76    79    1
     6    88    87    1
     7    84    83    1
     8    87    86    1
     9    87    90    1
    10    81    80    1
    11    81    82    1
    12    83    82    2
    13    83    85    1
    14    79    80    1
    15    90    91    1
    16    91    93   ar
    17    91    92   ar
    18    54    51    1
    19    68    69    2
    20    68    67    1
    21    65    63    1
    22    93    95   ar
    23    92    94   ar
    24    67    70    1
    25    67    66    1
    26    53    52    2
    27    51    52    1
    28    51    50    1
    29    63    64    1
    30    63    62    2
    31    70    71    1
    32    52    55   am
    33    74    73    1
    34    73    72    1
    35    95    94   ar
    36    62    61    1
    37    71    72    1
    38    60    61    1
    39    60    59    1
    40    55    56    1
    41    50    48   am
    42    56    59    1
    43    56    57    1
    44    57    58    2
    45    48    49    2
    46    48    47    1
    47    10     9    1
    48    47    46    1
    49     7     8    1
    50     7     6    1
    51     9     8    2
    52     9    11    1
    53    45    43   am
    54    24    23    2
    55    44    43    2
    56    43    42    1
    57     6     5    1
    58    42    41    1
    59    23    22    1
    60    25    26    1
    61    25    22    1
    62    20    19    1
    63     5     2    1
    64    26    27    1
    65    36    34   ar
    66    35    34   ar
    67    22    21    1
    68    19    18    1
    69    27    21    1
    70    41    38    1
    71    34    33    1
    72    21    14   am
    73    39    38    1
    74    39    40    2
    75    38    37    1
    76     2     1    1
    77     2     3    1
    78    33    32    1
    79     4     3    2
    80    14    15    2
    81    14    13    1
    82    18    17    1
    83    32    29    1
    84    16    13    1
    85    16    17    1
    86    13    12    1
    87    29    28    1
    88    29    30    1
    89    30    31    2
