@<TRIPOS>MOLECULE
tmp/3tfiA00.pdb
 98 91 0 0 0
SMALL
GASTEIGER

@<TRIPOS>ATOM
      1  N         22.7690   -7.3160   12.5080 N.3    30  THR30      -0.1218
      2  CA        21.6410   -7.8040   13.2390 C.3    30  THR30       0.1862
      3  C         20.4940   -8.0930   12.2920 C.2    30  THR30       0.2287
      4  O         20.5970   -7.8250   11.0890 O.2    30  THR30      -0.2866
      5  CB        21.2450   -6.8380   14.3920 C.3    30  THR30       0.1770
      6  OG1       20.3080   -7.4770   15.2740 O.3    30  THR30      -0.2211
      7  CG2       20.7400   -5.4760   13.9010 C.3    30  THR30       0.0375
      8  N         16.3580   -7.3990   11.8970 N.3    32  TYR32      -0.1241
      9  CA        15.3400   -6.4680   12.4070 C.3    32  TYR32       0.1605
     10  C         14.1960   -6.5480   11.3960 C.2    32  TYR32       0.2264
     11  O         14.4080   -6.3580   10.2170 O.2    32  TYR32      -0.2867
     12  CB        15.9670   -5.1030   12.5090 C.3    32  TYR32       0.0534
     13  CG        15.2800   -4.0160   13.2390 C.ar   32  TYR32      -0.0201
     14  CD1       15.6770   -3.6560   14.5040 C.ar   32  TYR32      -0.0009
     15  CD2       14.3120   -3.2710   12.6480 C.ar   32  TYR32      -0.0009
     16  CE1       15.0840   -2.6330   15.1690 C.ar   32  TYR32       0.0417
     17  CE2       13.7070   -2.2260   13.3160 C.ar   32  TYR32       0.0417
     18  CZ        14.0860   -1.9160   14.5750 C.ar   32  TYR32       0.1957
     19  OH        13.5090   -0.7990   15.1880 O.3    32  TYR32      -0.2866
     20  N         20.1710   -5.6510    9.0180 N.3    37  LEU37      -0.1245
     21  CA        20.4290   -4.2770    9.5100 C.3    37  LEU37       0.1561
     22  C         21.8820   -4.2570    9.9350 C.2    37  LEU37       0.2260
     23  O         22.2570   -5.0270   10.8090 O.2    37  LEU37      -0.2867
     24  CB        19.5020   -3.9550   10.6730 C.3    37  LEU37       0.0270
     25  CG        19.7210   -2.5850   11.3400 C.3    37  LEU37       0.0019
     26  CD1       19.3650   -1.4210   10.4140 C.3    37  LEU37       0.0001
     27  CD2       18.9900   -2.5220   12.6840 C.3    37  LEU37       0.0001
     28  N         18.9810    1.7110    6.7710 N.3    60  VAL60      -0.1245
     29  CA        17.9910    1.3180    7.7780 C.3    60  VAL60       0.1561
     30  C         16.7140    0.8300    7.0940 C.2    60  VAL60       0.2260
     31  O         15.5990    1.0840    7.5530 O.2    60  VAL60      -0.2867
     32  CB        17.7140    2.4280    8.8210 C.3    60  VAL60       0.0252
     33  CG1       18.9780    2.6180    9.6920 C.3    60  VAL60       0.0019
     34  CG2       17.3630    3.7730    8.2070 C.3    60  VAL60       0.0019
     35  N         13.7130   -0.7310    8.8720 N.3    63  GLU63      -0.1245
     36  CA        12.6490    0.0900    9.4570 C.3    63  GLU63       0.1567
     37  C         11.4910    0.0580    8.4270 C.2    63  GLU63       0.2260
     38  O         11.3150    0.9790    7.6000 O.2    63  GLU63      -0.2867
     39  CB        13.1630    1.5010    9.6910 C.3    63  GLU63       0.0388
     40  CG        12.1990    2.3560   10.4230 C.3    63  GLU63       0.1160
     41  CD        12.6680    3.7350   10.7410 C.2    63  GLU63       0.3649
     42  OE1       11.9110    4.4570   11.4200 O.co2  63  GLU63      -0.2457
     43  OE2       13.7390    4.1770   10.2850 O.co2  63  GLU63      -0.2457
     44  N         17.2020    7.5360   13.9230 N.3   197  TRP197     -0.1241
     45  CA        17.4620    6.9500   15.2050 C.3   197  TRP197      0.1605
     46  C         18.8410    7.3390   15.7610 C.2   197  TRP197      0.2264
     47  O         19.7400    6.5030   16.0430 O.2   197  TRP197     -0.2867
     48  CB        17.2740    5.4320   15.1400 C.3   197  TRP197      0.0550
     49  CG        16.6570    4.8390   16.4120 C.ar  197  TRP197      0.0003
     50  CD1       15.3890    5.0270   16.8840 C.ar  197  TRP197      0.0946
     51  CD2       17.2670    3.8980   17.2640 C.ar  197  TRP197      0.0152
     52  NE1       15.1780    4.2500   18.0210 N.ar  197  TRP197     -0.2442
     53  CE2       16.3370    3.5710   18.2900 C.ar  197  TRP197      0.0810
     54  CE3       18.5250    3.3170   17.2850 C.ar  197  TRP197      0.0012
     55  CZ2       16.6120    2.6270   19.2350 C.ar  197  TRP197      0.0191
     56  CZ3       18.8180    2.4660   18.2530 C.ar  197  TRP197      0.0001
     57  CH2       17.8680    2.1250   19.2290 C.ar  197  TRP197      0.0015
     58  N         15.7700   11.0830    7.0550 N.3   204  GLU204     -0.1245
     59  CA        15.4720    9.7400    6.5460 C.3   204  GLU204      0.1567
     60  C         14.7790    9.9230    5.1960 C.2   204  GLU204      0.2260
     61  O         13.7320   10.5760    5.0780 O.2   204  GLU204     -0.2867
     62  CB        14.6020    8.9650    7.5330 C.3   204  GLU204      0.0388
     63  CG        15.3290    8.5850    8.7720 C.3   204  GLU204      0.1160
     64  CD        14.5030    7.6370    9.6470 C.2   204  GLU204      0.3649
     65  OE1       13.3860    8.0000    9.9950 O.co2 204  GLU204     -0.2457
     66  OE2       14.9740    6.5340   10.0330 O.co2 204  GLU204     -0.2457
     67  N         22.7770    2.6210   13.2750 N.3   234  PRO234     -0.2116
     68  CA        22.4040    2.9600   14.5980 C.3   234  PRO234      0.1372
     69  C         23.4730    2.4990   15.5530 C.2   234  PRO234      0.2244
     70  O         23.9240    1.3730   15.5230 O.2   234  PRO234     -0.2868
     71  CB        21.0600    2.2470   14.7490 C.3   234  PRO234      0.0268
     72  CG        20.4930    2.3270   13.4230 C.3   234  PRO234      0.0207
     73  CD        21.6560    2.0120   12.5410 C.3   234  PRO234      0.0892
     74  N         22.9060    5.5720   21.1440 N.3   239  ARG239     -0.1245
     75  CA        21.4990    5.4000   21.3700 C.3   239  ARG239      0.1563
     76  C         21.2500    5.2040   22.8770 C.2   239  ARG239      0.2260
     77  O         20.2280    5.7260   23.3800 O.2   239  ARG239     -0.2867
     78  CB        20.9230    4.3250   20.4400 C.3   239  ARG239      0.0307
     79  CG        21.1740    2.9500   20.9140 C.3   239  ARG239      0.0489
     80  CD        20.0550    2.5020   21.7910 C.3   239  ARG239      0.2205
     81  NE        20.0790    1.0550   21.9910 N.pl3 239  ARG239     -0.0865
     82  CZ        19.3830    0.4380   22.9350 C.cat 239  ARG239      0.5346
     83  NH1       18.5310    1.0980   23.6790 N.pl3 239  ARG239      0.1354
     84  NH2       19.4780   -0.8660   23.0710 N.pl3 239  ARG239      0.1354
     85  N         14.7040    0.6780   22.6050 N.3   246  SER246     -0.1217
     86  CA        14.6270   -0.3540   21.5380 C.3   246  SER246      0.1889
     87  C         13.6590   -1.4630   21.9230 C.2   246  SER246      0.2288
     88  O         13.9570   -2.1770   22.9100 O.2   246  SER246     -0.2866
     89  CB        16.0600   -0.9560   21.3430 C.3   246  SER246      0.2089
     90  OG        16.0870   -2.0630   20.4470 O.3   246  SER246     -0.2183
     91  N         14.6900   -4.9510   23.3100 N.3   249  ASN249     -0.1240
     92  CA        15.8150   -4.7920   24.2290 C.3   249  ASN249      0.1653
     93  C         15.3350   -4.2010   25.5050 C.2   249  ASN249      0.2266
     94  O         15.1520   -4.9190   26.4950 O.2   249  ASN249     -0.2867
     95  CB        16.8600   -3.9180   23.5890 C.3   249  ASN249      0.1155
     96  CG        17.7400   -4.6720   22.5970 C.2   249  ASN249      0.2627
     97  OD1       18.3800   -5.7350   22.9200 O.2   249  ASN249     -0.2716
     98  ND2       17.7940   -4.1070   21.3130 N.am  249  ASN249     -0.0877
@<TRIPOS>BOND
     1    61    60    2
     2    60    59    1
     3    59    58    1
     4    59    62    1
     5    28    29    1
     6    30    31    2
     7    30    29    1
     8    62    63    1
     9    38    37    2
    10    29    32    1
    11    34    32    1
    12    37    36    1
    13    63    64    1
    14    32    33    1
    15    35    36    1
    16    20    21    1
    17    36    39    1
    18    21    22    1
    19    21    24    1
    20    64    65   ar
    21    64    66   ar
    22    39    40    1
    23    22    23    2
    24    11    10    2
    25    43    41   ar
    26    26    25    1
    27    40    41    1
    28    24    25    1
    29    41    42   ar
    30     4     3    2
    31    25    27    1
    32    10     9    1
    33     8     9    1
    34     3     2    1
    35     9    12    1
    36     1     2    1
    37    12    13    1
    38    73    67    1
    39    73    72    1
    40    15    13   ar
    41    15    17   ar
    42    13    14   ar
    43     2     5    1
    44    67    68    1
    45    17    18   ar
    46    72    71    1
    47     7     5    1
    48    44    45    1
    49     5     6    1
    50    14    16   ar
    51    18    16   ar
    52    18    19    1
    53    68    71    1
    54    68    69    1
    55    48    45    1
    56    48    49    1
    57    45    46    1
    58    70    69    2
    59    46    47    2
    60    49    50   ar
    61    49    51   ar
    62    50    52   ar
    63    51    54   ar
    64    51    53   ar
    65    54    56   ar
    66    52    53   ar
    67    56    57   ar
    68    53    55   ar
    69    57    55   ar
    70    78    79    1
    71    78    75    1
    72    90    89    1
    73    79    80    1
    74    74    75    1
    75    98    96   am
    76    89    86    1
    77    75    76    1
    78    86    87    1
    79    86    85    1
    80    80    81    1
    81    87    88    2
    82    81    82    2
    83    96    97    2
    84    96    95    1
    85    76    77    2
    86    82    84    1
    87    82    83    1
    88    91    92    1
    89    95    92    1
    90    92    93    1
    91    93    94    2
