@<TRIPOS>MOLECULE
tmp/3tfnA00.pdb
 233 219 0 0 0
SMALL
GASTEIGER

@<TRIPOS>ATOM
      1  N          5.0150   27.9680   -3.1390 N.3    15  MET15      -0.1245
      2  CA         3.9930   27.3650   -2.2860 C.3    15  MET15       0.1570
      3  C          3.7700   25.8710   -2.6660 C.2    15  MET15       0.2261
      4  O          3.6670   25.0510   -1.7940 O.2    15  MET15      -0.2867
      5  CB         2.6800   28.1810   -2.3350 C.3    15  MET15       0.0387
      6  CG         1.6140   27.6390   -1.4330 C.3    15  MET15       0.0595
      7  SD         0.1060   28.6620   -1.3610 S.3    15  MET15      -0.1393
      8  CE        -0.8190   27.6870   -0.1370 C.3    15  MET15       0.0692
      9  N          6.7650   23.8360   -1.2290 N.3    18  HIS18      -0.1226
     10  CA         7.0180   23.6640    0.1800 C.3    18  HIS18       0.1752
     11  C          5.8470   23.1440    1.0100 C.2    18  HIS18       0.2597
     12  O          6.0620   22.7440    2.1460 O.2    18  HIS18      -0.2718
     13  CB         7.6020   24.9410    0.7520 C.3    18  HIS18       0.0759
     14  CG         8.9500   25.2710    0.1950 C.ar   18  HIS18       0.0818
     15  ND1       10.0840   24.5660    0.5390 N.ar   18  HIS18      -0.2268
     16  CD2        9.3390   26.2030   -0.7080 C.ar   18  HIS18       0.1154
     17  CE1       11.1170   25.0600   -0.1200 C.ar   18  HIS18       0.1986
     18  NE2       10.6900   26.0510   -0.8870 N.ar   18  HIS18      -0.2212
     19  N          4.6330   23.1320    0.4440 N.am   19  SER19      -0.1938
     20  CA         3.4730   22.5720    1.1170 C.3    19  SER19       0.2055
     21  C          2.4550   22.0610    0.1120 C.2    19  SER19       0.2643
     22  O          1.5740   22.8190   -0.3460 O.2    19  SER19      -0.2714
     23  CB         2.7750   23.5890    2.0550 C.3    19  SER19       0.2130
     24  OG         1.6410   22.8870    2.6090 O.3    19  SER19      -0.2179
     25  N          2.5690   20.7810   -0.2360 N.am   20  LYS20      -0.1963
     26  CA         1.6100   20.1730   -1.1500 C.3    20  LYS20       0.1728
     27  C          0.1480   20.2660   -0.6860 C.2    20  LYS20       0.2617
     28  O         -0.7520   20.4160   -1.5000 O.2    20  LYS20      -0.2715
     29  CB         2.0010   18.7180   -1.4710 C.3    20  LYS20       0.0311
     30  CG         3.3420   18.6310   -2.2230 C.3    20  LYS20       0.0038
     31  CD         3.2630   19.4030   -3.5480 C.3    20  LYS20       0.0206
     32  CE         4.4990   19.1350   -4.4530 C.3    20  LYS20       0.1093
     33  NZ         5.8000   19.7210   -3.8920 N.3    20  LYS20      -0.1314
     34  N         -0.0850   20.1250    0.6130 N.am   21  SER21      -0.1936
     35  CA        -1.4500   20.1180    1.1190 C.3    21  SER21       0.2055
     36  C         -2.0890   21.4850    1.0150 C.2    21  SER21       0.2643
     37  O         -3.2130   21.5730    0.5480 O.2    21  SER21      -0.2714
     38  CB        -1.5170   19.6090    2.5740 C.3    21  SER21       0.2130
     39  OG        -0.6080   18.5310    2.7440 O.3    21  SER21      -0.2179
     40  N         -1.3670   22.5560    1.4020 N.am   22  PHE22      -0.1973
     41  CA        -1.9680   23.9100    1.3660 C.3    22  PHE22       0.1639
     42  C         -2.0980   24.3170   -0.0450 C.2    22  PHE22       0.2290
     43  O         -3.0860   24.8810   -0.4720 O.2    22  PHE22      -0.2864
     44  CB        -1.1220   24.9090    2.1540 C.3    22  PHE22       0.0560
     45  CG        -1.1960   24.6780    3.5880 C.ar   22  PHE22      -0.0200
     46  CD1       -2.4360   24.4260    4.1770 C.ar   22  PHE22      -0.0042
     47  CD2       -0.0480   24.6710    4.3740 C.ar   22  PHE22      -0.0042
     48  CE1       -2.5460   24.1840    5.5160 C.ar   22  PHE22      -0.0003
     49  CE2       -0.1360   24.4350    5.7350 C.ar   22  PHE22      -0.0003
     50  CZ        -1.3850   24.1820    6.3150 C.ar   22  PHE22      -0.0000
     51  N         -5.7690   25.6200   -1.4650 N.3    26  PHE26      -0.1241
     52  CA        -5.9840   27.0660   -1.7080 C.3    26  PHE26       0.1605
     53  C         -5.9020   27.3680   -3.1610 C.2    26  PHE26       0.2264
     54  O         -6.4400   28.3580   -3.6150 O.2    26  PHE26      -0.2867
     55  CB        -4.9690   27.9190   -0.9230 C.3    26  PHE26       0.0534
     56  CG        -5.2550   27.9690    0.5410 C.ar   26  PHE26      -0.0203
     57  CD1       -6.3380   28.6980    1.0290 C.ar   26  PHE26      -0.0042
     58  CD2       -4.4920   27.2470    1.4220 C.ar   26  PHE26      -0.0042
     59  CE1       -6.6200   28.7250    2.3950 C.ar   26  PHE26      -0.0003
     60  CE2       -4.7910   27.2530    2.7730 C.ar   26  PHE26      -0.0003
     61  CZ        -5.8390   27.9970    3.2610 C.ar   26  PHE26      -0.0000
     62  N         -3.2650   34.6540   -1.8670 N.3    37  VAL37      -0.1245
     63  CA        -2.7410   33.6350   -0.9800 C.3    37  VAL37       0.1561
     64  C         -1.3120   33.1810   -1.3350 C.2    37  VAL37       0.2260
     65  O         -0.4540   32.9940   -0.4610 O.2    37  VAL37      -0.2867
     66  CB        -3.7180   32.4560   -0.9080 C.3    37  VAL37       0.0252
     67  CG1       -3.0670   31.3130   -0.1390 C.3    37  VAL37       0.0019
     68  CG2       -5.0360   32.9410   -0.2490 C.3    37  VAL37       0.0019
     69  N          1.7850   33.5580    1.2940 N.3    41  TYR41      -0.1241
     70  CA         2.5570   32.3620    1.5760 C.3    41  TYR41       0.1605
     71  C          4.0360   32.4970    1.2420 C.2    41  TYR41       0.2264
     72  O          4.9220   32.0720    2.0150 O.2    41  TYR41      -0.2867
     73  CB         2.0370   31.1640    0.7880 C.3    41  TYR41       0.0534
     74  CG         2.7920   29.9460    1.1630 C.ar   41  TYR41      -0.0201
     75  CD1        4.0120   29.6680    0.5830 C.ar   41  TYR41      -0.0009
     76  CD2        2.3110   29.0860    2.1510 C.ar   41  TYR41      -0.0009
     77  CE1        4.7620   28.5380    0.9370 C.ar   41  TYR41       0.0417
     78  CE2        3.0660   27.9370    2.5470 C.ar   41  TYR41       0.0417
     79  CZ         4.2870   27.6830    1.9210 C.ar   41  TYR41       0.1957
     80  OH         5.0330   26.5760    2.2680 O.3    41  TYR41      -0.2866
     81  N          5.8480   34.7370    3.7340 N.3    44  CYS44      -0.1221
     82  CA         6.0470   34.0520    5.0260 C.3    44  CYS44       0.1808
     83  C          7.1520   32.9900    4.9610 C.2    44  CYS44       0.2601
     84  O          7.9770   32.8830    5.9010 O.2    44  CYS44      -0.2717
     85  CB         4.7250   33.4470    5.5570 C.3    44  CYS44       0.0970
     86  SG         3.5870   34.8150    5.9380 S.3    44  CYS44      -0.0800
     87  N          7.1600   32.1960    3.8850 N.am   45  ARG45      -0.1979
     88  CA         8.2350   31.2300    3.6340 C.3    45  ARG45       0.1597
     89  C          9.6490   31.8160    3.5490 C.2    45  ARG45       0.2287
     90  O         10.6150   31.2580    4.1060 O.2    45  ARG45      -0.2864
     91  CB         7.9360   30.4790    2.3170 C.3    45  ARG45       0.0334
     92  CG         8.9410   29.3770    2.0160 C.3    45  ARG45       0.0492
     93  CD         8.4910   28.0130    2.5730 C.3    45  ARG45       0.2205
     94  NE         8.0910   28.0550    3.9930 N.pl3  45  ARG45      -0.0865
     95  CZ         8.8780   27.6640    4.9980 C.cat  45  ARG45       0.5346
     96  NH1       10.1040   27.1860    4.7590 N.pl3  45  ARG45       0.1354
     97  NH2        8.4440   27.7550    6.2440 N.pl3  45  ARG45       0.1354
     98  N         10.6850   32.6770    6.9700 N.3    48  ASP48      -0.1239
     99  CA        11.0410   31.4400    7.6530 C.3    48  ASP48       0.1674
    100  C         12.4510   30.8980    7.2370 C.2    48  ASP48       0.2266
    101  O         13.1990   30.3730    8.0860 O.2    48  ASP48      -0.2867
    102  CB         9.9410   30.3800    7.4510 C.3    48  ASP48       0.1410
    103  CG         8.5610   30.7830    8.0790 C.2    48  ASP48       0.3668
    104  OD1        8.4490   31.8040    8.8340 O.co2  48  ASP48      -0.2456
    105  OD2        7.5470   30.0840    7.7960 O.co2  48  ASP48      -0.2456
    106  N          4.2760   32.2350   14.8730 N.3   133  VAL133     -0.1231
    107  CA         4.7170   31.6440   13.6270 C.3   133  VAL133      0.1692
    108  C          3.5590   31.3240   12.6670 C.2   133  VAL133      0.2591
    109  O          3.7620   31.1760   11.4660 O.2   133  VAL133     -0.2718
    110  CB         5.4840   30.3980   14.0840 C.3   133  VAL133      0.0266
    111  CG1        4.8330   29.1210   13.7960 C.3   133  VAL133      0.0020
    112  CG2        7.0120   30.5270   13.9430 C.3   133  VAL133      0.0020
    113  N          2.3400   31.2340   13.1790 N.am  134  ALA134     -0.1980
    114  CA         1.2680   30.7150   12.3440 C.3   134  ALA134      0.1597
    115  C         -0.0630   31.4260   12.5880 C.2   134  ALA134      0.2287
    116  O         -0.7710   31.7140   11.6230 O.2   134  ALA134     -0.2864
    117  CB         1.1420   29.2200   12.4740 C.3   134  ALA134      0.0319
    118  N          0.0200   34.5180   10.5050 N.3   137  VAL137     -0.1231
    119  CA        -0.2380   34.2490    9.0850 C.3   137  VAL137      0.1692
    120  C         -1.7210   34.0910    8.8400 C.2   137  VAL137      0.2592
    121  O         -2.2190   34.6410    7.8560 O.2   137  VAL137     -0.2718
    122  CB         0.5140   32.9590    8.5720 C.3   137  VAL137      0.0266
    123  CG1        0.2640   32.7410    7.0420 C.3   137  VAL137      0.0020
    124  CG2        2.0130   33.0910    8.8410 C.3   137  VAL137      0.0020
    125  N         -2.4360   33.4270    9.7650 N.am  138  GLY138     -0.1957
    126  CA        -3.9730   33.4540    9.7130 C.3   138  GLY138      0.1869
    127  C         -4.5670   34.8800    9.7280 C.2   138  GLY138      0.2309
    128  O         -5.5310   35.2250    8.9930 O.2   138  GLY138     -0.2863
    129  N         -4.0160   36.4680    6.3440 N.3   141  LEU141     -0.1245
    130  CA        -4.9740   35.8720    5.3410 C.3   141  LEU141      0.1561
    131  C         -6.4060   36.2810    5.4810 C.2   141  LEU141      0.2260
    132  O         -7.1660   36.1450    4.5460 O.2   141  LEU141     -0.2867
    133  CB        -4.9470   34.3260    5.3770 C.3   141  LEU141      0.0270
    134  CG        -3.6180   33.7700    4.8300 C.3   141  LEU141      0.0019
    135  CD1       -3.4370   32.2790    5.0810 C.3   141  LEU141      0.0001
    136  CD2       -3.4570   34.0460    3.3670 C.3   141  LEU141      0.0001
    137  N         -9.8170   35.8840    2.8540 N.3   145  LEU145     -0.1245
    138  CA       -10.7160   34.7300    2.9850 C.3   145  LEU145      0.1561
    139  C        -12.1170   35.0680    3.4900 C.2   145  LEU145      0.2260
    140  O        -12.9330   34.1730    3.6270 O.2   145  LEU145     -0.2867
    141  CB       -10.0970   33.7150    3.9640 C.3   145  LEU145      0.0270
    142  CG        -8.7450   33.0980    3.5210 C.3   145  LEU145      0.0019
    143  CD1       -8.2710   31.9900    4.4590 C.3   145  LEU145      0.0001
    144  CD2       -8.7780   32.5630    2.1020 C.3   145  LEU145      0.0001
    145  N         -9.3690   32.4960   12.2150 N.3   157  ALA157     -0.1245
    146  CA        -8.2230   32.3130   11.3310 C.3   157  ALA157      0.1562
    147  C         -6.9870   32.0950   12.1150 C.2   157  ALA157      0.2260
    148  O         -6.1750   31.2500   11.7880 O.2   157  ALA157     -0.2867
    149  CB        -8.0470   33.5310   10.4170 C.3   157  ALA157      0.0290
    150  N         -7.1310   28.5920   13.6680 N.3   160  LEU160     -0.1231
    151  CA        -6.8040   27.6690   12.5920 C.3   160  LEU160      0.1693
    152  C         -5.3100   27.6370   12.3470 C.2   160  LEU160      0.2592
    153  O         -4.7480   26.5640   12.3300 O.2   160  LEU160     -0.2718
    154  CB        -7.5040   28.0930   11.2860 C.3   160  LEU160      0.0284
    155  CG        -7.2020   27.2750   10.0040 C.3   160  LEU160      0.0019
    156  CD1       -7.6900   25.8610   10.2200 C.3   160  LEU160      0.0001
    157  CD2       -7.9190   27.8980    8.7600 C.3   160  LEU160      0.0001
    158  N         -4.6450   28.8090   12.1910 N.am  161  GLY161     -0.1957
    159  CA        -3.1540   28.8790   12.0260 C.3   161  GLY161      0.1869
    160  C         -2.4250   28.1430   13.1340 C.2   161  GLY161      0.2309
    161  O         -1.5330   27.2970   12.9110 O.2   161  GLY161     -0.2863
    162  N         -2.9660   24.2160   12.9380 N.3   164  LEU164     -0.1231
    163  CA        -2.0610   23.7430   11.8790 C.3   164  LEU164      0.1693
    164  C         -0.6150   23.6760   12.2870 C.2   164  LEU164      0.2591
    165  O          0.0510   22.7100   11.9650 O.2   164  LEU164     -0.2718
    166  CB        -2.1600   24.5970   10.5930 C.3   164  LEU164      0.0284
    167  CG        -3.5580   24.5290    9.9690 C.3   164  LEU164      0.0019
    168  CD1       -3.8370   25.6300    8.9340 C.3   164  LEU164      0.0001
    169  CD2       -3.7590   23.1280    9.3790 C.3   164  LEU164      0.0001
    170  N         -0.0940   24.6910   12.9640 N.am  165  GLN165     -0.1979
    171  CA         1.2610   24.6270   13.4930 C.3   165  GLN165      0.1601
    172  C          1.4400   23.5000   14.5080 C.2   165  GLN165      0.2287
    173  O          2.4740   22.8480   14.5190 O.2   165  GLN165     -0.2864
    174  CB         1.7220   25.9360   14.1900 C.3   165  GLN165      0.0394
    175  CG         3.2360   26.0150   14.5200 C.3   165  GLN165      0.0908
    176  CD         4.1340   25.8250   13.2850 C.2   165  GLN165      0.2608
    177  OE1        3.7090   26.0090   12.1530 O.2   165  GLN165     -0.2717
    178  NE2        5.3370   25.3880   13.5090 N.am  165  GLN165     -0.0878
    179  N          1.8850   20.4440   12.6000 N.3   168  ASN168     -0.1240
    180  CA         3.2540   20.3460   12.0430 C.3   168  ASN168      0.1653
    181  C          4.1830   19.8290   13.1180 C.2   168  ASN168      0.2266
    182  O          5.0550   19.0300   12.8540 O.2   168  ASN168     -0.2867
    183  CB         3.8700   21.7180   11.5620 C.3   168  ASN168      0.1155
    184  CG         3.3200   22.1880   10.2240 C.2   168  ASN168      0.2627
    185  OD1        2.6990   21.4270    9.4640 O.2   168  ASN168     -0.2716
    186  ND2        3.4700   23.4860    9.9700 N.am  168  ASN168     -0.0877
    187  N          3.8470   16.1530   13.6640 N.3   171  ARG171     -0.1231
    188  CA         4.3690   15.3780   12.5260 C.3   171  ARG171      0.1694
    189  C          5.8780   15.3630   12.4910 C.2   171  ARG171      0.2592
    190  O          6.4640   14.3920   11.9880 O.2   171  ARG171     -0.2718
    191  CB         3.8730   15.9930   11.1910 C.3   171  ARG171      0.0321
    192  CG         4.1540   15.1480    9.8810 C.3   171  ARG171      0.0489
    193  CD         4.0590   15.9590    8.5490 C.3   171  ARG171      0.2205
    194  NE         4.9600   17.0950    8.5900 N.pl3 171  ARG171     -0.0865
    195  CZ         4.7110   18.2770    8.0320 C.cat 171  ARG171      0.5346
    196  NH1        3.5730   18.4540    7.3520 N.pl3 171  ARG171      0.1354
    197  NH2        5.5880   19.3010    8.1920 N.pl3 171  ARG171      0.1354
    198  N          6.5250   16.4310   12.9630 N.am  172  ASP172     -0.1974
    199  CA         7.9410   16.6520   12.6730 C.3   172  ASP172      0.1709
    200  C          8.8020   16.4550   13.8900 C.2   172  ASP172      0.2293
    201  O          9.9400   16.9050   13.9020 O.2   172  ASP172     -0.2864
    202  CB         8.2150   18.0950   12.1110 C.3   172  ASP172      0.1436
    203  CG         7.5590   18.3350   10.7710 C.2   172  ASP172      0.3671
    204  OD1        7.1570   17.3500   10.1310 O.co2 172  ASP172     -0.2456
    205  OD2        7.4050   19.5150   10.3780 O.co2 172  ASP172     -0.2456
    206  N         -8.4680   22.1580    3.8380 N.3   244  ALA244     -0.1245
    207  CA        -7.1070   22.3560    4.3850 C.3   244  ALA244      0.1562
    208  C         -7.0650   21.7590    5.7550 C.2   244  ALA244      0.2260
    209  O         -6.1550   21.0330    6.0750 O.2   244  ALA244     -0.2867
    210  CB        -6.6860   23.8660    4.4090 C.3   244  ALA244      0.0290
    211  N         -5.1780   18.1570    7.4690 N.3   248  TYR248     -0.1241
    212  CA        -4.2130   18.2100    8.6160 C.3   248  TYR248      0.1605
    213  C         -4.7000   17.3310    9.7550 C.2   248  TYR248      0.2264
    214  O         -3.9400   16.6760   10.4880 O.2   248  TYR248     -0.2867
    215  CB        -3.9620   19.6710    9.0460 C.3   248  TYR248      0.0534
    216  CG        -2.7720   20.1990    8.3190 C.ar  248  TYR248     -0.0201
    217  CD1       -1.5720   20.4060    8.9860 C.ar  248  TYR248     -0.0009
    218  CD2       -2.8370   20.4450    6.9720 C.ar  248  TYR248     -0.0009
    219  CE1       -0.4740   20.8310    8.3310 C.ar  248  TYR248      0.0417
    220  CE2       -1.7520   20.8590    6.2900 C.ar  248  TYR248      0.0417
    221  CZ        -0.5690   21.0400    6.9660 C.ar  248  TYR248      0.1957
    222  OH         0.5200   21.4850    6.2720 O.3   248  TYR248     -0.2866
    223  N          9.2500   11.5650    7.8560 N.3   265  ARG265     -0.1245
    224  CA         8.1090   12.4660    7.7130 C.3   265  ARG265      0.1563
    225  C          6.9130   11.7330    7.1350 C.2   265  ARG265      0.2260
    226  O          6.9780   11.2710    6.0000 O.2   265  ARG265     -0.2867
    227  CB         8.4840   13.6500    6.8250 C.3   265  ARG265      0.0307
    228  CG         7.2630   14.5390    6.4730 C.3   265  ARG265      0.0489
    229  CD         7.6330   15.7750    5.7720 C.3   265  ARG265      0.2205
    230  NE         8.3270   16.6810    6.6650 N.pl3 265  ARG265     -0.0865
    231  CZ         8.4980   17.9710    6.4090 C.cat 265  ARG265      0.5346
    232  NH1        8.0110   18.4670    5.2740 N.pl3 265  ARG265      0.1354
    233  NH2        9.1480   18.7600    7.2790 N.pl3 265  ARG265      0.1354
@<TRIPOS>BOND
     1    32    33    1
     2    32    31    1
     3    54    53    2
     4    31    30    1
     5    53    52    1
     6     1     2    1
     7     3     2    1
     8     3     4    2
     9     5     2    1
    10     5     6    1
    11    30    29    1
    12    62    63    1
    13    52    51    1
    14    52    55    1
    15    28    27    2
    16    29    26    1
    17     6     7    1
    18     7     8    1
    19    64    63    1
    20    64    65    2
    21     9    10    1
    22    26    27    1
    23    26    25    1
    24    63    66    1
    25    55    56    1
    26    66    68    1
    27    66    67    1
    28    18    16   ar
    29    18    17   ar
    30    16    14   ar
    31    27    34   am
    32    43    42    2
    33    22    21    2
    34    25    21   am
    35    17    15   ar
    36    42    41    1
    37    21    20    1
    38    10    13    1
    39    10    11    1
    40    14    15   ar
    41    14    13    1
    42    19    11   am
    43    19    20    1
    44    56    57   ar
    45    56    58   ar
    46    37    36    2
    47    75    77   ar
    48    75    74   ar
    49    34    35    1
    50    73    74    1
    51    73    70    1
    52    77    79   ar
    53    11    12    2
    54    36    35    1
    55    36    40   am
    56    57    59   ar
    57    20    23    1
    58    35    38    1
    59    74    76   ar
    60    71    70    1
    61    71    72    2
    62    69    70    1
    63    41    40    1
    64    41    44    1
    65    58    60   ar
    66    79    80    1
    67    79    78   ar
    68    92    91    1
    69    92    93    1
    70    23    24    1
    71   144   142    1
    72    76    78   ar
    73    44    45    1
    74    91    88    1
    75    59    61   ar
    76    93    94    1
    77    38    39    1
    78    60    61   ar
    79   137   138    1
    80   138   139    1
    81   138   141    1
    82   136   134    1
    83   139   140    2
    84   142   141    1
    85   142   143    1
    86    89    88    1
    87    89    90    2
    88    45    46   ar
    89    45    47   ar
    90    88    87    1
    91    81    82    1
    92   206   207    1
    93    87    83   am
    94    94    95    2
    95    46    48   ar
    96    47    49   ar
    97   207   210    1
    98   207   208    1
    99   132   131    2
   100    96    95    1
   101   134   135    1
   102   134   133    1
   103    83    82    1
   104    83    84    2
   105    95    97    1
   106    82    85    1
   107   232   231    1
   108   130   133    1
   109   130   131    1
   110   130   129    1
   111    48    50   ar
   112    85    86    1
   113    49    50   ar
   114   208   209    2
   115   229   228    1
   116   229   230    1
   117   226   225    2
   118   222   221    1
   119   220   221   ar
   120   220   218   ar
   121   231   230    2
   122   231   233    1
   123   228   227    1
   124   227   224    1
   125   221   219   ar
   126    98    99    1
   127   218   216   ar
   128   123   122    1
   129   225   224    1
   130   100    99    1
   131   100   101    2
   132   196   195    1
   133   102    99    1
   134   102   103    1
   135   211   212    1
   136   224   223    1
   137   105   103   ar
   138   121   120    2
   139   195   197    1
   140   195   194    2
   141   103   104   ar
   142   216   217   ar
   143   216   215    1
   144   219   217   ar
   145   193   194    1
   146   193   192    1
   147   122   124    1
   148   122   119    1
   149   212   215    1
   150   212   213    1
   151   157   155    1
   152   120   119    1
   153   120   125   am
   154   168   167    1
   155   128   127    2
   156   119   118    1
   157   169   167    1
   158   185   184    2
   159   126   127    1
   160   126   125    1
   161   213   214    2
   162   192   191    1
   163   167   166    1
   164   186   184   am
   165   155   156    1
   166   155   154    1
   167   204   203   ar
   168   184   183    1
   169   205   203   ar
   170   149   146    1
   171   166   163    1
   172   203   202    1
   173   191   188    1
   174   154   151    1
   175   146   147    1
   176   146   145    1
   177   109   108    2
   178   183   180    1
   179   116   115    2
   180   148   147    2
   181   163   164    1
   182   163   162    1
   183   165   164    2
   184   190   189    2
   185   159   158    1
   186   159   160    1
   187   180   179    1
   188   180   181    1
   189   202   199    1
   190   177   176    2
   191   158   152   am
   192   164   170   am
   193   153   152    2
   194   114   117    1
   195   114   115    1
   196   114   113    1
   197   152   151    1
   198   189   188    1
   199   189   198   am
   200   188   187    1
   201   151   150    1
   202   108   113   am
   203   108   107    1
   204   199   198    1
   205   199   200    1
   206   182   181    2
   207   161   160    2
   208   170   171    1
   209   176   178   am
   210   176   175    1
   211   171   174    1
   212   171   172    1
   213   107   110    1
   214   107   106    1
   215   111   110    1
   216   200   201    2
   217   112   110    1
   218   174   175    1
   219   172   173    2
