@<TRIPOS>MOLECULE
tmp/3tfpA00.pdb
 197 183 0 0 0
SMALL
GASTEIGER

@<TRIPOS>ATOM
      1  N         -6.9270  -23.9480   -1.1290 N.3    18  HIS18      -0.1241
      2  CA        -6.9700  -23.8000    0.3190 C.3    18  HIS18       0.1621
      3  C         -5.8580  -22.9290    0.9090 C.2    18  HIS18       0.2264
      4  O         -6.0990  -22.1820    1.8610 O.2    18  HIS18      -0.2867
      5  CB        -6.9480  -25.1610    1.0060 C.3    18  HIS18       0.0745
      6  CG        -6.8390  -25.0710    2.4960 C.ar   18  HIS18       0.0817
      7  ND1       -5.6390  -25.2000    3.1620 N.ar   18  HIS18      -0.2268
      8  CD2       -7.7760  -24.8450    3.4460 C.ar   18  HIS18       0.1154
      9  CE1       -5.8440  -25.0710    4.4610 C.ar   18  HIS18       0.1986
     10  NE2       -7.1310  -24.8540    4.6610 N.ar   18  HIS18      -0.2212
     11  N          1.2730  -22.4300    1.3560 N.3    22  PHE22      -0.1241
     12  CA         1.8030  -23.7900    1.2820 C.3    22  PHE22       0.1605
     13  C          1.9990  -24.2600   -0.1450 C.2    22  PHE22       0.2264
     14  O          2.9860  -24.9230   -0.4570 O.2    22  PHE22      -0.2867
     15  CB         0.9070  -24.7590    2.0520 C.3    22  PHE22       0.0534
     16  CG         0.9780  -24.5760    3.5310 C.ar   22  PHE22      -0.0203
     17  CD1        2.1950  -24.3300    4.1420 C.ar   22  PHE22      -0.0042
     18  CD2       -0.1650  -24.6160    4.3100 C.ar   22  PHE22      -0.0042
     19  CE1        2.2790  -24.1450    5.5100 C.ar   22  PHE22      -0.0003
     20  CE2       -0.0920  -24.4290    5.6790 C.ar   22  PHE22      -0.0003
     21  CZ         1.1340  -24.1970    6.2800 C.ar   22  PHE22      -0.0000
     22  N          5.5830  -25.5800   -1.4280 N.3    26  PHE26      -0.1241
     23  CA         5.6650  -27.0010   -1.7740 C.3    26  PHE26       0.1605
     24  C          5.7130  -27.2880   -3.2700 C.2    26  PHE26       0.2264
     25  O          6.2750  -28.2980   -3.6870 O.2    26  PHE26      -0.2867
     26  CB         4.5230  -27.7790   -1.1190 C.3    26  PHE26       0.0534
     27  CG         4.6940  -27.9640    0.3580 C.ar   26  PHE26      -0.0203
     28  CD1        5.9160  -28.3500    0.8790 C.ar   26  PHE26      -0.0042
     29  CD2        3.6370  -27.7510    1.2250 C.ar   26  PHE26      -0.0042
     30  CE1        6.0810  -28.5260    2.2380 C.ar   26  PHE26      -0.0003
     31  CE2        3.7960  -27.9270    2.5890 C.ar   26  PHE26      -0.0003
     32  CZ         5.0180  -28.3100    3.0930 C.ar   26  PHE26      -0.0000
     33  N          3.1020  -34.6990   -1.8680 N.3    37  VAL37      -0.1245
     34  CA         2.5760  -33.6940   -0.9450 C.3    37  VAL37       0.1561
     35  C          1.1660  -33.2560   -1.3200 C.2    37  VAL37       0.2260
     36  O          0.3140  -33.1030   -0.4480 O.2    37  VAL37      -0.2867
     37  CB         3.4860  -32.4520   -0.8490 C.3    37  VAL37       0.0252
     38  CG1        2.7850  -31.3580   -0.0660 C.3    37  VAL37       0.0019
     39  CG2        4.8010  -32.8200   -0.1820 C.3    37  VAL37       0.0019
     40  N         -1.2880  -35.9900   -0.1470 N.3    40  ILE40      -0.1231
     41  CA        -1.4460  -35.9970    1.3050 C.3    40  ILE40       0.1692
     42  C         -2.2430  -34.7810    1.7610 C.2    40  ILE40       0.2592
     43  O         -3.1370  -34.8830    2.6090 O.2    40  ILE40      -0.2718
     44  CB        -0.0770  -36.0720    2.0010 C.3    40  ILE40       0.0266
     45  CG1        0.4890  -37.4880    1.8260 C.3    40  ILE40       0.0019
     46  CG2       -0.1920  -35.7070    3.4820 C.3    40  ILE40       0.0020
     47  CD1        1.9730  -37.6200    2.1160 C.3    40  ILE40       0.0001
     48  N         -1.9340  -33.6350    1.1700 N.am   41  TYR41      -0.1976
     49  CA        -2.6480  -32.3990    1.4540 C.3    41  TYR41       0.1639
     50  C         -4.1260  -32.5130    1.1100 C.2    41  TYR41       0.2290
     51  O         -4.9800  -32.0520    1.8660 O.2    41  TYR41      -0.2864
     52  CB        -2.0470  -31.2370    0.6610 C.3    41  TYR41       0.0560
     53  CG        -2.3950  -29.8800    1.2220 C.ar   41  TYR41      -0.0198
     54  CD1       -3.6610  -29.3310    1.0550 C.ar   41  TYR41      -0.0009
     55  CD2       -1.4480  -29.1350    1.9080 C.ar   41  TYR41      -0.0009
     56  CE1       -3.9730  -28.0770    1.5730 C.ar   41  TYR41       0.0417
     57  CE2       -1.7460  -27.8930    2.4240 C.ar   41  TYR41       0.0417
     58  CZ        -3.0050  -27.3670    2.2590 C.ar   41  TYR41       0.1957
     59  OH        -3.2730  -26.1200    2.7870 O.3    41  TYR41      -0.2866
     60  N         -5.9540  -34.7750    3.6790 N.3    44  CYS44      -0.1221
     61  CA        -6.1760  -34.1060    4.9640 C.3    44  CYS44       0.1808
     62  C         -7.2530  -33.0170    4.8800 C.2    44  CYS44       0.2601
     63  O         -8.0500  -32.8600    5.8050 O.2    44  CYS44      -0.2717
     64  CB        -4.8640  -33.5570    5.5270 C.3    44  CYS44       0.0970
     65  SG        -3.6620  -34.8520    5.9040 S.3    44  CYS44      -0.0800
     66  N         -7.2650  -32.2670    3.7770 N.am   45  ARG45      -0.1979
     67  CA        -8.3100  -31.2790    3.5230 C.3    45  ARG45       0.1597
     68  C         -9.7040  -31.9120    3.4740 C.2    45  ARG45       0.2287
     69  O        -10.6450  -31.4050    4.0790 O.2    45  ARG45      -0.2864
     70  CB        -8.0420  -30.5460    2.2010 C.3    45  ARG45       0.0334
     71  CG        -7.2480  -29.2620    2.3300 C.3    45  ARG45       0.0492
     72  CD        -8.0610  -28.1930    3.0720 C.3    45  ARG45       0.2205
     73  NE        -7.7500  -28.1810    4.4930 N.pl3  45  ARG45      -0.0865
     74  CZ        -8.5730  -27.7620    5.4500 C.cat  45  ARG45       0.5346
     75  NH1       -9.7910  -27.3230    5.1570 N.pl3  45  ARG45       0.1354
     76  NH2       -8.1730  -27.7990    6.7110 N.pl3  45  ARG45       0.1354
     77  N        -10.8280  -32.7190    6.9310 N.3    48  ASP48      -0.1239
     78  CA       -11.2370  -31.5400    7.6920 C.3    48  ASP48       0.1674
     79  C        -12.6010  -31.0160    7.2350 C.2    48  ASP48       0.2266
     80  O        -13.3760  -30.4950    8.0420 O.2    48  ASP48      -0.2867
     81  CB       -10.1820  -30.4330    7.5840 C.3    48  ASP48       0.1410
     82  CG       -10.4680  -29.2530    8.5080 C.2    48  ASP48       0.3668
     83  OD1      -10.4830  -28.1070    8.0160 O.co2  48  ASP48      -0.2456
     84  OD2      -10.6640  -29.4690    9.7250 O.co2  48  ASP48      -0.2456
     85  N         -5.5310  -37.9440   13.1390 N.3   107  LEU107     -0.1245
     86  CA        -6.1860  -36.7680   12.5790 C.3   107  LEU107      0.1561
     87  C         -7.6990  -36.9700   12.4820 C.2   107  LEU107      0.2260
     88  O         -8.4810  -36.0870   12.8460 O.2   107  LEU107     -0.2867
     89  CB        -5.6100  -36.4360   11.1940 C.3   107  LEU107      0.0270
     90  CG        -6.3970  -35.4490   10.3240 C.3   107  LEU107      0.0019
     91  CD1       -6.4890  -34.0760   10.9650 C.3   107  LEU107      0.0001
     92  CD2       -5.7420  -35.3450    8.9360 C.3   107  LEU107      0.0001
     93  N        -10.8730  -34.9110   14.3310 N.3   111  VAL111     -0.1245
     94  CA       -12.0330  -34.3480   13.6490 C.3   111  VAL111      0.1561
     95  C        -13.3640  -34.8740   14.2180 C.2   111  VAL111      0.2260
     96  O        -14.2940  -34.0950   14.4120 O.2   111  VAL111     -0.2867
     97  CB       -11.9510  -34.5430   12.1060 C.3   111  VAL111      0.0252
     98  CG1      -13.2710  -34.1990   11.4550 C.3   111  VAL111      0.0019
     99  CG2      -10.8200  -33.6860   11.5180 C.3   111  VAL111      0.0019
    100  N         -4.4350  -30.7290   20.8020 N.3   129  TYR129     -0.1241
    101  CA        -5.2600  -30.4850   19.6290 C.3   129  TYR129      0.1605
    102  C         -4.3680  -30.1490   18.4360 C.2   129  TYR129      0.2264
    103  O         -4.5850  -30.6460   17.3360 O.2   129  TYR129     -0.2867
    104  CB        -6.2790  -29.3670   19.8980 C.3   129  TYR129      0.0534
    105  CG        -6.9290  -28.8290   18.6460 C.ar  129  TYR129     -0.0201
    106  CD1       -8.0020  -29.4860   18.0530 C.ar  129  TYR129     -0.0009
    107  CD2       -6.4610  -27.6710   18.0490 C.ar  129  TYR129     -0.0009
    108  CE1       -8.5950  -28.9890   16.8930 C.ar  129  TYR129      0.0417
    109  CE2       -7.0380  -27.1740   16.9050 C.ar  129  TYR129      0.0417
    110  CZ        -8.1010  -27.8350   16.3290 C.ar  129  TYR129      0.1957
    111  OH        -8.6690  -27.3220   15.1880 O.3   129  TYR129     -0.2866
    112  N         -4.3860  -32.1470   14.7340 N.3   133  VAL133     -0.1231
    113  CA        -4.7600  -31.6370   13.4130 C.3   133  VAL133      0.1692
    114  C         -3.5650  -31.2990   12.5240 C.2   133  VAL133      0.2591
    115  O         -3.7160  -31.1510   11.3080 O.2   133  VAL133     -0.2718
    116  CB        -5.6300  -30.3770   13.4890 C.3   133  VAL133      0.0266
    117  CG1       -6.8890  -30.6380   14.3140 C.3   133  VAL133      0.0020
    118  CG2       -4.8220  -29.2220   14.0560 C.3   133  VAL133      0.0020
    119  N         -2.3810  -31.1680   13.1130 N.am  134  ALA134     -0.1980
    120  CA        -1.2560  -30.6440   12.3410 C.3   134  ALA134      0.1597
    121  C          0.0590  -31.3820   12.5640 C.2   134  ALA134      0.2287
    122  O          0.8370  -31.5530   11.6290 O.2   134  ALA134     -0.2864
    123  CB        -1.0880  -29.1460   12.5990 C.3   134  ALA134      0.0319
    124  N         -0.1100  -34.3890   10.4950 N.3   137  VAL137     -0.1231
    125  CA         0.1990  -34.1000    9.0940 C.3   137  VAL137      0.1692
    126  C          1.7080  -34.0610    8.8470 C.2   137  VAL137      0.2592
    127  O          2.1930  -34.5900    7.8480 O.2   137  VAL137     -0.2718
    128  CB        -0.4460  -32.7680    8.6370 C.3   137  VAL137      0.0266
    129  CG1       -0.0780  -32.4630    7.2060 C.3   137  VAL137      0.0020
    130  CG2       -1.9510  -32.8380    8.7860 C.3   137  VAL137      0.0020
    131  N          2.4500  -33.4480    9.7650 N.am  138  GLY138     -0.1957
    132  CA         3.9020  -33.4480    9.6770 C.3   138  GLY138      0.1869
    133  C          4.4730  -34.8580    9.6880 C.2   138  GLY138      0.2309
    134  O          5.3940  -35.1790    8.9280 O.2   138  GLY138     -0.2863
    135  N          3.9700  -36.4950    6.3460 N.3   141  LEU141     -0.1245
    136  CA         4.8710  -35.9090    5.3460 C.3   141  LEU141      0.1561
    137  C          6.3360  -36.3110    5.5100 C.2   141  LEU141      0.2260
    138  O          7.1310  -36.1810    4.5800 O.2   141  LEU141     -0.2867
    139  CB         4.7700  -34.3830    5.3610 C.3   141  LEU141      0.0270
    140  CG         3.4660  -33.7690    4.8400 C.3   141  LEU141      0.0019
    141  CD1        3.3780  -32.2970    5.1970 C.3   141  LEU141      0.0001
    142  CD2        3.3270  -33.9560    3.3390 C.3   141  LEU141      0.0001
    143  N          9.6870  -35.8620    2.8800 N.3   145  LEU145     -0.1245
    144  CA        10.5920  -34.7190    3.0070 C.3   145  LEU145      0.1561
    145  C         11.9860  -35.0770    3.5240 C.2   145  LEU145      0.2260
    146  O         12.8180  -34.1960    3.7460 O.2   145  LEU145     -0.2867
    147  CB         9.9730  -33.6610    3.9230 C.3   145  LEU145      0.0270
    148  CG         8.5970  -33.1350    3.5040 C.3   145  LEU145      0.0019
    149  CD1        8.1140  -32.1050    4.5100 C.3   145  LEU145      0.0001
    150  CD2        8.6410  -32.5450    2.1070 C.3   145  LEU145      0.0001
    151  N          9.3610  -32.5180   12.3150 N.3   157  ALA157     -0.1245
    152  CA         8.2170  -32.3260   11.4230 C.3   157  ALA157      0.1562
    153  C          6.9410  -32.1180   12.2160 C.2   157  ALA157      0.2260
    154  O          6.0730  -31.3510   11.8180 O.2   157  ALA157     -0.2867
    155  CB         8.0640  -33.5030   10.4730 C.3   157  ALA157      0.0290
    156  N          7.0680  -28.5730   13.7140 N.3   160  LEU160     -0.1231
    157  CA         6.7720  -27.6130   12.6600 C.3   160  LEU160      0.1693
    158  C          5.2630  -27.5370   12.4550 C.2   160  LEU160      0.2592
    159  O          4.6800  -26.4600   12.4530 O.2   160  LEU160     -0.2718
    160  CB         7.4590  -28.0280   11.3510 C.3   160  LEU160      0.0284
    161  CG         7.0800  -27.2080   10.1120 C.3   160  LEU160      0.0019
    162  CD1        7.4490  -25.7430   10.3150 C.3   160  LEU160      0.0001
    163  CD2        7.7490  -27.7680    8.8570 C.3   160  LEU160      0.0001
    164  N          4.6330  -28.6950   12.2890 N.am  161  GLY161     -0.1957
    165  CA         3.1960  -28.7510   12.0760 C.3   161  GLY161      0.1869
    166  C          2.4400  -28.0460   13.1760 C.2   161  GLY161      0.2309
    167  O          1.5150  -27.2630   12.9350 O.2   161  GLY161     -0.2863
    168  N          2.8210  -24.2130   12.9440 N.3   164  LEU164     -0.1231
    169  CA         1.9840  -23.6760   11.8800 C.3   164  LEU164      0.1693
    170  C          0.5330  -23.5900   12.3340 C.2   164  LEU164      0.2591
    171  O         -0.1540  -22.6190   12.0350 O.2   164  LEU164     -0.2718
    172  CB         2.0920  -24.5350   10.6180 C.3   164  LEU164      0.0284
    173  CG         3.4610  -24.5410    9.9370 C.3   164  LEU164      0.0019
    174  CD1        3.5220  -25.6060    8.8480 C.3   164  LEU164      0.0001
    175  CD2        3.7810  -23.1640    9.3690 C.3   164  LEU164      0.0001
    176  N          0.0600  -24.5950   13.0660 N.am  165  GLN165     -0.1979
    177  CA        -1.3220  -24.5610   13.5520 C.3   165  GLN165      0.1601
    178  C         -1.5470  -23.4370   14.5480 C.2   165  GLN165      0.2287
    179  O         -2.6010  -22.8050   14.5530 O.2   165  GLN165     -0.2864
    180  CB        -1.7500  -25.8830   14.1970 C.3   165  GLN165      0.0394
    181  CG        -3.2470  -25.9140   14.5570 C.3   165  GLN165      0.0908
    182  CD        -4.1450  -25.6730   13.3450 C.2   165  GLN165      0.2608
    183  OE1       -3.7490  -25.9230   12.2080 O.2   165  GLN165     -0.2717
    184  NE2       -5.3560  -25.1740   13.5880 N.am  165  GLN165     -0.0878
    185  N         -1.9500  -20.3830   12.5970 N.3   168  ASN168     -0.1240
    186  CA        -3.3040  -20.3590   12.0400 C.3   168  ASN168      0.1653
    187  C         -4.2800  -19.8320   13.0820 C.2   168  ASN168      0.2266
    188  O         -5.1460  -19.0100   12.7950 O.2   168  ASN168     -0.2867
    189  CB        -3.7640  -21.7600   11.6110 C.3   168  ASN168      0.1155
    190  CG        -3.2080  -22.1790   10.2660 C.2   168  ASN168      0.2627
    191  OD1       -2.7840  -21.3470    9.4660 O.2   168  ASN168     -0.2716
    192  ND2       -3.2130  -23.4820   10.0090 N.am  168  ASN168     -0.0877
    193  N          8.3180  -22.1680    3.7070 N.3   244  ALA244     -0.1245
    194  CA         6.9790  -22.3450    4.2730 C.3   244  ALA244      0.1562
    195  C          6.9330  -21.7550    5.6700 C.2   244  ALA244      0.2260
    196  O          5.9970  -21.0480    6.0320 O.2   244  ALA244     -0.2867
    197  CB         6.5970  -23.8250    4.3140 C.3   244  ALA244      0.0290
@<TRIPOS>BOND
     1    25    24    2
     2    24    23    1
     3    33    34    1
     4    23    22    1
     5    23    26    1
     6    35    34    1
     7    35    36    2
     8     1     2    1
     9    26    27    1
    10    34    37    1
    11    37    39    1
    12    37    38    1
    13    14    13    2
    14    40    41    1
    15    13    12    1
    16     2     3    1
    17     2     5    1
    18    27    28   ar
    19    27    29   ar
    20    52    53    1
    21    52    49    1
    22    28    30   ar
    23     3     4    2
    24     5     6    1
    25    54    53   ar
    26    54    56   ar
    27    50    49    1
    28    50    51    2
    29    48    49    1
    30    48    42   am
    31    53    55   ar
    32    29    31   ar
    33    12    11    1
    34    12    15    1
    35    41    42    1
    36    41    44    1
    37    56    58   ar
    38    42    43    2
    39    45    44    1
    40    45    47    1
    41    55    57   ar
    42    44    46    1
    43    15    16    1
    44   150   148    1
    45    70    71    1
    46    70    67    1
    47    30    32   ar
    48    58    57   ar
    49    58    59    1
    50    71    72    1
    51     6     7   ar
    52     6     8   ar
    53    31    32   ar
    54   143   144    1
    55   144   145    1
    56   144   147    1
    57    72    73    1
    58     7     9   ar
    59   142   140    1
    60     8    10   ar
    61    68    67    1
    62    68    69    2
    63   148   147    1
    64   148   149    1
    65    67    66    1
    66   145   146    2
    67    16    17   ar
    68    16    18   ar
    69    60    61    1
    70   193   194    1
    71    66    62   am
    72    17    19   ar
    73   194   197    1
    74   194   195    1
    75    18    20   ar
    76     9    10   ar
    77    73    74    2
    78   138   137    2
    79   140   141    1
    80   140   139    1
    81    62    61    1
    82    62    63    2
    83    61    64    1
    84    75    74    1
    85   136   139    1
    86   136   137    1
    87   136   135    1
    88    74    76    1
    89    19    21   ar
    90    64    65    1
    91   195   196    2
    92    20    21   ar
    93    77    78    1
    94   129   128    1
    95    79    78    1
    96    79    80    2
    97    81    78    1
    98    81    82    1
    99   127   126    2
   100    83    82   ar
   101    82    84   ar
   102   128   130    1
   103   128   125    1
   104   126   125    1
   105   126   131   am
   106   174   173    1
   107   163   161    1
   108   134   133    2
   109    92    90    1
   110   125   124    1
   111   175   173    1
   112   191   190    2
   113   132   133    1
   114   132   131    1
   115   173   172    1
   116   192   190   am
   117   161   162    1
   118   161   160    1
   119   190   189    1
   120    90    91    1
   121    90    89    1
   122   155   152    1
   123   172   169    1
   124    89    86    1
   125   115   114    2
   126   160   157    1
   127   152   153    1
   128   152   151    1
   129    98    97    1
   130    99    97    1
   131   189   186    1
   132   122   121    2
   133   154   153    2
   134   169   170    1
   135   169   168    1
   136   171   170    2
   137   186   185    1
   138   186   187    1
   139   165   164    1
   140   165   166    1
   141    97    94    1
   142   183   182    2
   143   164   158   am
   144   170   176   am
   145   120   121    1
   146   120   123    1
   147   120   119    1
   148   159   158    2
   149   158   157    1
   150    87    86    1
   151    87    88    2
   152   114   119   am
   153   114   113    1
   154    86    85    1
   155   157   156    1
   156   188   187    2
   157   167   166    2
   158   176   177    1
   159   182   184   am
   160   182   181    1
   161   113   116    1
   162   113   112    1
   163   116   118    1
   164   116   117    1
   165   177   180    1
   166   177   178    1
   167    94    95    1
   168    94    93    1
   169   180   181    1
   170    95    96    2
   171   178   179    2
   172   111   110    1
   173   110   108   ar
   174   110   109   ar
   175   108   106   ar
   176   109   107   ar
   177   103   102    2
   178   107   105   ar
   179   106   105   ar
   180   102   101    1
   181   105   104    1
   182   101   104    1
   183   101   100    1
