@<TRIPOS>MOLECULE
tmp/3tfqC01.pdb
 152 143 0 0 0
SMALL
GASTEIGER

@<TRIPOS>ATOM
      1  N         36.4220   59.5990  136.8470 N.3   112  ILE112     -0.1245
      2  CA        35.0050   59.3470  136.5720 C.3   112  ILE112      0.1561
      3  C         34.3000   59.1360  137.8900 C.2   112  ILE112      0.2260
      4  O         34.9360   58.6960  138.8580 O.2   112  ILE112     -0.2867
      5  CB        34.7260   58.1550  135.5980 C.3   112  ILE112      0.0252
      6  CG1       35.3340   56.8200  136.1300 C.3   112  ILE112      0.0019
      7  CG2       35.1380   58.4770  134.1220 C.3   112  ILE112      0.0019
      8  CD1       34.9250   55.5360  135.3940 C.3   112  ILE112      0.0001
      9  N         30.5460   54.0030  139.1360 N.3   115  THR115     -0.1203
     10  CA        29.3960   53.5290  138.3690 C.3   115  THR115      0.1994
     11  C         29.3270   52.0120  138.4300 C.2   115  THR115      0.2619
     12  O         30.1650   51.3860  139.0640 O.2   115  THR115     -0.2717
     13  CB        29.3970   54.1290  136.9400 C.3   115  THR115      0.1784
     14  OG1       28.1470   53.8400  136.3040 O.3   115  THR115     -0.2211
     15  CG2       30.5640   53.6310  136.0940 C.3   115  THR115      0.0376
     16  N         28.3520   51.4370  137.7600 N.am  116  SER116     -0.1937
     17  CA        28.1880   49.9690  137.7510 C.3   116  SER116      0.2055
     18  C         27.3960   49.5990  136.5210 C.2   116  SER116      0.2642
     19  O         26.8280   50.4800  135.8650 O.2   116  SER116     -0.2714
     20  CB        27.4680   49.5140  139.0260 C.3   116  SER116      0.2130
     21  OG        26.1610   50.0620  139.0420 O.3   116  SER116     -0.2179
     22  N         27.3800   48.2960  136.1670 N.am  117  LEU117     -0.1977
     23  CA        26.6010   47.8400  135.0260 C.3   117  LEU117      0.1596
     24  C         25.1810   47.5390  135.4930 C.2   117  LEU117      0.2287
     25  O         24.9700   46.6870  136.3580 O.2   117  LEU117     -0.2864
     26  CB        27.2260   46.5840  134.3840 C.3   117  LEU117      0.0297
     27  CG        28.4220   46.8290  133.4550 C.3   117  LEU117      0.0022
     28  CD1       29.6630   47.2800  134.2360 C.3   117  LEU117      0.0001
     29  CD2       28.7490   45.5420  132.6890 C.3   117  LEU117      0.0001
     30  N         36.4390   56.2380  125.9960 N.3   161  SER161     -0.1202
     31  CA        36.1520   54.8090  125.9570 C.3   161  SER161      0.2020
     32  C         35.5830   54.4320  124.6070 C.2   161  SER161      0.2619
     33  O         35.0210   55.2720  123.9110 O.2   161  SER161     -0.2717
     34  CB        35.0730   54.5290  127.0120 C.3   161  SER161      0.2103
     35  OG        34.5000   53.2340  126.9300 O.3   161  SER161     -0.2182
     36  N         35.6200   53.1180  124.2800 N.am  162  LEU162     -0.1965
     37  CA        34.8930   52.6630  123.0980 C.3   162  LEU162      0.1728
     38  C         33.4060   52.9920  123.3060 C.2   162  LEU162      0.2616
     39  O         32.7240   53.2640  122.3310 O.2   162  LEU162     -0.2715
     40  CB        34.9990   51.1300  122.9620 C.3   162  LEU162      0.0311
     41  CG        36.3530   50.5820  122.5470 C.3   162  LEU162      0.0022
     42  CD1       36.3100   49.0450  122.5610 C.3   162  LEU162      0.0001
     43  CD2       36.7480   51.0700  121.1540 C.3   162  LEU162      0.0001
     44  N         32.9140   53.0150  124.5780 N.am  163  ALA163     -0.1977
     45  CA        31.5240   53.3700  124.8830 C.3   163  ALA163      0.1597
     46  C         31.2850   54.8990  124.7050 C.2   163  ALA163      0.2287
     47  O         30.1880   55.3870  124.9490 O.2   163  ALA163     -0.2864
     48  CB        31.1570   52.9170  126.3050 C.3   163  ALA163      0.0319
     49  N         26.7320   50.7920  123.9300 N.3   168  TYR168     -0.1228
     50  CA        26.8480   49.5800  124.7340 C.3   168  TYR168      0.1721
     51  C         25.6840   49.5770  125.7170 C.2   168  TYR168      0.2437
     52  O         25.4310   50.6090  126.3370 O.2   168  TYR168     -0.2733
     53  CB        28.1290   49.6080  125.5900 C.3   168  TYR168      0.0547
     54  CG        29.4140   49.2470  124.8800 C.ar  168  TYR168     -0.0200
     55  CD1       30.0110   48.0070  125.0690 C.ar  168  TYR168     -0.0009
     56  CD2       30.0990   50.1890  124.1190 C.ar  168  TYR168     -0.0009
     57  CE1       31.2420   47.7010  124.4840 C.ar  168  TYR168      0.0417
     58  CE2       31.3330   49.9030  123.5520 C.ar  168  TYR168      0.0417
     59  CZ        31.8900   48.6510  123.7150 C.ar  168  TYR168      0.1957
     60  OH        33.1140   48.3790  123.1440 O.3   168  TYR168     -0.2866
     61  N         25.0250   48.4340  125.9560 N.am  169  PRO169     -0.2729
     62  CA        23.9770   48.4130  126.9860 C.3   169  PRO169      0.1401
     63  C         24.6160   48.3980  128.3780 C.2   169  PRO169      0.2269
     64  O         25.8060   48.0650  128.5080 O.2   169  PRO169     -0.2865
     65  CB        23.2540   47.0810  126.7130 C.3   169  PRO169      0.0296
     66  CG        24.3140   46.2050  126.1690 C.3   169  PRO169      0.0237
     67  CD        25.2390   47.0870  125.3680 C.3   169  PRO169      0.0939
     68  N         25.4560   50.6890  130.4660 N.3   171  VAL171     -0.1245
     69  CA        26.3300   51.8320  130.8230 C.3   171  VAL171      0.1561
     70  C         25.7800   53.1340  130.1950 C.2   171  VAL171      0.2260
     71  O         26.5710   53.9660  129.7380 O.2   171  VAL171     -0.2867
     72  CB        27.8150   51.5610  130.3910 C.3   171  VAL171      0.0252
     73  CG1       28.4060   50.4150  131.1940 C.3   171  VAL171      0.0019
     74  CG2       27.9350   51.2880  128.8850 C.3   171  VAL171      0.0019
     75  N         27.0680   56.5700  131.7010 N.3   174  TYR174     -0.1241
     76  CA        28.5130   56.6170  131.4470 C.3   174  TYR174      0.1605
     77  C         28.7660   56.9240  129.9600 C.2   174  TYR174      0.2264
     78  O         29.5530   57.8170  129.6440 O.2   174  TYR174     -0.2867
     79  CB        29.1080   55.2630  131.8430 C.3   174  TYR174      0.0534
     80  CG        30.5650   55.0460  131.4890 C.ar  174  TYR174     -0.0201
     81  CD1       31.5730   55.4560  132.3460 C.ar  174  TYR174     -0.0009
     82  CD2       30.9250   54.3400  130.3390 C.ar  174  TYR174     -0.0009
     83  CE1       32.9190   55.2150  132.0570 C.ar  174  TYR174      0.0417
     84  CE2       32.2630   54.0720  130.0470 C.ar  174  TYR174      0.0417
     85  CZ        33.2560   54.5290  130.9040 C.ar  174  TYR174      0.1957
     86  OH        34.5670   54.1990  130.6750 O.3   174  TYR174     -0.2866
     87  N         39.5200   54.0210  124.7320 N.3   206  LEU206     -0.1231
     88  CA        39.9590   52.7800  125.3610 C.3   206  LEU206      0.1693
     89  C         38.8880   51.7370  125.4310 C.2   206  LEU206      0.2593
     90  O         37.7540   52.0170  125.8220 O.2   206  LEU206     -0.2718
     91  CB        40.4390   53.0530  126.8160 C.3   206  LEU206      0.0284
     92  CG        41.3070   54.2850  127.1240 C.3   206  LEU206      0.0019
     93  CD1       41.6250   54.3250  128.6280 C.3   206  LEU206      0.0001
     94  CD2       42.5720   54.3180  126.2660 C.3   206  LEU206      0.0001
     95  N         39.2810   50.4830  125.1980 N.am  207  GLY207     -0.1942
     96  CA        38.3970   49.3460  125.4080 C.3   207  GLY207      0.2014
     97  C         38.5040   48.8790  126.8540 C.2   207  GLY207      0.2638
     98  O         39.0440   49.6040  127.6950 O.2   207  GLY207     -0.2714
     99  N         37.9810   47.6840  127.1790 N.am  208  LEU208     -0.1977
    100  CA        38.0470   47.1760  128.5510 C.3   208  LEU208      0.1596
    101  C         39.4940   47.0250  129.0340 C.2   208  LEU208      0.2287
    102  O         40.3190   46.4210  128.3390 O.2   208  LEU208     -0.2864
    103  CB        37.2940   45.8350  128.6630 C.3   208  LEU208      0.0297
    104  CG        37.0210   45.3170  130.0820 C.3   208  LEU208      0.0022
    105  CD1       36.0400   46.2300  130.8500 C.3   208  LEU208      0.0001
    106  CD2       36.4770   43.8840  130.0260 C.3   208  LEU208      0.0001
    107  N         41.6270   47.2090  135.2790 N.3   211  THR211     -0.1218
    108  CA        41.6740   47.9030  136.5710 C.3   211  THR211      0.1862
    109  C         40.8250   47.1350  137.5630 C.2   211  THR211      0.2287
    110  O         39.8640   46.4760  137.1620 O.2   211  THR211     -0.2866
    111  CB        41.2080   49.3690  136.4520 C.3   211  THR211      0.1770
    112  OG1       39.8190   49.3960  136.0830 O.3   211  THR211     -0.2211
    113  CG2       42.0310   50.1440  135.4250 C.3   211  THR211      0.0375
    114  N         38.6270   48.2160  139.6830 N.3   213  THR213     -0.1203
    115  CA        37.2480   48.6870  139.6250 C.3   213  THR213      0.1994
    116  C         36.4710   48.0500  138.4760 C.2   213  THR213      0.2617
    117  O         35.3430   47.5850  138.6910 O.2   213  THR213     -0.2717
    118  CB        37.2220   50.2210  139.5160 C.3   213  THR213      0.1784
    119  OG1       37.9090   50.7510  140.6500 O.3   213  THR213     -0.2211
    120  CG2       35.7920   50.7780  139.4800 C.3   213  THR213      0.0376
    121  N         37.0250   48.0930  137.2520 N.am  214  ALA214     -0.1979
    122  CA        36.3190   47.5490  136.0910 C.3   214  ALA214      0.1597
    123  C         36.1310   46.0390  136.2010 C.2   214  ALA214      0.2287
    124  O         35.0560   45.5380  135.8740 O.2   214  ALA214     -0.2864
    125  CB        37.0470   47.8860  134.7980 C.3   214  ALA214      0.0319
    126  N         33.3910   45.3040  138.5240 N.3   217  ALA217     -0.1231
    127  CA        32.1030   45.7040  137.9620 C.3   217  ALA217      0.1694
    128  C         31.5700   44.7330  136.9040 C.2   217  ALA217      0.2591
    129  O         30.3660   44.4790  136.8770 O.2   217  ALA217     -0.2718
    130  CB        32.2060   47.1130  137.3840 C.3   217  ALA217      0.0304
    131  N         32.4520   44.1850  136.0550 N.am  218  VAL218     -0.1980
    132  CA        32.0360   43.3090  134.9510 C.3   218  VAL218      0.1595
    133  C         31.9180   41.8410  135.3330 C.2   218  VAL218      0.2287
    134  O         31.3390   41.0840  134.5550 O.2   218  VAL218     -0.2864
    135  CB        32.8860   43.4800  133.6660 C.3   218  VAL218      0.0276
    136  CG1       32.8450   44.9340  133.1680 C.3   218  VAL218      0.0022
    137  CG2       34.3240   42.9900  133.8660 C.3   218  VAL218      0.0022
    138  N         30.1030   40.4770  131.9010 N.3   222  VAL222     -0.1245
    139  CA        30.8520   40.6540  130.6560 C.3   222  VAL222      0.1561
    140  C         32.0010   39.6430  130.7010 C.2   222  VAL222      0.2260
    141  O         32.8070   39.6840  131.6180 O.2   222  VAL222     -0.2867
    142  CB        31.3520   42.1300  130.5070 C.3   222  VAL222      0.0252
    143  CG1       32.3330   42.2880  129.3450 C.3   222  VAL222      0.0019
    144  CG2       30.1790   43.0950  130.3550 C.3   222  VAL222      0.0019
    145  N         34.8670   38.8430  128.5740 N.3   224  MET224     -0.1245
    146  CA        35.6950   39.3150  127.4610 C.3   224  MET224      0.1570
    147  C         37.1050   39.6380  127.9450 C.2   224  MET224      0.2261
    148  O         37.3250   39.7550  129.1560 O.2   224  MET224     -0.2867
    149  CB        35.0490   40.5300  126.7380 C.3   224  MET224      0.0387
    150  CG        35.3540   41.8560  127.3920 C.3   224  MET224      0.0595
    151  SD        35.3710   43.3070  126.3030 S.3   224  MET224     -0.1393
    152  CE        33.6580   43.6750  126.2350 C.3   224  MET224      0.0692
@<TRIPOS>BOND
     1    43    41    1
     2    39    38    2
     3    41    42    1
     4    41    40    1
     5    40    37    1
     6    37    38    1
     7    37    36    1
     8    60    59    1
     9    38    44   am
    10    58    59   ar
    11    58    56   ar
    12    59    57   ar
    13    33    32    2
    14    49    50    1
    15    56    54   ar
    16    36    32   am
    17    57    55   ar
    18    44    45    1
    19    32    31    1
    20    46    45    1
    21    46    47    2
    22    87    88    1
    23    50    53    1
    24    50    51    1
    25    54    55   ar
    26    54    53    1
    27    45    48    1
    28    95    96    1
    29    95    89   am
    30    88    89    1
    31    88    91    1
    32    67    61    1
    33    67    66    1
    34    96    97    1
    35    89    90    2
    36    51    61   am
    37    51    52    2
    38    61    62    1
    39    31    30    1
    40    31    34    1
    41    66    65    1
    42   152   151    1
    43    94    92    1
    44   151   150    1
    45    65    62    1
    46   149   150    1
    47   149   146    1
    48    91    92    1
    49    97    99   am
    50    97    98    2
    51    35    34    1
    52    62    63    1
    53    92    93    1
    54    99   100    1
    55   146   147    1
    56   146   145    1
    57   147   148    2
    58   102   101    2
    59    63    64    2
    60   100   103    1
    61   100   101    1
    62   103   104    1
    63    74    72    1
    64   143   142    1
    65    78    77    2
    66    71    70    2
    67    77    76    1
    68   106   104    1
    69    84    82   ar
    70    84    85   ar
    71   104   105    1
    72    70    69    1
    73    82    80   ar
    74   144   142    1
    75    72    69    1
    76    72    73    1
    77    68    69    1
    78   142   139    1
    79   139   140    1
    80   139   138    1
    81    86    85    1
    82   140   141    2
    83    85    83   ar
    84    76    75    1
    85    76    79    1
    86    80    79    1
    87    80    81   ar
    88    83    81   ar
    89    29    27    1
    90   136   135    1
    91    27    28    1
    92    27    26    1
    93   135   137    1
    94   135   132    1
    95     7     5    1
    96    26    23    1
    97   134   133    2
    98   125   122    1
    99   132   133    1
   100   132   131    1
   101    23    24    1
   102    23    22    1
   103   107   108    1
   104     8     6    1
   105   113   111    1
   106    24    25    2
   107     5     6    1
   108     5     2    1
   109    19    18    2
   110   124   123    2
   111   131   128   am
   112   112   111    1
   113   122   123    1
   114   122   121    1
   115    15    13    1
   116    22    18   am
   117    14    13    1
   118   111   108    1
   119    18    17    1
   120   108   109    1
   121     2     1    1
   122     2     3    1
   123   129   128    2
   124   128   127    1
   125    13    10    1
   126   110   109    2
   127   121   116   am
   128   130   127    1
   129    17    16    1
   130    17    20    1
   131    16    11   am
   132     3     4    2
   133   127   126    1
   134    10    11    1
   135    10     9    1
   136    11    12    2
   137   116   117    2
   138   116   115    1
   139    20    21    1
   140   120   118    1
   141   118   115    1
   142   118   119    1
   143   115   114    1
