@<TRIPOS>MOLECULE
tmp/3tfuA00.pdb
 148 146 0 0 0
SMALL
GASTEIGER

@<TRIPOS>ATOM
      1  N         16.9040    3.7330  -33.3560 N.3    18  PRO18      -0.2102
      2  CA        17.6800    2.5770  -33.8200 C.3    18  PRO18       0.1504
      3  C         17.3870    2.2630  -35.2850 C.2    18  PRO18       0.2575
      4  O         16.2180    2.1720  -35.6600 O.2    18  PRO18      -0.2718
      5  CB        17.1760    1.4340  -32.9320 C.3    18  PRO18       0.0282
      6  CG        16.5870    2.1020  -31.7320 C.3    18  PRO18       0.0208
      7  CD        16.0230    3.3940  -32.2260 C.3    18  PRO18       0.0893
      8  N         18.4330    2.1150  -36.0940 N.am   19  TYR19      -0.1977
      9  CA        18.2800    1.7100  -37.4900 C.3    19  TYR19       0.1639
     10  C         17.1730    2.4760  -38.1970 C.2    19  TYR19       0.2290
     11  O         16.3510    1.8930  -38.8980 O.2    19  TYR19      -0.2864
     12  CB        18.0340    0.2020  -37.5710 C.3    19  TYR19       0.0560
     13  CG        19.2280   -0.5700  -37.0710 C.ar   19  TYR19      -0.0198
     14  CD1       19.3900   -0.8350  -35.7200 C.ar   19  TYR19      -0.0009
     15  CD2       20.2200   -0.9880  -37.9460 C.ar   19  TYR19      -0.0009
     16  CE1       20.5010   -1.5190  -35.2550 C.ar   19  TYR19       0.0417
     17  CE2       21.3280   -1.6690  -37.4950 C.ar   19  TYR19       0.0417
     18  CZ        21.4650   -1.9330  -36.1500 C.ar   19  TYR19       0.1957
     19  OH        22.5740   -2.6120  -35.7060 O.3    19  TYR19      -0.2866
     20  N         13.0610   -5.2040  -24.8510 N.3    58  TRP58      -0.1227
     21  CA        14.1650   -5.9880  -25.3940 C.3    58  TRP58       0.1737
     22  C         14.9000   -6.8460  -24.3650 C.2    58  TRP58       0.2595
     23  O         16.0990   -6.6820  -24.1510 O.2    58  TRP58      -0.2718
     24  CB        15.1460   -5.1010  -26.1720 C.3    58  TRP58       0.0564
     25  CG        14.5280   -4.5050  -27.3890 C.ar   58  TRP58       0.0003
     26  CD1       14.3940   -3.1810  -27.6750 C.ar   58  TRP58       0.0946
     27  CD2       13.9190   -5.2160  -28.4740 C.ar   58  TRP58       0.0152
     28  NE1       13.7530   -3.0220  -28.8790 N.ar   58  TRP58      -0.2442
     29  CE2       13.4530   -4.2570  -29.3910 C.ar   58  TRP58       0.0810
     30  CE3       13.7340   -6.5710  -28.7640 C.ar   58  TRP58       0.0012
     31  CZ2       12.8110   -4.6060  -30.5760 C.ar   58  TRP58       0.0191
     32  CZ3       13.0960   -6.9170  -29.9390 C.ar   58  TRP58       0.0001
     33  CH2       12.6430   -5.9390  -30.8320 C.ar   58  TRP58       0.0015
     34  N         14.1680   -7.7700  -23.7490 N.am   59  TRP59      -0.1976
     35  CA        14.7410   -8.7780  -22.8550 C.3    59  TRP59       0.1640
     36  C         15.1750   -8.2250  -21.4960 C.2    59  TRP59       0.2290
     37  O         15.5650   -8.9910  -20.6160 O.2    59  TRP59      -0.2864
     38  CB        15.9500   -9.4830  -23.4910 C.3    59  TRP59       0.0576
     39  CG        15.7660  -10.0020  -24.8900 C.ar   59  TRP59       0.0006
     40  CD1       15.9620   -9.3120  -26.0520 C.ar   59  TRP59       0.0946
     41  CD2       15.4030  -11.3350  -25.2740 C.ar   59  TRP59       0.0152
     42  NE1       15.7230  -10.1260  -27.1360 N.ar   59  TRP59      -0.2442
     43  CE2       15.3810  -11.3730  -26.6840 C.ar   59  TRP59       0.0810
     44  CE3       15.0870  -12.4970  -24.5620 C.ar   59  TRP59       0.0012
     45  CZ2       15.0510  -12.5260  -27.3950 C.ar   59  TRP59       0.0191
     46  CZ3       14.7590  -13.6420  -25.2720 C.ar   59  TRP59       0.0001
     47  CH2       14.7450  -13.6470  -26.6730 C.ar   59  TRP59       0.0015
     48  N         28.1090   -2.0100  -22.3680 N.3   117  SER117     -0.1202
     49  CA        27.0820   -2.5040  -23.2880 C.3   117  SER117      0.2020
     50  C         27.3980   -3.8890  -23.8460 C.2   117  SER117      0.2619
     51  O         28.5310   -4.3480  -23.7830 O.2   117  SER117     -0.2717
     52  CB        26.8470   -1.5120  -24.4340 C.3   117  SER117      0.2103
     53  OG        27.9260   -1.5190  -25.3530 O.3   117  SER117     -0.2182
     54  N         26.3800   -4.5470  -24.3860 N.am  118  GLY118     -0.1942
     55  CA        26.5370   -5.8800  -24.9400 C.3   118  GLY118      0.2014
     56  C         27.5750   -5.9420  -26.0470 C.2   118  GLY118      0.2639
     57  O         28.4200   -6.8340  -26.0540 O.2   118  GLY118     -0.2714
     58  N         27.5120   -4.9980  -26.9850 N.am  119  SER119     -0.1949
     59  CA        28.4500   -4.9750  -28.1070 C.3   119  SER119      0.1924
     60  C         29.8880   -4.8820  -27.6100 C.2   119  SER119      0.2314
     61  O         30.7770   -5.5630  -28.1220 O.2   119  SER119     -0.2863
     62  CB        28.1530   -3.8120  -29.0620 C.3   119  SER119      0.2116
     63  OG        26.8730   -3.9330  -29.6530 O.3   119  SER119     -0.2180
     64  N         31.0840   -8.1480  -26.0970 N.3   122  VAL122     -0.1245
     65  CA        31.4420   -9.0860  -27.1610 C.3   122  VAL122      0.1561
     66  C         32.8480   -8.7990  -27.6860 C.2   122  VAL122      0.2260
     67  O         33.6360   -9.7170  -27.9270 O.2   122  VAL122     -0.2867
     68  CB        30.4200   -9.0360  -28.3210 C.3   122  VAL122      0.0252
     69  CG1       30.9340   -9.8150  -29.5260 C.3   122  VAL122      0.0019
     70  CG2       29.0810   -9.5830  -27.8540 C.3   122  VAL122      0.0019
     71  N         23.2470  -12.9350  -33.9120 N.3   151  TYR151     -0.1227
     72  CA        23.4140  -11.4940  -33.7560 C.3   151  TYR151      0.1736
     73  C         24.1630  -11.2080  -32.4590 C.2   151  TYR151      0.2595
     74  O         23.8160  -11.7500  -31.4080 O.2   151  TYR151     -0.2718
     75  CB        22.0630  -10.7720  -33.7650 C.3   151  TYR151      0.0548
     76  CG        22.2000   -9.2630  -33.7220 C.ar  151  TYR151     -0.0200
     77  CD1       22.3920   -8.5320  -34.8850 C.ar  151  TYR151     -0.0009
     78  CD2       22.1530   -8.5750  -32.5180 C.ar  151  TYR151     -0.0009
     79  CE1       22.5280   -7.1510  -34.8500 C.ar  151  TYR151      0.0417
     80  CE2       22.2870   -7.1970  -32.4730 C.ar  151  TYR151      0.0417
     81  CZ        22.4740   -6.4920  -33.6420 C.ar  151  TYR151      0.1957
     82  OH        22.6080   -5.1210  -33.5990 O.3   151  TYR151     -0.2866
     83  N         25.1810  -10.3540  -32.5310 N.am  152  HIS152     -0.1961
     84  CA        26.0400  -10.1010  -31.3770 C.3   152  HIS152      0.1787
     85  C         26.3540   -8.6190  -31.1500 C.2   152  HIS152      0.2621
     86  O         27.3200   -8.2870  -30.4650 O.2   152  HIS152     -0.2715
     87  CB        27.3490  -10.8770  -31.5240 C.3   152  HIS152      0.0785
     88  CG        27.1640  -12.3560  -31.6490 C.ar  152  HIS152      0.0821
     89  ND1       26.9510  -13.1720  -30.5600 N.ar  152  HIS152     -0.2267
     90  CD2       27.1550  -13.1660  -32.7350 C.ar  152  HIS152      0.1154
     91  CE1       26.8200  -14.4220  -30.9680 C.ar  152  HIS152      0.1986
     92  NE2       26.9390  -14.4460  -32.2840 N.ar  152  HIS152     -0.2212
     93  N         25.5480   -7.7290  -31.7160 N.am  153  GLY153     -0.1940
     94  CA        25.7760   -6.3040  -31.5340 C.3   153  GLY153      0.2014
     95  C         26.2030   -5.5910  -32.8030 C.2   153  GLY153      0.2638
     96  O         26.3160   -6.2110  -33.8650 O.2   153  GLY153     -0.2714
     97  N         26.4510   -4.2890  -32.7050 N.am  154  ASP154     -0.1971
     98  CA        26.6660   -3.5000  -33.9150 C.3   154  ASP154      0.1709
     99  C         27.9260   -2.6260  -33.9470 C.2   154  ASP154      0.2293
    100  O         28.0670   -1.7740  -34.8210 O.2   154  ASP154     -0.2864
    101  CB        25.4080   -2.6990  -34.3030 C.3   154  ASP154      0.1436
    102  CG        24.7450   -2.0250  -33.1190 C.2   154  ASP154      0.3671
    103  OD1       25.3390   -2.0180  -32.0180 O.co2 154  ASP154     -0.2456
    104  OD2       23.6260   -1.4910  -33.2950 O.co2 154  ASP154     -0.2456
    105  N         25.2150  -17.7900  -29.8600 N.3   204  GLU204     -0.1245
    106  CA        24.1510  -17.6680  -28.8700 C.3   204  GLU204      0.1567
    107  C         23.6560  -19.0760  -28.5560 C.2   204  GLU204      0.2260
    108  O         23.2150  -19.7980  -29.4540 O.2   204  GLU204     -0.2867
    109  CB        22.9860  -16.8480  -29.4260 C.3   204  GLU204      0.0388
    110  CG        23.3200  -15.4180  -29.8150 C.3   204  GLU204      0.1160
    111  CD        22.3000  -14.8360  -30.7820 C.2   204  GLU204      0.3649
    112  OE1       22.4580  -15.0500  -32.0030 O.co2 204  GLU204     -0.2457
    113  OE2       21.3430  -14.1690  -30.3300 O.co2 204  GLU204     -0.2457
    114  N         17.9590  -11.6170  -32.0260 N.3   210  ALA210     -0.1245
    115  CA        17.7750  -10.5980  -33.0550 C.3   210  ALA210      0.1562
    116  C         17.9140  -11.1430  -34.4730 C.2   210  ALA210      0.2260
    117  O         17.4150  -10.5420  -35.4240 O.2   210  ALA210     -0.2867
    118  CB        18.7470   -9.4400  -32.8330 C.3   210  ALA210      0.0290
    119  N         27.4970  -16.1820  -26.0970 N.3   238  ASP238     -0.1239
    120  CA        26.8940  -14.8660  -25.9450 C.3   238  ASP238      0.1674
    121  C         25.5180  -15.0340  -25.3170 C.2   238  ASP238      0.2266
    122  O         24.5450  -15.3240  -26.0100 O.2   238  ASP238     -0.2867
    123  CB        26.7630  -14.1720  -27.3050 C.3   238  ASP238      0.1410
    124  CG        26.1480  -12.7840  -27.2000 C.2   238  ASP238      0.3668
    125  OD1       25.5900  -12.4540  -26.1300 O.co2 238  ASP238     -0.2456
    126  OD2       26.2130  -12.0240  -28.1910 O.co2 238  ASP238     -0.2456
    127  N         23.8470  -12.6800  -23.6980 N.3   240  ILE240     -0.1231
    128  CA        23.3290  -11.3490  -23.4250 C.3   240  ILE240      0.1692
    129  C         21.7980  -11.3140  -23.4690 C.2   240  ILE240      0.2591
    130  O         21.1690  -10.5620  -22.7280 O.2   240  ILE240     -0.2718
    131  CB        23.9460  -10.3130  -24.3870 C.3   240  ILE240      0.0266
    132  CG1       25.4300  -10.1200  -24.0510 C.3   240  ILE240      0.0019
    133  CG2       23.1990   -8.9830  -24.3130 C.3   240  ILE240      0.0020
    134  CD1       26.2090   -9.3840  -25.1190 C.3   240  ILE240      0.0001
    135  N         21.2000  -12.1430  -24.3220 N.am  241  ALA241     -0.1980
    136  CA        19.7420  -12.2110  -24.4040 C.3   241  ALA241      0.1597
    137  C         19.1500  -13.3750  -23.6050 C.2   241  ALA241      0.2287
    138  O         18.0540  -13.2660  -23.0540 O.2   241  ALA241     -0.2864
    139  CB        19.2910  -12.2850  -25.8620 C.3   241  ALA241      0.0319
    140  N         21.8460   -6.9980  -20.6140 N.3   267  LYS267     -0.1245
    141  CA        20.3940   -6.8270  -20.5940 C.3   267  LYS267      0.1561
    142  C         19.7690   -7.0580  -19.2210 C.2   267  LYS267      0.2260
    143  O         19.8800   -6.2220  -18.3320 O.2   267  LYS267     -0.2867
    144  CB        19.7200   -7.7200  -21.6480 C.3   267  LYS267      0.0271
    145  CG        19.9850   -7.3150  -23.0890 C.3   267  LYS267      0.0035
    146  CD        19.2790   -8.2500  -24.0610 C.3   267  LYS267      0.0206
    147  CE        19.6820   -7.9910  -25.5070 C.3   267  LYS267      0.1093
    148  NZ        19.0310   -6.7840  -26.0870 N.3   267  LYS267     -0.1314
@<TRIPOS>BOND
     1    11    10    2
     2    10     9    1
     3    15    17   ar
     4    15    13   ar
     5    12     9    1
     6    12    13    1
     7    17    18   ar
     8     9     8    1
     9    13    14   ar
    10    18    19    1
    11    18    16   ar
    12     8     3   am
    13    14    16   ar
    14     4     3    2
    15   117   116    2
    16     3     2    1
    17    77    79   ar
    18    77    76   ar
    19    79    81   ar
    20   100    99    2
    21   116   115    1
    22   101    98    1
    23   101   102    1
    24    99    98    1
    25    98    97    1
    26    71    72    1
    27    96    95    2
    28     2     1    1
    29     2     5    1
    30    75    72    1
    31    75    76    1
    32    72    73    1
    33    76    78   ar
    34    81    82    1
    35    81    80   ar
    36     1     7    1
    37   104   102   ar
    38   102   103   ar
    39   115   118    1
    40   115   114    1
    41     5     6    1
    42    95    97   am
    43    95    94    1
    44    90    92   ar
    45    90    88   ar
    46    83    73   am
    47    83    84    1
    48    78    80   ar
    49    73    74    2
    50    92    91   ar
    51     7     6    1
    52   112   111   ar
    53    93    94    1
    54    93    85   am
    55    88    87    1
    56    88    89   ar
    57    87    84    1
    58    84    85    1
    59    85    86    2
    60    91    89   ar
    61    33    31   ar
    62    33    32   ar
    63   111   113   ar
    64   111   110    1
    65    31    29   ar
    66    32    30   ar
    67   105   106    1
    68   110   109    1
    69    63    62    1
    70    69    68    1
    71   108   107    2
    72   109   106    1
    73    29    28   ar
    74    29    27   ar
    75    62    59    1
    76    28    26   ar
    77   106   107    1
    78    30    27   ar
    79    27    25   ar
    80    68    70    1
    81    68    65    1
    82   126   124   ar
    83    61    60    2
    84    59    60    1
    85    59    58    1
    86    67    66    2
    87    66    65    1
    88    26    25   ar
    89    45    43   ar
    90    45    47   ar
    91    25    24    1
    92   123   124    1
    93   123   120    1
    94   124   125   ar
    95    65    64    1
    96    42    43   ar
    97    42    40   ar
    98    58    56   am
    99    43    41   ar
   100    47    46   ar
   101    24    21    1
   102   119   120    1
   103   148   147    1
   104    57    56    2
   105    40    39   ar
   106    56    55    1
   107   122   121    2
   108   120   121    1
   109   139   136    1
   110   147   146    1
   111    21    20    1
   112    21    22    1
   113    53    52    1
   114    41    39   ar
   115    41    44   ar
   116    46    44   ar
   117   134   132    1
   118    55    54    1
   119    39    38    1
   120    52    49    1
   121   136   135    1
   122   136   137    1
   123   131   133    1
   124   131   132    1
   125   131   128    1
   126    54    50   am
   127    22    23    2
   128    22    34   am
   129   135   129   am
   130   146   145    1
   131    50    51    2
   132    50    49    1
   133    34    35    1
   134   127   128    1
   135   137   138    2
   136    38    35    1
   137   129   128    1
   138   129   130    2
   139    49    48    1
   140   145   144    1
   141    35    36    1
   142   144   141    1
   143    36    37    2
   144   140   141    1
   145   141   142    1
   146   142   143    2
