@<TRIPOS>MOLECULE
tmp/3tfvA00.pdb
 223 209 0 0 0
SMALL
GASTEIGER

@<TRIPOS>ATOM
      1  N        -24.9010    6.3590   16.2500 N.3    18  HIS18      -0.1241
      2  CA       -24.7000    6.1820   14.8330 C.3    18  HIS18       0.1621
      3  C        -23.3560    6.6650   14.3750 C.2    18  HIS18       0.2264
      4  O        -22.5380    5.8750   13.9600 O.2    18  HIS18      -0.2867
      5  CB       -25.7650    6.9150   14.0570 C.3    18  HIS18       0.0745
      6  CG       -25.7790    6.5900   12.5990 C.ar   18  HIS18       0.0817
      7  ND1      -26.2240    5.3820   12.1170 N.ar   18  HIS18      -0.2268
      8  CD2      -25.4130    7.3140   11.5200 C.ar   18  HIS18       0.1154
      9  CE1      -26.1260    5.3730   10.8040 C.ar   18  HIS18       0.1986
     10  NE2      -25.6420    6.5360   10.4160 N.ar   18  HIS18      -0.2212
     11  N        -19.5090   12.8380   14.0450 N.3    22  PHE22      -0.1241
     12  CA       -20.3760   13.9750   14.1390 C.3    22  PHE22       0.1605
     13  C        -20.5130   14.4040   15.5570 C.2    22  PHE22       0.2264
     14  O        -20.3400   15.5890   15.8670 O.2    22  PHE22      -0.2867
     15  CB       -21.7220   13.6480   13.5370 C.3    22  PHE22       0.0534
     16  CG       -21.8330   14.0960   12.1470 C.ar   22  PHE22      -0.0203
     17  CD1      -22.7540   15.0820   11.8050 C.ar   22  PHE22      -0.0042
     18  CD2      -20.9520   13.5890   11.1790 C.ar   22  PHE22      -0.0042
     19  CE1      -22.8370   15.5300   10.5030 C.ar   22  PHE22      -0.0003
     20  CE2      -21.0070   14.0150    9.8720 C.ar   22  PHE22      -0.0003
     21  CZ       -21.9540   14.9940    9.5180 C.ar   22  PHE22      -0.0000
     22  N        -19.7890   17.9720   17.0610 N.3    26  PHE26      -0.1241
     23  CA       -20.8970   18.8610   17.3790 C.3    26  PHE26       0.1605
     24  C        -21.2150   18.9540   18.8650 C.2    26  PHE26       0.2264
     25  O        -21.8760   19.8940   19.3040 O.2    26  PHE26      -0.2867
     26  CB       -22.1190   18.5050   16.5530 C.3    26  PHE26       0.0534
     27  CG       -21.9600   18.8300   15.0970 C.ar   26  PHE26      -0.0203
     28  CD1      -21.7940   20.1490   14.6800 C.ar   26  PHE26      -0.0042
     29  CD2      -21.9540   17.8220   14.1360 C.ar   26  PHE26      -0.0042
     30  CE1      -21.6250   20.4630   13.3360 C.ar   26  PHE26      -0.0003
     31  CE2      -21.7780   18.1380   12.7880 C.ar   26  PHE26      -0.0003
     32  CZ       -21.6100   19.4700   12.3940 C.ar   26  PHE26      -0.0000
     33  N        -30.5940   15.6420   13.9040 N.3    41  TYR41      -0.1241
     34  CA       -29.9440   14.4010   13.5950 C.3    41  TYR41       0.1605
     35  C        -30.8380   13.2090   13.9460 C.2    41  TYR41       0.2264
     36  O        -31.0710   12.3330   13.1090 O.2    41  TYR41      -0.2867
     37  CB       -28.6390   14.2990   14.3610 C.3    41  TYR41       0.0534
     38  CG       -27.7760   13.1580   13.9220 C.ar   41  TYR41      -0.0201
     39  CD1      -27.9710   11.8760   14.4360 C.ar   41  TYR41      -0.0009
     40  CD2      -26.7460   13.3580   12.9810 C.ar   41  TYR41      -0.0009
     41  CE1      -27.1500   10.7990   14.0310 C.ar   41  TYR41       0.0417
     42  CE2      -25.9090   12.2920   12.5670 C.ar   41  TYR41       0.0417
     43  CZ       -26.1280   11.0180   13.0960 C.ar   41  TYR41       0.1957
     44  OH       -25.3360    9.9690   12.7000 O.3    41  TYR41      -0.2866
     45  N        -33.6920   12.6450   11.6940 N.3    44  CYS44      -0.1221
     46  CA       -33.2350   12.1120   10.4420 C.3    44  CYS44       0.1808
     47  C        -32.8450   10.6640   10.5800 C.2    44  CYS44       0.2601
     48  O        -33.1440    9.8490    9.7040 O.2    44  CYS44      -0.2717
     49  CB       -32.0680   12.9210    9.9200 C.3    44  CYS44       0.0970
     50  SG       -32.5900   14.5680    9.4860 S.3    44  CYS44      -0.0800
     51  N        -32.1810   10.3490   11.6820 N.am   45  ARG45      -0.1979
     52  CA       -31.7200    8.9950   11.9380 C.3    45  ARG45       0.1597
     53  C        -32.8970    8.0410   11.8780 C.2    45  ARG45       0.2287
     54  O        -32.8000    6.9370   11.3230 O.2    45  ARG45      -0.2864
     55  CB       -31.0880    8.9180   13.3180 C.3    45  ARG45       0.0334
     56  CG       -29.9830    7.9300   13.4220 C.3    45  ARG45       0.0492
     57  CD       -29.0920    8.0130   12.2150 C.3    45  ARG45       0.2205
     58  NE       -29.2120    6.8010   11.4000 N.pl3  45  ARG45      -0.0865
     59  CZ       -28.9820    6.7240   10.0850 C.cat  45  ARG45       0.5346
     60  NH1      -28.6320    7.7990    9.3820 N.pl3  45  ARG45       0.1354
     61  NH2      -29.1110    5.5480    9.4740 N.pl3  45  ARG45       0.1354
     62  N        -34.1940    7.3890    8.3200 N.3    48  ASP48      -0.1239
     63  CA       -33.4850    6.3500    7.5870 C.3    48  ASP48       0.1674
     64  C        -33.8690    4.9340    8.0690 C.2    48  ASP48       0.2266
     65  O        -34.0470    4.0090    7.2550 O.2    48  ASP48      -0.2867
     66  CB       -31.9690    6.5840    7.6170 C.3    48  ASP48       0.1410
     67  CG       -31.1880    5.4420    6.9800 C.2    48  ASP48       0.3668
     68  OD1      -31.6840    4.8150    6.0110 O.co2  48  ASP48      -0.2456
     69  OD2      -30.0660    5.1530    7.4520 O.co2  48  ASP48      -0.2456
     70  N        -35.9430   14.5550    2.1330 N.3   107  LEU107     -0.1245
     71  CA       -35.2370   13.3920    2.6610 C.3   107  LEU107      0.1561
     72  C        -36.1760   12.2120    2.7830 C.2   107  LEU107      0.2260
     73  O        -35.8030   11.0910    2.4790 O.2   107  LEU107     -0.2867
     74  CB       -34.5900   13.7220    3.9990 C.3   107  LEU107      0.0270
     75  CG       -34.0900   12.5780    4.8670 C.3   107  LEU107      0.0019
     76  CD1      -32.8480   11.9740    4.2850 C.3   107  LEU107      0.0001
     77  CD2      -33.8160   13.1070    6.2510 C.3   107  LEU107      0.0001
     78  N        -36.8150   10.7980   -0.4960 N.3   110  THR110     -0.1203
     79  CA       -35.6370   10.0770   -0.9180 C.3   110  THR110      0.1994
     80  C        -35.6810    8.6760   -0.3410 C.2   110  THR110      0.2617
     81  O        -35.3000    7.7320   -1.0090 O.2   110  THR110     -0.2717
     82  CB       -34.3510   10.8250   -0.4740 C.3   110  THR110      0.1784
     83  OG1      -34.3890   12.1670   -0.9750 O.3   110  THR110     -0.2211
     84  CG2      -33.0740   10.1240   -0.9600 C.3   110  THR110      0.0376
     85  N        -36.1610    8.5340    0.8910 N.am  111  VAL111     -0.1979
     86  CA       -36.1960    7.2140    1.5310 C.3   111  VAL111      0.1595
     87  C        -37.3220    6.3210    0.9970 C.2   111  VAL111      0.2287
     88  O        -37.0490    5.1820    0.6410 O.2   111  VAL111     -0.2864
     89  CB       -36.1880    7.3030    3.0800 C.3   111  VAL111      0.0276
     90  CG1      -36.2420    5.9120    3.7000 C.3   111  VAL111      0.0022
     91  CG2      -34.9360    8.0560    3.5560 C.3   111  VAL111      0.0022
     92  N        -36.1140    4.9390   -2.0680 N.3   114  ASP114     -0.1239
     93  CA       -34.9750    4.0510   -2.0940 C.3   114  ASP114      0.1674
     94  C        -35.3660    2.5990   -1.9980 C.2   114  ASP114      0.2266
     95  O        -34.6200    1.7180   -2.3440 O.2   114  ASP114     -0.2867
     96  CB       -34.0050    4.4230   -0.9990 C.3   114  ASP114      0.1410
     97  CG       -32.9140    3.4630   -0.8790 C.2   114  ASP114      0.3668
     98  OD1      -33.2170    2.3140   -0.6290 O.co2 114  ASP114     -0.2456
     99  OD2      -31.7570    3.8340   -1.0310 O.co2 114  ASP114     -0.2456
    100  N        -28.8800   11.7510   -5.3680 N.3   129  TYR129     -0.1241
    101  CA       -29.1880   10.9600   -4.1950 C.3   129  TYR129      0.1605
    102  C        -28.5230   11.6550   -3.0050 C.2   129  TYR129      0.2264
    103  O        -29.2140   12.0240   -2.0690 O.2   129  TYR129     -0.2867
    104  CB       -28.7680    9.4930   -4.4240 C.3   129  TYR129      0.0534
    105  CG       -28.5870    8.6400   -3.1930 C.ar  129  TYR129     -0.0201
    106  CD1      -27.3350    8.5040   -2.6200 C.ar  129  TYR129     -0.0009
    107  CD2      -29.6540    7.9420   -2.6140 C.ar  129  TYR129     -0.0009
    108  CE1      -27.1280    7.7140   -1.4660 C.ar  129  TYR129      0.0417
    109  CE2      -29.4600    7.1360   -1.4430 C.ar  129  TYR129      0.0417
    110  CZ       -28.1830    7.0360   -0.8820 C.ar  129  TYR129      0.1957
    111  OH       -27.9060    6.2680    0.2380 O.3   129  TYR129     -0.2866
    112  N        -30.2230   12.6190    0.5840 N.3   133  VAL133     -0.1231
    113  CA       -29.9400   12.0240    1.8760 C.3   133  VAL133      0.1692
    114  C        -29.1340   12.9440    2.7960 C.2   133  VAL133      0.2591
    115  O        -29.2220   12.8200    4.0240 O.2   133  VAL133     -0.2718
    116  CB       -29.2510   10.6370    1.7540 C.3   133  VAL133      0.0266
    117  CG1      -29.2760   10.1710    0.3340 C.3   133  VAL133      0.0020
    118  CG2      -27.7930   10.6560    2.2680 C.3   133  VAL133      0.0020
    119  N        -28.3580   13.8690    2.2360 N.am  134  ALA134     -0.1980
    120  CA       -27.4870   14.6570    3.0850 C.3   134  ALA134      0.1597
    121  C        -27.5140   16.1410    2.8030 C.2   134  ALA134      0.2287
    122  O        -27.5200   16.9290    3.7330 O.2   134  ALA134     -0.2864
    123  CB       -26.0930   14.1260    3.0260 C.3   134  ALA134      0.0319
    124  N        -29.9180   17.5020    4.9310 N.3   137  VAL137     -0.1231
    125  CA       -29.5570   17.5920    6.3390 C.3   137  VAL137      0.1692
    126  C        -28.7900   18.8910    6.5440 C.2   137  VAL137      0.2592
    127  O        -29.0890   19.6330    7.4680 O.2   137  VAL137     -0.2718
    128  CB       -28.7330   16.3670    6.8160 C.3   137  VAL137      0.0266
    129  CG1      -28.2010   16.5730    8.2360 C.3   137  VAL137      0.0020
    130  CG2      -29.5580   15.0970    6.7120 C.3   137  VAL137      0.0020
    131  N        -27.8360   19.1820    5.6660 N.am  138  GLY138     -0.1957
    132  CA       -27.1030   20.4300    5.7540 C.3   138  GLY138      0.1869
    133  C        -28.0070   21.6480    5.7630 C.2   138  GLY138      0.2309
    134  O        -27.7960   22.5750    6.5180 O.2   138  GLY138     -0.2863
    135  N        -29.8060   22.0870    9.0530 N.3   141  LEU141     -0.1245
    136  CA       -28.8160   22.5560   10.0230 C.3   141  LEU141      0.1561
    137  C        -28.4020   24.0250    9.9080 C.2   141  LEU141      0.2260
    138  O        -27.9110   24.6160   10.8770 O.2   141  LEU141     -0.2867
    139  CB       -27.5690   21.6750    9.9990 C.3   141  LEU141      0.0270
    140  CG       -27.7410   20.2540   10.5240 C.3   141  LEU141      0.0019
    141  CD1      -26.4320   19.5250   10.5540 C.3   141  LEU141      0.0001
    142  CD2      -28.3360   20.2700   11.9160 C.3   141  LEU141      0.0001
    143  N        -26.4120   26.8710   12.5670 N.3   145  LEU145     -0.1245
    144  CA       -24.9760   27.1480   12.6300 C.3   145  LEU145      0.1561
    145  C        -24.5120   28.4490   11.9660 C.2   145  LEU145      0.2260
    146  O        -23.3360   28.5830   11.5920 O.2   145  LEU145     -0.2867
    147  CB       -24.1790   25.9780   12.0620 C.3   145  LEU145      0.0270
    148  CG       -24.5470   24.5410   12.4410 C.3   145  LEU145      0.0019
    149  CD1      -23.6380   23.5790   11.7170 C.3   145  LEU145      0.0001
    150  CD2      -24.5000   24.3020   13.9450 C.3   145  LEU145      0.0001
    151  N        -23.4770   24.7290    3.1230 N.3   157  ALA157     -0.1245
    152  CA       -23.9270   23.6290    3.9980 C.3   157  ALA157      0.1562
    153  C        -24.3570   22.3640    3.2600 C.2   157  ALA157      0.2260
    154  O        -23.8630   21.2710    3.5610 O.2   157  ALA157     -0.2867
    155  CB       -25.0330   24.0940    4.9310 C.3   157  ALA157      0.0290
    156  N        -21.4710   20.7490    1.7200 N.3   160  LEU160     -0.1231
    157  CA       -20.7480   19.9610    2.7120 C.3   160  LEU160      0.1693
    158  C        -21.4630   18.6320    2.9340 C.2   160  LEU160      0.2592
    159  O        -20.8570   17.5760    2.8820 O.2   160  LEU160     -0.2718
    160  CB       -20.6330   20.7440    4.0220 C.3   160  LEU160      0.0284
    161  CG       -19.9830   20.1390    5.2730 C.3   160  LEU160      0.0019
    162  CD1      -18.6280   19.5610    5.0120 C.3   160  LEU160      0.0001
    163  CD2      -19.7890   21.2230    6.2640 C.3   160  LEU160      0.0001
    164  N        -22.7620   18.7040    3.1730 N.am  161  GLY161     -0.1957
    165  CA       -23.5590   17.5200    3.3680 C.3   161  GLY161      0.1869
    166  C        -23.3510   16.5120    2.2670 C.2   161  GLY161      0.2309
    167  O        -23.0980   15.3380    2.5270 O.2   161  GLY161     -0.2863
    168  N        -19.7400   14.7450    2.4040 N.3   164  LEU164     -0.1231
    169  CA       -19.5980   13.7660    3.4490 C.3   164  LEU164      0.1693
    170  C        -20.2770   12.4790    3.0100 C.2   164  LEU164      0.2591
    171  O        -19.6700   11.4080    3.0260 O.2   164  LEU164     -0.2718
    172  CB       -20.2010   14.2980    4.7390 C.3   164  LEU164      0.0284
    173  CG       -19.7340   15.6880    5.1990 C.3   164  LEU164      0.0019
    174  CD1      -20.5870   16.1850    6.3650 C.3   164  LEU164      0.0001
    175  CD2      -18.2590   15.7020    5.5810 C.3   164  LEU164      0.0001
    176  N        -21.5180   12.5870    2.5600 N.am  165  GLN165     -0.1979
    177  CA       -22.2020   11.4210    2.0300 C.3   165  GLN165      0.1601
    178  C        -21.3690   10.7500    0.9590 C.2   165  GLN165      0.2287
    179  O        -21.2110    9.5310    0.9530 O.2   165  GLN165     -0.2864
    180  CB       -23.5540   11.7880    1.4620 C.3   165  GLN165      0.0394
    181  CG       -24.2960   10.6070    0.9010 C.3   165  GLN165      0.0908
    182  CD       -24.4960    9.4740    1.9020 C.2   165  GLN165      0.2608
    183  OE1      -24.5690    9.6820    3.1210 O.2   165  GLN165     -0.2717
    184  NE2      -24.6060    8.2540    1.3790 N.am  165  GLN165     -0.0878
    185  N        -18.7890    8.8370    2.8600 N.3   168  ASN168     -0.1240
    186  CA       -19.3120    7.6920    3.5440 C.3   168  ASN168      0.1653
    187  C        -19.5500    6.5720    2.5190 C.2   168  ASN168      0.2266
    188  O        -19.1070    5.4810    2.7240 O.2   168  ASN168     -0.2867
    189  CB       -20.4820    8.0820    4.5080 C.3   168  ASN168      0.1155
    190  CG       -21.6680    7.1260    4.4480 C.2   168  ASN168      0.2627
    191  OD1      -21.5240    5.8850    4.4280 O.2   168  ASN168     -0.2716
    192  ND2      -22.8630    7.7070    4.4170 N.am  168  ASN168     -0.0877
    193  N        -23.3550    2.1110   -5.2790 N.3   183  TYR183     -0.1241
    194  CA       -23.6230    3.5180   -5.5020 C.3   183  TYR183      0.1605
    195  C        -22.8530    4.1980   -6.6600 C.2   183  TYR183      0.2264
    196  O        -23.3230    5.1930   -7.2180 O.2   183  TYR183     -0.2867
    197  CB       -23.5190    4.2600   -4.1740 C.3   183  TYR183      0.0534
    198  CG       -24.6370    3.8450   -3.2450 C.ar  183  TYR183     -0.0201
    199  CD1      -25.9610    4.2840   -3.4730 C.ar  183  TYR183     -0.0009
    200  CD2      -24.4040    2.9900   -2.1650 C.ar  183  TYR183     -0.0009
    201  CE1      -27.0270    3.9040   -2.6350 C.ar  183  TYR183      0.0417
    202  CE2      -25.4670    2.6060   -1.3150 C.ar  183  TYR183      0.0417
    203  CZ       -26.7770    3.0680   -1.5560 C.ar  183  TYR183      0.1957
    204  OH       -27.8340    2.7010   -0.7320 O.3   183  TYR183     -0.2866
    205  N        -20.6380   30.6470    8.3600 N.3   233  PHE233     -0.1241
    206  CA       -21.1350   30.0610    9.5830 C.3   233  PHE233      0.1605
    207  C        -20.6930   30.9140   10.7540 C.2   233  PHE233      0.2264
    208  O        -19.5860   31.4560   10.7420 O.2   233  PHE233     -0.2867
    209  CB       -20.6030   28.6320    9.7630 C.3   233  PHE233      0.0534
    210  CG       -21.0600   27.6640    8.7050 C.ar  233  PHE233     -0.0203
    211  CD1      -22.3940   27.2410    8.6500 C.ar  233  PHE233     -0.0042
    212  CD2      -20.1620   27.1740    7.7690 C.ar  233  PHE233     -0.0042
    213  CE1      -22.8360   26.3600    7.6700 C.ar  233  PHE233     -0.0003
    214  CE2      -20.5850   26.2890    6.7860 C.ar  233  PHE233     -0.0003
    215  CZ       -21.9320   25.8740    6.7360 C.ar  233  PHE233     -0.0000
    216  N        -17.2220   22.9140   12.5420 N.3   241  ILE241     -0.1245
    217  CA       -17.6260   22.4600   11.2240 C.3   241  ILE241      0.1561
    218  C        -16.4010   22.0850   10.4610 C.2   241  ILE241      0.2260
    219  O        -16.4300   21.1620    9.6690 O.2   241  ILE241     -0.2867
    220  CB       -18.4520   23.5200   10.4560 C.3   241  ILE241      0.0252
    221  CG1      -19.9090   23.4760   10.9290 C.3   241  ILE241      0.0019
    222  CG2      -18.3690   23.3060    8.9280 C.3   241  ILE241      0.0019
    223  CD1      -20.5540   24.8280   10.9910 C.3   241  ILE241      0.0001
@<TRIPOS>BOND
     1   196   195    2
     2   195   194    1
     3   194   193    1
     4   194   197    1
     5   100   101    1
     6   104   101    1
     7   104   105    1
     8   101   102    1
     9   197   198    1
    10   199   198   ar
    11   199   201   ar
    12   198   200   ar
    13   105   106   ar
    14   105   107   ar
    15   102   103    2
    16   201   203   ar
    17   106   108   ar
    18   107   109   ar
    19    95    94    2
    20   200   202   ar
    21    93    92    1
    22    93    94    1
    23    93    96    1
    24   203   202   ar
    25   203   204    1
    26   108   110   ar
    27   109   110   ar
    28    99    97   ar
    29    81    80    2
    30    96    97    1
    31    83    82    1
    32    84    82    1
    33    79    78    1
    34    79    82    1
    35    79    80    1
    36   110   111    1
    37    97    98   ar
    38    80    85   am
    39   117   116    1
    40   112   113    1
    41    88    87    2
    42    85    86    1
    43   181   180    1
    44   181   182    1
    45   179   178    2
    46   178   177    1
    47    87    86    1
    48   184   182   am
    49   180   177    1
    50    86    89    1
    51   156   157    1
    52   116   113    1
    53   116   118    1
    54   113   114    1
    55   182   183    2
    56   177   176    1
    57    70    71    1
    58   119   114   am
    59   119   120    1
    60   166   167    2
    61   166   165    1
    62   168   169    1
    63    73    72    2
    64   187   188    2
    65   187   186    1
    66   176   170   am
    67    71    72    1
    68    71    74    1
    69   157   158    1
    70   157   160    1
    71   114   115    2
    72   121   120    1
    73   121   122    2
    74   185   186    1
    75   159   158    2
    76   158   164   am
    77   170   171    2
    78   170   169    1
    79   123   120    1
    80    89    91    1
    81    89    90    1
    82   151   152    1
    83   164   165    1
    84   153   154    2
    85   153   152    1
    86   169   172    1
    87   186   189    1
    88   152   155    1
    89    74    75    1
    90   160   161    1
    91    76    75    1
    92   192   190   am
    93   191   190    2
    94   190   189    1
    95   172   173    1
    96    75    77    1
    97   124   125    1
    98   162   161    1
    99   173   175    1
   100   173   174    1
   101   161   163    1
   102   131   132    1
   103   131   126   am
   104   132   133    1
   105   133   134    2
   106    68    67   ar
   107   125   126    1
   108   125   128    1
   109   126   127    2
   110   130   128    1
   111   215   214   ar
   112   215   213   ar
   113   214   212   ar
   114   128   129    1
   115    67    69   ar
   116    67    66    1
   117    65    64    2
   118    63    66    1
   119    63    64    1
   120    63    62    1
   121   213   211   ar
   122   212   210   ar
   123   205   206    1
   124   211   210   ar
   125   210   209    1
   126   222   220    1
   127   135   136    1
   128    60    59    1
   129    61    59    1
   130    50    49    1
   131    21    20   ar
   132    21    19   ar
   133   206   209    1
   134   206   207    1
   135   219   218    2
   136    48    47    2
   137    20    18   ar
   138   137   136    1
   139   137   138    2
   140    49    46    1
   141   139   136    1
   142   139   140    1
   143    59    58    2
   144    10     9   ar
   145    10     8   ar
   146    46    47    1
   147    46    45    1
   148   220   221    1
   149   220   217    1
   150   218   217    1
   151    19    17   ar
   152   140   141    1
   153   140   142    1
   154    47    51   am
   155   208   207    2
   156     9     7   ar
   157   221   223    1
   158    18    16   ar
   159   217   216    1
   160    54    53    2
   161    58    57    1
   162     8     6   ar
   163   146   145    2
   164    51    52    1
   165   149   148    1
   166    17    16   ar
   167    53    52    1
   168    52    55    1
   169   145   144    1
   170   147   148    1
   171   147   144    1
   172     7     6   ar
   173    16    15    1
   174    57    56    1
   175    32    31   ar
   176    32    30   ar
   177   148   150    1
   178   143   144    1
   179    42    40   ar
   180    42    43   ar
   181     6     5    1
   182    44    43    1
   183    31    29   ar
   184    40    38   ar
   185    43    41   ar
   186    36    35    2
   187    55    56    1
   188    30    28   ar
   189    15    12    1
   190    34    33    1
   191    34    35    1
   192    34    37    1
   193    38    37    1
   194    38    39   ar
   195     4     3    2
   196    41    39   ar
   197    11    12    1
   198     5     2    1
   199    29    27   ar
   200    12    13    1
   201     3     2    1
   202    28    27   ar
   203     2     1    1
   204    27    26    1
   205    13    14    2
   206    26    23    1
   207    22    23    1
   208    23    24    1
   209    24    25    2
