@<TRIPOS>MOLECULE
tmp/3tfyC01.pdb
 208 205 0 0 0
SMALL
GASTEIGER

@<TRIPOS>ATOM
      1  N         10.9560  -16.2400   15.6130 N.3    23  ILE23      -0.1231
      2  CA         9.5960  -16.4090   15.1170 C.3    23  ILE23       0.1692
      3  C          9.1590  -15.3430   14.1080 C.2    23  ILE23       0.2592
      4  O          8.4920  -15.6490   13.1290 O.2    23  ILE23      -0.2718
      5  CB         8.6220  -16.3840   16.2950 C.3    23  ILE23       0.0266
      6  CG1        9.0450  -17.4210   17.3310 C.3    23  ILE23       0.0019
      7  CG2        7.2060  -16.6050   15.8260 C.3    23  ILE23       0.0020
      8  CD1        8.3060  -17.3080   18.6250 C.3    23  ILE23       0.0001
      9  N          9.5260  -14.0890   14.3580 N.am   24  PHE24      -0.1976
     10  CA         9.0520  -12.9650   13.5420 C.3    24  PHE24       0.1639
     11  C         10.1570  -12.3310   12.6820 C.2    24  PHE24       0.2290
     12  O         11.2700  -12.1070   13.1680 O.2    24  PHE24      -0.2864
     13  CB         8.4290  -11.9070   14.4470 C.3    24  PHE24       0.0560
     14  CG         7.3470  -12.4350   15.3400 C.ar   24  PHE24      -0.0200
     15  CD1        6.0740  -12.6730   14.8450 C.ar   24  PHE24      -0.0042
     16  CD2        7.5960  -12.6760   16.6800 C.ar   24  PHE24      -0.0042
     17  CE1        5.0760  -13.1490   15.6650 C.ar   24  PHE24      -0.0003
     18  CE2        6.6030  -13.1450   17.5120 C.ar   24  PHE24      -0.0003
     19  CZ         5.3430  -13.3830   17.0040 C.ar   24  PHE24      -0.0000
     20  N         -3.2700   -7.3980   19.5500 N.3    71  ILE71      -0.1231
     21  CA        -2.2340   -8.4130   19.6200 C.3    71  ILE71       0.1692
     22  C         -1.0810   -7.9430   18.7660 C.2    71  ILE71       0.2592
     23  O         -1.1830   -7.8900   17.5590 O.2    71  ILE71      -0.2718
     24  CB        -2.7270   -9.7980   19.1310 C.3    71  ILE71       0.0266
     25  CG1       -4.1040  -10.1180   19.7330 C.3    71  ILE71       0.0019
     26  CG2       -1.6840  -10.8540   19.4620 C.3    71  ILE71       0.0020
     27  CD1       -4.4670  -11.5700   19.7630 C.3    71  ILE71       0.0001
     28  N          0.0170   -7.5640   19.3880 N.am   72  MET72      -0.1965
     29  CA         1.1140   -7.0470   18.5990 C.3    72  MET72       0.1736
     30  C          1.9440   -8.2080   18.1040 C.2    72  MET72       0.2617
     31  O          2.3650   -8.2190   16.9570 O.2    72  MET72      -0.2715
     32  CB         1.9650   -6.0620   19.4050 C.3    72  MET72       0.0427
     33  CG         1.1600   -5.1620   20.3310 C.3    72  MET72       0.0599
     34  SD         2.2380   -4.4750   21.5800 S.3    72  MET72      -0.1393
     35  CE         3.2920   -3.4720   20.5470 C.3    72  MET72       0.0692
     36  N          2.1850   -9.1820   18.9720 N.am   73  THR73      -0.1937
     37  CA         2.8400  -10.4230   18.5610 C.3    73  THR73       0.2028
     38  C          2.1660  -11.6140   19.2310 C.2    73  THR73       0.2642
     39  O          1.6040  -11.4820   20.3150 O.2    73  THR73      -0.2714
     40  CB         4.3420  -10.4310   18.9240 C.3    73  THR73       0.1808
     41  OG1        4.4950  -10.2310   20.3320 O.3    73  THR73      -0.2208
     42  CG2        5.0660   -9.3400   18.1920 C.3    73  THR73       0.0379
     43  N          2.2170  -12.7690   18.5750 N.am   74  LEU74      -0.1963
     44  CA         1.7910  -14.0290   19.1900 C.3    74  LEU74       0.1728
     45  C          2.2670  -15.1930   18.3370 C.2    74  LEU74       0.2617
     46  O          1.8380  -15.3330   17.1890 O.2    74  LEU74      -0.2715
     47  CB         0.2720  -14.0820   19.3420 C.3    74  LEU74       0.0311
     48  CG        -0.3450  -15.2610   20.1030 C.3    74  LEU74       0.0022
     49  CD1       -1.8300  -15.0000   20.2950 C.3    74  LEU74       0.0001
     50  CD2       -0.1290  -16.6220   19.4280 C.3    74  LEU74       0.0001
     51  N          3.1460  -16.0230   18.8920 N.am   75  GLY75      -0.1940
     52  CA         3.6860  -17.1470   18.1560 C.3    75  GLY75       0.2014
     53  C          4.4790  -18.1330   18.9970 C.2    75  GLY75       0.2639
     54  O          4.6540  -17.9300   20.1940 O.2    75  GLY75      -0.2714
     55  N          4.9360  -19.2170   18.3700 N.am   76  CYS76      -0.1967
     56  CA         5.9300  -20.0920   18.9780 C.3    76  CYS76       0.1712
     57  C          6.8140  -20.7660   17.9310 C.2    76  CYS76       0.2296
     58  O          6.4990  -20.7870   16.7430 O.2    76  CYS76      -0.2864
     59  CB         5.2820  -21.1330   19.8850 C.3    76  CYS76       0.0983
     60  SG         4.4770  -22.4500   19.0160 S.3    76  CYS76      -0.0798
     61  N          4.9420  -26.2410   17.0020 N.3    81  ARG81      -0.1231
     62  CA         3.6420  -25.8940   16.4550 C.3    81  ARG81       0.1694
     63  C          2.6670  -27.0810   16.3820 C.2    81  ARG81       0.2592
     64  O          3.0600  -28.2510   16.3180 O.2    81  ARG81      -0.2718
     65  CB         3.8200  -25.2100   15.1020 C.3    81  ARG81       0.0321
     66  CG         4.4230  -23.8480   15.2920 C.3    81  ARG81       0.0489
     67  CD         4.9400  -23.1650   14.0410 C.3    81  ARG81       0.2205
     68  NE         5.5620  -21.8970   14.4190 N.pl3  81  ARG81      -0.0865
     69  CZ         6.2840  -21.1280   13.6120 C.cat  81  ARG81       0.5346
     70  NH1        6.4860  -21.4900   12.3560 N.pl3  81  ARG81       0.1354
     71  NH2        6.8040  -19.9950   14.0650 N.pl3  81  ARG81       0.1354
     72  N          1.3820  -26.7650   16.4120 N.am   82  ARG82      -0.1966
     73  CA         0.3580  -27.7850   16.2820 C.3    82  ARG82       0.1729
     74  C          0.1930  -28.6020   17.5510 C.2    82  ARG82       0.2616
     75  O         -0.4760  -29.6320   17.5330 O.2    82  ARG82      -0.2715
     76  CB         0.6600  -28.6950   15.0830 C.3    82  ARG82       0.0348
     77  CG         0.4320  -28.0090   13.7320 C.3    82  ARG82       0.0492
     78  CD        -0.9880  -27.3660   13.6360 C.3    82  ARG82       0.2205
     79  NE        -1.4690  -27.3490   12.2510 N.pl3  82  ARG82      -0.0865
     80  CZ        -2.5850  -27.9450   11.8110 C.cat  82  ARG82       0.5346
     81  NH1       -2.8960  -27.8880   10.5270 N.pl3  82  ARG82       0.1354
     82  NH2       -3.4000  -28.5990   12.6310 N.pl3  82  ARG82       0.1354
     83  N          0.7860  -28.1390   18.6520 N.am   83  LEU83      -0.1963
     84  CA         0.6200  -28.8000   19.9500 C.3    83  LEU83       0.1728
     85  C         -0.3750  -28.0630   20.8330 C.2    83  LEU83       0.2617
     86  O         -0.5280  -28.3670   22.0190 O.2    83  LEU83      -0.2715
     87  CB         1.9610  -28.9440   20.6600 C.3    83  LEU83       0.0311
     88  CG         2.9340  -29.8730   19.9230 C.3    83  LEU83       0.0022
     89  CD1        4.3320  -29.8470   20.5140 C.3    83  LEU83       0.0001
     90  CD2        2.3810  -31.2950   19.8630 C.3    83  LEU83       0.0001
     91  N         -1.0480  -27.0840   20.2390 N.am   84  GLY84      -0.1940
     92  CA        -2.0860  -26.3410   20.9190 C.3    84  GLY84       0.2014
     93  C         -1.5190  -25.2310   21.7820 C.2    84  GLY84       0.2639
     94  O         -2.2290  -24.6990   22.6400 O.2    84  GLY84      -0.2714
     95  N         -0.2470  -24.8790   21.5690 N.am   85  ILE85      -0.1963
     96  CA         0.4010  -23.8060   22.3290 C.3    85  ILE85       0.1727
     97  C         -0.1450  -22.4230   21.9720 C.2    85  ILE85       0.2617
     98  O         -0.3750  -21.5780   22.8430 O.2    85  ILE85      -0.2715
     99  CB         1.9010  -23.7800   22.0660 C.3    85  ILE85       0.0290
    100  CG1        2.5950  -24.8970   22.8490 C.3    85  ILE85       0.0022
    101  CG2        2.4850  -22.4060   22.4060 C.3    85  ILE85       0.0023
    102  CD1        4.0670  -24.9710   22.5590 C.3    85  ILE85       0.0001
    103  N         -0.3180  -22.1850   20.6790 N.am   86  GLY86      -0.1940
    104  CA        -0.8700  -20.9320   20.2230 C.3    86  GLY86       0.2014
    105  C         -2.2150  -20.7800   20.8880 C.2    86  GLY86       0.2639
    106  O         -2.5500  -19.7260   21.4200 O.2    86  GLY86      -0.2714
    107  N         -2.9790  -21.8590   20.8760 N.am   87  THR87      -0.1950
    108  CA        -4.3270  -21.8570   21.4260 C.3    87  THR87       0.1897
    109  C         -4.2890  -21.4810   22.9090 C.2    87  THR87       0.2313
    110  O         -5.2060  -20.8290   23.4260 O.2    87  THR87      -0.2863
    111  CB        -5.0140  -23.2310   21.2290 C.3    87  THR87       0.1794
    112  OG1       -5.2940  -23.4300   19.8370 O.3    87  THR87      -0.2208
    113  CG2       -6.3020  -23.3420   22.0330 C.3    87  THR87       0.0378
    114  N         -5.5970   -7.6690   15.0160 N.3   108  LEU108     -0.1231
    115  CA        -4.1580   -7.6490   14.7240 C.3   108  LEU108      0.1693
    116  C         -3.9050   -7.5460   13.2300 C.2   108  LEU108      0.2592
    117  O         -4.8350   -7.6290   12.4340 O.2   108  LEU108     -0.2718
    118  CB        -3.4780   -8.9240   15.2130 C.3   108  LEU108      0.0284
    119  CG        -3.8860  -10.1930   14.4530 C.3   108  LEU108      0.0019
    120  CD1       -2.7710  -11.2360   14.4450 C.3   108  LEU108      0.0001
    121  CD2       -5.1730  -10.7640   15.0300 C.3   108  LEU108      0.0001
    122  N         -2.6320   -7.4070   12.8590 N.am  109  HIS109     -0.1962
    123  CA        -2.2080   -7.3930   11.4560 C.3   109  HIS109      0.1787
    124  C         -1.4150   -8.6400   11.1270 C.2   109  HIS109      0.2620
    125  O         -0.7600   -9.2060   11.9960 O.2   109  HIS109     -0.2715
    126  CB        -1.3130   -6.1900   11.1540 C.3   109  HIS109      0.0785
    127  CG        -1.9550   -4.8630   11.4230 C.ar  109  HIS109      0.0821
    128  ND1       -1.9650   -4.2790   12.6750 N.ar  109  HIS109     -0.2267
    129  CD2       -2.6000   -3.9990   10.6000 C.ar  109  HIS109      0.1154
    130  CE1       -2.5930   -3.1190   12.6130 C.ar  109  HIS109      0.1986
    131  NE2       -2.9860   -2.9260   11.3650 N.ar  109  HIS109     -0.2212
    132  N         -1.4490   -9.0430    9.8600 N.am  110  VAL110     -0.1977
    133  CA        -0.7980  -10.2650    9.4010 C.3   110  VAL110      0.1596
    134  C         -0.3500  -10.0450    7.9580 C.2   110  VAL110      0.2287
    135  O         -1.1020   -9.4790    7.1630 O.2   110  VAL110     -0.2864
    136  CB        -1.7960  -11.4480    9.4400 C.3   110  VAL110      0.0276
    137  CG1       -1.2620  -12.6400    8.6810 C.3   110  VAL110      0.0022
    138  CG2       -2.1130  -11.8300   10.8640 C.3   110  VAL110      0.0022
    139  N          0.9200  -14.9980    5.0960 N.3   114  ASN114     -0.1240
    140  CA         0.7780  -15.8610    6.2660 C.3   114  ASN114      0.1653
    141  C         -0.5500  -16.6500    6.3140 C.2   114  ASN114      0.2266
    142  O         -1.4980  -16.2800    7.0100 O.2   114  ASN114     -0.2867
    143  CB         0.9450  -15.0250    7.5290 C.3   114  ASN114      0.1155
    144  CG         1.2330  -15.8660    8.7660 C.2   114  ASN114      0.2627
    145  OD1        1.2070  -17.1040    8.7370 O.2   114  ASN114     -0.2716
    146  ND2        1.5180  -15.1850    9.8670 N.am  114  ASN114     -0.0877
    147  N         -1.0100  -19.7510    7.5600 N.3   116  SER116     -0.1202
    148  CA        -1.2120  -20.4790    8.8160 C.3   116  SER116      0.2020
    149  C         -1.8570  -19.5930    9.9010 C.2   116  SER116      0.2618
    150  O         -2.6530  -20.0700   10.7220 O.2   116  SER116     -0.2717
    151  CB         0.0630  -21.2180    9.2990 C.3   116  SER116      0.2103
    152  OG         0.9800  -20.3810    9.9820 O.3   116  SER116     -0.2182
    153  N         -1.5490  -18.3010    9.8930 N.am  117  ALA117     -0.1979
    154  CA        -2.1720  -17.4050   10.8630 C.3   117  ALA117      0.1597
    155  C         -3.6630  -17.1820   10.5760 C.2   117  ALA117      0.2287
    156  O         -4.5060  -17.3000   11.4730 O.2   117  ALA117     -0.2864
    157  CB        -1.4360  -16.1040   10.9220 C.3   117  ALA117      0.0319
    158  N         -5.7990  -19.1490    8.9720 N.3   119  ASP119     -0.1225
    159  CA        -6.4520  -20.3990    9.3790 C.3   119  ASP119      0.1805
    160  C         -6.5530  -20.5390   10.8850 C.2   119  ASP119      0.2598
    161  O         -7.5440  -21.0470   11.4220 O.2   119  ASP119     -0.2718
    162  CB        -5.6670  -21.6050    8.8610 C.3   119  ASP119      0.1424
    163  CG        -5.8330  -21.8110    7.3810 C.2   119  ASP119      0.3668
    164  OD1       -6.8700  -21.3690    6.8350 O.co2 119  ASP119     -0.2456
    165  OD2       -4.9240  -22.4120    6.7710 O.co2 119  ASP119     -0.2456
    166  N         -5.5010  -20.1140   11.5660 N.am  120  PHE120     -0.1962
    167  CA        -5.4560  -20.2270   13.0070 C.3   120  PHE120      0.1771
    168  C         -6.4970  -19.3030   13.6460 C.2   120  PHE120      0.2619
    169  O         -7.3220  -19.7470   14.4540 O.2   120  PHE120     -0.2715
    170  CB        -4.0370  -19.9370   13.4960 C.3   120  PHE120      0.0574
    171  CG        -3.9280  -19.7760   14.9790 C.ar  120  PHE120     -0.0200
    172  CD1       -3.7890  -20.8800   15.8020 C.ar  120  PHE120     -0.0042
    173  CD2       -3.9560  -18.5120   15.5540 C.ar  120  PHE120     -0.0042
    174  CE1       -3.6790  -20.7310   17.1750 C.ar  120  PHE120     -0.0003
    175  CE2       -3.8470  -18.3540   16.9220 C.ar  120  PHE120     -0.0003
    176  CZ        -3.7110  -19.4570   17.7330 C.ar  120  PHE120     -0.0000
    177  N         -6.4880  -18.0300   13.2560 N.am  121  TYR121     -0.1974
    178  CA        -7.3920  -17.0570   13.8790 C.3   121  TYR121      0.1639
    179  C         -8.8320  -17.2380   13.4440 C.2   121  TYR121      0.2290
    180  O         -9.7600  -16.9660   14.2060 O.2   121  TYR121     -0.2864
    181  CB        -6.9410  -15.6120   13.6390 C.3   121  TYR121      0.0560
    182  CG        -5.7560  -15.1970   14.4820 C.ar  121  TYR121     -0.0198
    183  CD1       -5.9220  -14.8100   15.8000 C.ar  121  TYR121     -0.0009
    184  CD2       -4.4720  -15.1910   13.9570 C.ar  121  TYR121     -0.0009
    185  CE1       -4.8320  -14.4310   16.5840 C.ar  121  TYR121      0.0417
    186  CE2       -3.3780  -14.8120   14.7220 C.ar  121  TYR121      0.0417
    187  CZ        -3.5600  -14.4330   16.0390 C.ar  121  TYR121      0.1957
    188  OH        -2.4690  -14.0640   16.8100 O.3   121  TYR121     -0.2866
    189  N        -10.3490  -20.0370   12.8510 N.3   123  LYS123     -0.1231
    190  CA       -10.9160  -21.1150   13.6510 C.3   123  LYS123      0.1693
    191  C        -11.4750  -20.5220   14.9420 C.2   123  LYS123      0.2592
    192  O        -12.3270  -21.1230   15.6060 O.2   123  LYS123     -0.2718
    193  CB        -9.8530  -22.1700   13.9770 C.3   123  LYS123      0.0285
    194  CG       -10.4450  -23.5380   14.3870 C.3   123  LYS123      0.0035
    195  CD        -9.4640  -24.3990   15.2110 C.3   123  LYS123      0.0206
    196  CE        -9.9250  -25.8500   15.3580 C.3   123  LYS123      0.1093
    197  NZ        -9.8510  -26.5730   14.0490 N.3   123  LYS123     -0.1314
    198  N        -10.9950  -19.3220   15.2750 N.am  124  PHE124     -0.1976
    199  CA       -11.3260  -18.6630   16.5380 C.3   124  PHE124      0.1639
    200  C        -12.3540  -17.5490   16.4340 C.2   124  PHE124      0.2290
    201  O        -12.6780  -16.9230   17.4310 O.2   124  PHE124     -0.2864
    202  CB       -10.0570  -18.1480   17.2320 C.3   124  PHE124      0.0560
    203  CG        -9.3550  -19.1930   18.0310 C.ar  124  PHE124     -0.0200
    204  CD1       -9.7090  -19.4330   19.3540 C.ar  124  PHE124     -0.0042
    205  CD2       -8.3520  -19.9550   17.4550 C.ar  124  PHE124     -0.0042
    206  CE1       -9.0660  -20.4310   20.0950 C.ar  124  PHE124     -0.0003
    207  CE2       -7.7030  -20.9470   18.1870 C.ar  124  PHE124     -0.0003
    208  CZ        -8.0620  -21.1870   19.5090 C.ar  124  PHE124     -0.0000
@<TRIPOS>BOND
     1   139   140    1
     2   140   141    1
     3   140   143    1
     4   141   142    2
     5   165   163   ar
     6   164   163   ar
     7   135   134    2
     8   163   162    1
     9   143   144    1
    10   147   148    1
    11   134   133    1
    12   137   136    1
    13   145   144    2
    14   144   146   am
    15   148   151    1
    16   148   149    1
    17   162   159    1
    18   158   159    1
    19   151   152    1
    20   159   160    1
    21   133   136    1
    22   133   132    1
    23   136   138    1
    24   132   124   am
    25   153   149   am
    26   153   154    1
    27   149   150    2
    28    81    80    1
    29   155   154    1
    30   155   156    2
    31   129   131   ar
    32   129   127   ar
    33   154   157    1
    34   160   161    2
    35   160   166   am
    36   124   123    1
    37   124   125    2
    38   126   127    1
    39   126   123    1
    40   131   130   ar
    41   127   128   ar
    42   123   122    1
    43   166   167    1
    44    80    79    2
    45    80    82    1
    46    79    78    1
    47    70    69    1
    48   117   116    2
    49   130   128   ar
    50    11    12    2
    51    11    10    1
    52   189   190    1
    53   122   116   am
    54   167   170    1
    55   167   168    1
    56     4     3    2
    57   116   115    1
    58   177   168   am
    59   177   178    1
    60   179   178    1
    61   179   180    2
    62   170   171    1
    63    10     9    1
    64    10    13    1
    65    69    71    1
    66    69    68    2
    67    78    77    1
    68   181   178    1
    69   181   182    1
    70   168   169    2
    71   190   193    1
    72   190   191    1
    73    77    76    1
    74   184   182   ar
    75   184   186   ar
    76   193   194    1
    77    67    68    1
    78    67    66    1
    79   197   196    1
    80     3     9   am
    81     3     2    1
    82   194   195    1
    83   120   119    1
    84    13    14    1
    85   119   121    1
    86   119   118    1
    87   182   183   ar
    88   186   187   ar
    89   115   114    1
    90   115   118    1
    91    15    14   ar
    92    15    17   ar
    93   191   198   am
    94   191   192    2
    95   171   173   ar
    96   171   172   ar
    97    76    73    1
    98    65    66    1
    99    65    62    1
   100     2     1    1
   101     2     5    1
   102   195   196    1
   103   198   199    1
   104    14    16   ar
   105   173   175   ar
   106    17    19   ar
   107   183   185   ar
   108   172   174   ar
   109     7     5    1
   110   187   185   ar
   111   187   188    1
   112    73    72    1
   113    73    74    1
   114     5     6    1
   115    64    63    2
   116    63    72   am
   117    63    62    1
   118   200   199    1
   119   200   201    2
   120    62    61    1
   121   199   202    1
   122    16    18   ar
   123    58    57    2
   124   175   176   ar
   125    31    30    2
   126    19    18   ar
   127   174   176   ar
   128    46    45    2
   129   202   203    1
   130     6     8    1
   131   205   203   ar
   132   205   207   ar
   133    75    74    2
   134    74    83   am
   135    23    22    2
   136    57    56    1
   137   203   204   ar
   138    30    29    1
   139    30    36   am
   140    52    51    1
   141    52    53    1
   142   207   208   ar
   143    42    40    1
   144    45    51   am
   145    45    44    1
   146    55    56    1
   147    55    53   am
   148    37    40    1
   149    37    36    1
   150    37    38    1
   151    43    44    1
   152    43    38   am
   153    29    28    1
   154    29    32    1
   155    83    84    1
   156    22    28   am
   157    22    21    1
   158    40    41    1
   159    56    59    1
   160    53    54    2
   161    60    59    1
   162    24    26    1
   163    24    21    1
   164    24    25    1
   165    44    47    1
   166    38    39    2
   167    47    48    1
   168   204   206   ar
   169    32    33    1
   170    50    48    1
   171   208   206   ar
   172    20    21    1
   173    25    27    1
   174   112   111    1
   175    90    88    1
   176    88    89    1
   177    88    87    1
   178    84    87    1
   179    84    85    1
   180    48    49    1
   181   104   103    1
   182   104   105    1
   183    91    85   am
   184    91    92    1
   185    33    34    1
   186    35    34    1
   187   103    97   am
   188    85    86    2
   189   107   105   am
   190   107   108    1
   191   105   106    2
   192    92    93    1
   193   111   108    1
   194   111   113    1
   195   108   109    1
   196    95    93   am
   197    95    96    1
   198    93    94    2
   199    97    96    1
   200    97    98    2
   201    99    96    1
   202    99   101    1
   203    99   100    1
   204   102   100    1
   205   109   110    2
