@<TRIPOS>MOLECULE
tmp/3tfyC00.pdb
 188 189 0 0 0
SMALL
GASTEIGER

@<TRIPOS>ATOM
      1  N          9.5260  -14.0890   14.3580 N.3    24  PHE24      -0.1228
      2  CA         9.0520  -12.9650   13.5420 C.3    24  PHE24       0.1721
      3  C         10.1570  -12.3310   12.6820 C.2    24  PHE24       0.2437
      4  O         11.2700  -12.1070   13.1680 O.2    24  PHE24      -0.2733
      5  CB         8.4290  -11.9070   14.4470 C.3    24  PHE24       0.0547
      6  CG         7.3470  -12.4350   15.3400 C.ar   24  PHE24      -0.0202
      7  CD1        6.0740  -12.6730   14.8450 C.ar   24  PHE24      -0.0042
      8  CD2        7.5960  -12.6760   16.6800 C.ar   24  PHE24      -0.0042
      9  CE1        5.0760  -13.1490   15.6650 C.ar   24  PHE24      -0.0003
     10  CE2        6.6030  -13.1450   17.5120 C.ar   24  PHE24      -0.0003
     11  CZ         5.3430  -13.3830   17.0040 C.ar   24  PHE24      -0.0000
     12  N          9.8530  -12.0440   11.3990 N.am   25  PRO25      -0.2718
     13  CA        10.7950  -11.4090   10.4590 C.3    25  PRO25       0.1535
     14  C         11.1010   -9.9140   10.7220 C.2    25  PRO25       0.2598
     15  O         12.1800   -9.4590   10.3420 O.2    25  PRO25      -0.2715
     16  CB        10.1080  -11.5920    9.0980 C.3    25  PRO25       0.0310
     17  CG         8.6620  -11.7070    9.4200 C.3    25  PRO25       0.0237
     18  CD         8.6160  -12.4720   10.7210 C.3    25  PRO25       0.0939
     19  N         10.1830   -9.1690   11.3390 N.am   26  VAL26      -0.1978
     20  CA        10.4790   -7.8020   11.7680 C.3    26  VAL26       0.1596
     21  C         11.2210   -7.8260   13.0990 C.2    26  VAL26       0.2287
     22  O         11.1360   -8.8020   13.8520 O.2    26  VAL26      -0.2864
     23  CB         9.2080   -6.9480   11.9520 C.3    26  VAL26       0.0276
     24  CG1        8.2890   -7.1020   10.7600 C.3    26  VAL26       0.0022
     25  CG2        8.4980   -7.3180   13.2510 C.3    26  VAL26       0.0022
     26  N         11.9870   -5.7050   16.7870 N.3    28  TYR28      -0.1241
     27  CA        11.4290   -4.6860   17.6650 C.3    28  TYR28       0.1605
     28  C         12.4970   -3.9490   18.4790 C.2    28  TYR28       0.2264
     29  O         13.4980   -4.5360   18.9050 O.2    28  TYR28      -0.2867
     30  CB        10.3210   -5.2720   18.5490 C.3    28  TYR28       0.0534
     31  CG         9.1530   -5.7680   17.7380 C.ar   28  TYR28      -0.0201
     32  CD1        8.1730   -4.8890   17.2920 C.ar   28  TYR28      -0.0009
     33  CD2        9.0410   -7.1130   17.3920 C.ar   28  TYR28      -0.0009
     34  CE1        7.1040   -5.3410   16.5310 C.ar   28  TYR28       0.0417
     35  CE2        7.9790   -7.5730   16.6310 C.ar   28  TYR28       0.0417
     36  CZ         7.0150   -6.6880   16.2040 C.ar   28  TYR28       0.1957
     37  OH         5.9590   -7.1400   15.4470 O.3    28  TYR28      -0.2866
     38  N          9.2350   -1.0880   22.4840 N.3    32  PHE32      -0.1241
     39  CA         8.2510   -2.1720   22.4430 C.3    32  PHE32       0.1605
     40  C          8.3530   -3.0650   23.6780 C.2    32  PHE32       0.2264
     41  O          7.3560   -3.3170   24.3550 O.2    32  PHE32      -0.2867
     42  CB         8.4330   -2.9950   21.1550 C.3    32  PHE32       0.0534
     43  CG         7.6150   -4.2700   21.1020 C.ar   32  PHE32      -0.0203
     44  CD1        6.3590   -4.2810   20.5170 C.ar   32  PHE32      -0.0042
     45  CD2        8.1180   -5.4610   21.6170 C.ar   32  PHE32      -0.0042
     46  CE1        5.6160   -5.4370   20.4620 C.ar   32  PHE32      -0.0003
     47  CE2        7.3760   -6.6230   21.5700 C.ar   32  PHE32      -0.0003
     48  CZ         6.1210   -6.6100   20.9900 C.ar   32  PHE32      -0.0000
     49  N         -1.6060   -5.0560   23.5040 N.3    59  ARG59      -0.1245
     50  CA        -1.6440   -3.6530   23.8890 C.3    59  ARG59       0.1563
     51  C         -3.0980   -3.2420   23.9900 C.2    59  ARG59       0.2260
     52  O         -3.9620   -3.8030   23.3030 O.2    59  ARG59      -0.2867
     53  CB        -0.9350   -2.7970   22.8390 C.3    59  ARG59       0.0307
     54  CG        -1.0250   -1.3120   23.0740 C.3    59  ARG59       0.0489
     55  CD        -0.1720   -0.5590   22.0660 C.3    59  ARG59       0.2205
     56  NE        -0.7260   -0.6170   20.7090 N.pl3  59  ARG59      -0.0865
     57  CZ        -0.0320   -0.4000   19.5870 C.cat  59  ARG59       0.5346
     58  NH1        1.2690   -0.1250   19.6420 N.pl3  59  ARG59       0.1354
     59  NH2       -0.6400   -0.4740   18.4000 N.pl3  59  ARG59       0.1354
     60  N         -5.1720   -5.0830   21.2190 N.3    70  TYR70      -0.1227
     61  CA        -4.2710   -5.2400   20.0880 C.3    70  TYR70       0.1736
     62  C         -3.2040   -6.3210   20.3240 C.2    70  TYR70       0.2595
     63  O         -2.3370   -6.1900   21.1910 O.2    70  TYR70      -0.2718
     64  CB        -3.6170   -3.9110   19.7190 C.3    70  TYR70       0.0548
     65  CG        -2.8690   -3.9720   18.4090 C.ar   70  TYR70      -0.0200
     66  CD1       -3.5210   -4.3070   17.2250 C.ar   70  TYR70      -0.0009
     67  CD2       -1.5110   -3.7000   18.3530 C.ar   70  TYR70      -0.0009
     68  CE1       -2.8300   -4.3670   16.0160 C.ar   70  TYR70       0.0417
     69  CE2       -0.8120   -3.7600   17.1570 C.ar   70  TYR70       0.0417
     70  CZ        -1.4700   -4.0920   15.9900 C.ar   70  TYR70       0.1957
     71  OH        -0.7600   -4.1430   14.8060 O.3    70  TYR70      -0.2866
     72  N         -3.2700   -7.3980   19.5500 N.am   71  ILE71      -0.1966
     73  CA        -2.2340   -8.4130   19.6200 C.3    71  ILE71       0.1727
     74  C         -1.0810   -7.9430   18.7660 C.2    71  ILE71       0.2616
     75  O         -1.1830   -7.8900   17.5590 O.2    71  ILE71      -0.2715
     76  CB        -2.7270   -9.7980   19.1310 C.3    71  ILE71       0.0290
     77  CG1       -4.1040  -10.1180   19.7330 C.3    71  ILE71       0.0022
     78  CG2       -1.6840  -10.8540   19.4620 C.3    71  ILE71       0.0023
     79  CD1       -4.4670  -11.5700   19.7630 C.3    71  ILE71       0.0001
     80  N          0.0170   -7.5640   19.3880 N.am   72  MET72      -0.1963
     81  CA         1.1140   -7.0470   18.5990 C.3    72  MET72       0.1736
     82  C          1.9440   -8.2080   18.1040 C.2    72  MET72       0.2617
     83  O          2.3650   -8.2190   16.9570 O.2    72  MET72      -0.2715
     84  CB         1.9650   -6.0620   19.4050 C.3    72  MET72       0.0427
     85  CG         1.1600   -5.1620   20.3310 C.3    72  MET72       0.0599
     86  SD         2.2380   -4.4750   21.5800 S.3    72  MET72      -0.1393
     87  CE         3.2920   -3.4720   20.5470 C.3    72  MET72       0.0692
     88  N          2.1850   -9.1820   18.9720 N.am   73  THR73      -0.1937
     89  CA         2.8400  -10.4230   18.5610 C.3    73  THR73       0.2028
     90  C          2.1660  -11.6140   19.2310 C.2    73  THR73       0.2642
     91  O          1.6040  -11.4820   20.3150 O.2    73  THR73      -0.2714
     92  CB         4.3420  -10.4310   18.9240 C.3    73  THR73       0.1808
     93  OG1        4.4950  -10.2310   20.3320 O.3    73  THR73      -0.2208
     94  CG2        5.0660   -9.3400   18.1920 C.3    73  THR73       0.0379
     95  N          2.2170  -12.7690   18.5750 N.am   74  LEU74      -0.1977
     96  CA         1.7910  -14.0290   19.1900 C.3    74  LEU74       0.1596
     97  C          2.2670  -15.1930   18.3370 C.2    74  LEU74       0.2287
     98  O          1.8380  -15.3330   17.1890 O.2    74  LEU74      -0.2864
     99  CB         0.2720  -14.0820   19.3420 C.3    74  LEU74       0.0297
    100  CG        -0.3450  -15.2610   20.1030 C.3    74  LEU74       0.0022
    101  CD1       -1.8300  -15.0000   20.2950 C.3    74  LEU74       0.0001
    102  CD2       -0.1290  -16.6220   19.4280 C.3    74  LEU74       0.0001
    103  N         -5.5970   -7.6690   15.0160 N.3   108  LEU108     -0.1231
    104  CA        -4.1580   -7.6490   14.7240 C.3   108  LEU108      0.1693
    105  C         -3.9050   -7.5460   13.2300 C.2   108  LEU108      0.2592
    106  O         -4.8350   -7.6290   12.4340 O.2   108  LEU108     -0.2718
    107  CB        -3.4780   -8.9240   15.2130 C.3   108  LEU108      0.0284
    108  CG        -3.8860  -10.1930   14.4530 C.3   108  LEU108      0.0019
    109  CD1       -2.7710  -11.2360   14.4450 C.3   108  LEU108      0.0001
    110  CD2       -5.1730  -10.7640   15.0300 C.3   108  LEU108      0.0001
    111  N         -2.6320   -7.4070   12.8590 N.am  109  HIS109     -0.1962
    112  CA        -2.2080   -7.3930   11.4560 C.3   109  HIS109      0.1787
    113  C         -1.4150   -8.6400   11.1270 C.2   109  HIS109      0.2620
    114  O         -0.7600   -9.2060   11.9960 O.2   109  HIS109     -0.2715
    115  CB        -1.3130   -6.1900   11.1540 C.3   109  HIS109      0.0785
    116  CG        -1.9550   -4.8630   11.4230 C.ar  109  HIS109      0.0821
    117  ND1       -1.9650   -4.2790   12.6750 N.ar  109  HIS109     -0.2267
    118  CD2       -2.6000   -3.9990   10.6000 C.ar  109  HIS109      0.1154
    119  CE1       -2.5930   -3.1190   12.6130 C.ar  109  HIS109      0.1986
    120  NE2       -2.9860   -2.9260   11.3650 N.ar  109  HIS109     -0.2212
    121  N         -1.4490   -9.0430    9.8600 N.am  110  VAL110     -0.1963
    122  CA        -0.7980  -10.2650    9.4010 C.3   110  VAL110      0.1727
    123  C         -0.3500  -10.0450    7.9580 C.2   110  VAL110      0.2616
    124  O         -1.1020   -9.4790    7.1630 O.2   110  VAL110     -0.2715
    125  CB        -1.7960  -11.4480    9.4400 C.3   110  VAL110      0.0290
    126  CG1       -1.2620  -12.6400    8.6810 C.3   110  VAL110      0.0023
    127  CG2       -2.1130  -11.8300   10.8640 C.3   110  VAL110      0.0023
    128  N          0.8660  -10.4590    7.6130 N.am  111  GLN111     -0.1977
    129  CA         1.2810  -10.4120    6.2180 C.3   111  GLN111      0.1601
    130  C          0.2500  -11.2090    5.4180 C.2   111  GLN111      0.2287
    131  O         -0.3110  -12.1870    5.9180 O.2   111  GLN111     -0.2864
    132  CB         2.6680  -11.0230    6.0500 C.3   111  GLN111      0.0394
    133  CG         3.8190  -10.0310    5.9630 C.3   111  GLN111      0.0908
    134  CD         5.1680  -10.7350    5.8950 C.2   111  GLN111      0.2608
    135  OE1        5.3980  -11.7140    6.6080 O.2   111  GLN111     -0.2717
    136  NE2        6.0570  -10.2540    5.0250 N.am  111  GLN111     -0.0878
    137  N          1.9210   -1.9930    4.4090 N.3   135  TYR135     -0.1227
    138  CA         1.9050   -1.7820    5.8550 C.3   135  TYR135      0.1736
    139  C          3.2780   -2.0710    6.4910 C.2   135  TYR135      0.2595
    140  O          3.7620   -1.3020    7.3270 O.2   135  TYR135     -0.2718
    141  CB         0.8070   -2.6510    6.4770 C.3   135  TYR135      0.0548
    142  CG         0.7880   -2.6980    7.9910 C.ar  135  TYR135     -0.0200
    143  CD1        0.1360   -1.7120    8.7280 C.ar  135  TYR135     -0.0009
    144  CD2        1.4010   -3.7440    8.6830 C.ar  135  TYR135     -0.0009
    145  CE1        0.1100   -1.7550   10.1120 C.ar  135  TYR135      0.0417
    146  CE2        1.3820   -3.7940   10.0670 C.ar  135  TYR135      0.0417
    147  CZ         0.7340   -2.7960   10.7790 C.ar  135  TYR135      0.1957
    148  OH         0.7050   -2.8280   12.1620 O.3   135  TYR135     -0.2866
    149  N          3.9050   -3.1710    6.0930 N.am  136  TYR136     -0.1962
    150  CA         5.2770   -3.4480    6.5060 C.3   136  TYR136      0.1771
    151  C          6.2630   -2.7580    5.5570 C.2   136  TYR136      0.2619
    152  O          6.0270   -2.7030    4.3470 O.2   136  TYR136     -0.2715
    153  CB         5.5220   -4.9570    6.5470 C.3   136  TYR136      0.0574
    154  CG         4.5610   -5.7040    7.4400 C.ar  136  TYR136     -0.0198
    155  CD1        4.6870   -5.6550    8.8240 C.ar  136  TYR136     -0.0009
    156  CD2        3.5280   -6.4580    6.9010 C.ar  136  TYR136     -0.0009
    157  CE1        3.8080   -6.3340    9.6500 C.ar  136  TYR136      0.0417
    158  CE2        2.6440   -7.1440    7.7120 C.ar  136  TYR136      0.0417
    159  CZ         2.7860   -7.0810    9.0880 C.ar  136  TYR136      0.1957
    160  OH         1.9050   -7.7720    9.8960 O.3   136  TYR136     -0.2866
    161  N          7.3640   -2.2400    6.1000 N.am  137  LYS137     -0.1963
    162  CA         8.2780   -1.4070    5.3140 C.3   137  LYS137      0.1728
    163  C          9.2320   -2.1700    4.3970 C.2   137  LYS137      0.2616
    164  O          9.3180   -1.8780    3.2020 O.2   137  LYS137     -0.2715
    165  CB         9.0830   -0.4670    6.2190 C.3   137  LYS137      0.0311
    166  CG         8.2330    0.4370    7.1060 C.3   137  LYS137      0.0038
    167  CD         7.0230    0.9670    6.3520 C.3   137  LYS137      0.0206
    168  CE         7.4460    1.8870    5.2170 C.3   137  LYS137      0.1093
    169  NZ         6.3310    2.0940    4.2430 N.3   137  LYS137     -0.1314
    170  N          9.9560   -3.1370    4.9530 N.am  138  ARG138     -0.1963
    171  CA        11.0530   -3.7610    4.2100 C.3   138  ARG138      0.1729
    172  C         10.9180   -5.2470    3.8620 C.2   138  ARG138      0.2616
    173  O         11.7400   -5.7710    3.1100 O.2   138  ARG138     -0.2715
    174  CB        12.3840   -3.5170    4.9250 C.3   138  ARG138      0.0348
    175  CG        12.2780   -3.5300    6.4430 C.3   138  ARG138      0.0492
    176  CD        13.5050   -4.1980    7.0670 C.3   138  ARG138      0.2205
    177  NE        14.0270   -3.4780    8.2310 N.pl3 138  ARG138     -0.0865
    178  CZ        13.7520   -3.7800    9.5010 C.cat 138  ARG138      0.5346
    179  NH1       14.2900   -3.0600   10.4780 N.pl3 138  ARG138      0.1354
    180  NH2       12.9460   -4.7970    9.8030 N.pl3 138  ARG138      0.1354
    181  N          9.9030   -5.9280    4.3930 N.am  139  ILE139     -0.1977
    182  CA         9.7020   -7.3430    4.0570 C.3   139  ILE139      0.1596
    183  C          8.8970   -7.6010    2.7750 C.2   139  ILE139      0.2287
    184  O          8.3260   -6.6880    2.1740 O.2   139  ILE139     -0.2864
    185  CB         9.0760   -8.1590    5.2210 C.3   139  ILE139      0.0276
    186  CG1        8.2340   -7.2650    6.1280 C.3   139  ILE139      0.0022
    187  CG2       10.1600   -8.8800    6.0270 C.3   139  ILE139      0.0022
    188  CD1        7.5840   -8.0110    7.2740 C.3   139  ILE139      0.0001
@<TRIPOS>BOND
     1   184   183    2
     2   183   182    1
     3   173   172    2
     4   164   163    2
     5   172   171    1
     6   172   181   am
     7   182   181    1
     8   182   185    1
     9   171   174    1
    10   171   170    1
    11   169   168    1
    12   152   151    2
    13   163   170   am
    14   163   162    1
    15   137   138    1
    16   174   175    1
    17   136   134   am
    18   168   167    1
    19   185   187    1
    20   185   186    1
    21   162   161    1
    22   162   165    1
    23   130   131    2
    24   130   129    1
    25   151   161   am
    26   151   150    1
    27   138   141    1
    28   138   139    1
    29   134   133    1
    30   134   135    2
    31   133   132    1
    32   132   129    1
    33   149   139   am
    34   149   150    1
    35   186   188    1
    36   129   128    1
    37   165   166    1
    38   167   166    1
    39   175   176    1
    40   141   142    1
    41   139   140    2
    42   150   153    1
    43   153   154    1
    44   156   154   ar
    45   156   158   ar
    46   176   177    1
    47   124   123    2
    48   154   155   ar
    49   128   123   am
    50   158   159   ar
    51   123   122    1
    52   142   144   ar
    53   142   143   ar
    54   177   178    2
    55   126   125    1
    56   144   146   ar
    57   143   145   ar
    58   155   157   ar
    59   159   157   ar
    60   159   160    1
    61    16    17    1
    62    16    13    1
    63   122   125    1
    64   122   121    1
    65    17    18    1
    66   125   127    1
    67   178   180    1
    68   178   179    1
    69   121   113   am
    70   146   147   ar
    71   145   147   ar
    72    15    14    2
    73    13    14    1
    74    13    12    1
    75   118   120   ar
    76   118   116   ar
    77    18    12    1
    78    14    19   am
    79    24    23    1
    80   147   148    1
    81   113   112    1
    82   113   114    2
    83   115   116    1
    84   115   112    1
    85    19    20    1
    86   120   119   ar
    87    12     3   am
    88   116   117   ar
    89   112   111    1
    90    20    23    1
    91    20    21    1
    92    23    25    1
    93   106   105    2
    94   119   117   ar
    95     3     4    2
    96     3     2    1
    97   111   105   am
    98    21    22    2
    99   105   104    1
   100     2     1    1
   101     2     5    1
   102   109   108    1
   103     5     6    1
   104   108   110    1
   105   108   107    1
   106   104   103    1
   107   104   107    1
   108    71    70    1
   109     7     6   ar
   110     7     9   ar
   111     6     8   ar
   112    37    36    1
   113     9    11   ar
   114    70    68   ar
   115    70    69   ar
   116    68    66   ar
   117    36    34   ar
   118    36    35   ar
   119    34    32   ar
   120    35    33   ar
   121     8    10   ar
   122    26    27    1
   123    83    82    2
   124    11    10   ar
   125    69    67   ar
   126    98    97    2
   127    66    65   ar
   128    32    31   ar
   129    33    31   ar
   130    75    74    2
   131    27    28    1
   132    27    30    1
   133    31    30    1
   134    82    81    1
   135    82    88   am
   136    94    92    1
   137    97    96    1
   138    67    65   ar
   139    59    57    1
   140    65    64    1
   141    28    29    2
   142    89    92    1
   143    89    88    1
   144    89    90    1
   145    95    96    1
   146    95    90   am
   147    81    80    1
   148    81    84    1
   149    74    80   am
   150    74    73    1
   151    92    93    1
   152    76    78    1
   153    76    73    1
   154    76    77    1
   155    96    99    1
   156    90    91    2
   157    99   100    1
   158    84    85    1
   159   102   100    1
   160    72    73    1
   161    72    62   am
   162    57    58    1
   163    57    56    2
   164    64    61    1
   165    77    79    1
   166    61    62    1
   167    61    60    1
   168   100   101    1
   169    62    63    2
   170    85    86    1
   171    46    44   ar
   172    46    48   ar
   173    44    43   ar
   174    87    86    1
   175    56    55    1
   176    48    47   ar
   177    43    42    1
   178    43    45   ar
   179    42    39    1
   180    47    45   ar
   181    55    54    1
   182    39    38    1
   183    39    40    1
   184    53    54    1
   185    53    50    1
   186    52    51    2
   187    49    50    1
   188    40    41    2
   189    50    51    1
