@<TRIPOS>MOLECULE
tmp/3tfzA00.pdb
 170 160 0 0 0
SMALL
GASTEIGER

@<TRIPOS>ATOM
      1  N         -9.3360    0.6490   -4.4980 N.3    28  TYR28      -0.1241
      2  CA       -10.0080   -0.6860   -4.3730 C.3    28  TYR28       0.1605
      3  C        -10.0770   -1.5240   -5.6840 C.2    28  TYR28       0.2264
      4  O        -10.0420   -2.7300   -5.5910 O.2    28  TYR28      -0.2867
      5  CB       -11.4240   -0.5740   -3.7890 C.3    28  TYR28       0.0534
      6  CG       -11.5020   -0.4650   -2.2210 C.ar   28  TYR28      -0.0201
      7  CD1      -12.7040   -0.7880   -1.5160 C.ar   28  TYR28      -0.0009
      8  CD2      -10.3980    0.0160   -1.4540 C.ar   28  TYR28      -0.0009
      9  CE1      -12.7590   -0.6200   -0.0880 C.ar   28  TYR28       0.0417
     10  CE2      -10.4940    0.1890   -0.0410 C.ar   28  TYR28       0.0417
     11  CZ       -11.6680   -0.1290    0.6210 C.ar   28  TYR28       0.1957
     12  OH       -11.7600   -0.0160    2.0140 O.3    28  TYR28      -0.2866
     13  N        -19.8000    0.8280   -6.7270 N.3    52  LEU52      -0.1245
     14  CA       -18.8460   -0.2850   -6.9290 C.3    52  LEU52       0.1561
     15  C        -19.3550   -1.2600   -7.9670 C.2    52  LEU52       0.2260
     16  O        -20.4590   -1.6990   -7.9010 O.2    52  LEU52      -0.2867
     17  CB       -18.5770   -1.0060   -5.5980 C.3    52  LEU52       0.0270
     18  CG       -17.7930   -0.2170   -4.5160 C.3    52  LEU52       0.0019
     19  CD1      -18.1890   -0.4970   -3.0840 C.3    52  LEU52       0.0001
     20  CD2      -16.3080   -0.4690   -4.6790 C.3    52  LEU52       0.0001
     21  N        -19.4200  -11.0510   -8.8530 N.3    56  VAL56      -0.1245
     22  CA       -19.7770  -12.1470   -7.9050 C.3    56  VAL56       0.1561
     23  C        -20.2650  -13.3860   -8.6490 C.2    56  VAL56       0.2260
     24  O        -21.1730  -13.3190   -9.4600 O.2    56  VAL56      -0.2867
     25  CB       -20.7130  -11.7190   -6.7010 C.3    56  VAL56       0.0252
     26  CG1      -20.6600  -10.2370   -6.4930 C.3    56  VAL56       0.0019
     27  CG2      -22.1160  -12.2270   -6.8910 C.3    56  VAL56       0.0019
     28  N        -23.3300   -2.1080   -6.7210 N.3    63  TRP63      -0.1241
     29  CA       -23.9500   -1.5780   -5.5330 C.3    63  TRP63       0.1605
     30  C        -23.3110   -0.2670   -5.1230 C.2    63  TRP63       0.2264
     31  O        -22.2540    0.1540   -5.6320 O.2    63  TRP63      -0.2867
     32  CB       -23.9650   -2.6060   -4.3460 C.3    63  TRP63       0.0550
     33  CG       -22.6430   -3.0410   -3.8890 C.ar   63  TRP63       0.0003
     34  CD1      -21.7260   -2.2980   -3.1670 C.ar   63  TRP63       0.0946
     35  CD2      -22.0010   -4.3140   -4.1720 C.ar   63  TRP63       0.0152
     36  NE1      -20.5570   -3.0350   -2.9760 N.ar   63  TRP63      -0.2442
     37  CE2      -20.6860   -4.2610   -3.5770 C.ar   63  TRP63       0.0810
     38  CE3      -22.4030   -5.4850   -4.8610 C.ar   63  TRP63       0.0012
     39  CZ2      -19.8170   -5.3580   -3.5710 C.ar   63  TRP63       0.0191
     40  CZ3      -21.5030   -6.5680   -4.9070 C.ar   63  TRP63       0.0001
     41  CH2      -20.2310   -6.5030   -4.2570 C.ar   63  TRP63       0.0015
     42  N        -22.3870    1.8840   -1.4790 N.3    65  SER65      -0.1217
     43  CA       -22.3470    1.9680   -0.0230 C.3    65  SER65       0.1889
     44  C        -21.9490    3.2620    0.5290 C.2    65  SER65       0.2288
     45  O        -21.1150    4.0100   -0.0630 O.2    65  SER65      -0.2866
     46  CB       -21.3940    0.9450    0.6150 C.3    65  SER65       0.2089
     47  OG       -20.2490    1.0360   -0.1260 O.3    65  SER65      -0.2183
     48  N        -19.8730    4.5630    3.4220 N.3    67  ARG67      -0.1245
     49  CA       -18.7520    4.2340    4.3850 C.3    67  ARG67       0.1563
     50  C        -18.5370    5.3520    5.3680 C.2    67  ARG67       0.2260
     51  O        -18.2950    6.4990    4.9420 O.2    67  ARG67      -0.2867
     52  CB       -17.4270    3.9520    3.6650 C.3    67  ARG67       0.0307
     53  CG       -17.5690    2.7320    2.6490 C.3    67  ARG67       0.0489
     54  CD       -16.5950    2.8460    1.4600 C.3    67  ARG67       0.2205
     55  NE       -15.1950    3.3740    1.7310 N.pl3  67  ARG67      -0.0865
     56  CZ       -14.1560    2.6300    2.1280 C.cat  67  ARG67       0.5346
     57  NH1      -14.3070    1.3120    2.3220 N.pl3  67  ARG67       0.1354
     58  NH2      -12.9620    3.2050    2.3200 N.pl3  67  ARG67       0.1354
     59  N        -19.9500    0.2960    7.0910 N.3    78  TYR78      -0.1241
     60  CA       -20.5200    0.3900    5.7430 C.3    78  TYR78       0.1605
     61  C        -22.0050    0.0190    5.8010 C.2    78  TYR78       0.2264
     62  O        -22.3880   -0.7790    6.6170 O.2    78  TYR78      -0.2867
     63  CB       -19.6700   -0.3940    4.6630 C.3    78  TYR78       0.0534
     64  CG       -19.7890   -1.8890    4.7900 C.ar   78  TYR78      -0.0201
     65  CD1      -20.8110   -2.5640    4.1420 C.ar   78  TYR78      -0.0009
     66  CD2      -18.8460   -2.6570    5.5760 C.ar   78  TYR78      -0.0009
     67  CE1      -20.9670   -3.9440    4.2970 C.ar   78  TYR78       0.0417
     68  CE2      -19.0160   -3.9440    5.7490 C.ar   78  TYR78       0.0417
     69  CZ       -20.0690   -4.6040    5.1030 C.ar   78  TYR78       0.1957
     70  OH       -20.1810   -5.9340    5.2460 O.3    78  TYR78      -0.2866
     71  N        -24.9810   -0.6200    2.5350 N.3    80  GLN80      -0.1245
     72  CA       -25.2620   -0.5430    1.1060 C.3    80  GLN80       0.1566
     73  C        -26.6270    0.1670    0.8890 C.2    80  GLN80       0.2260
     74  O        -27.5670   -0.2430    1.5110 O.2    80  GLN80      -0.2867
     75  CB       -25.2430   -1.9640    0.5120 C.3    80  GLN80       0.0367
     76  CG       -23.8530   -2.4590    0.5030 C.3    80  GLN80       0.0905
     77  CD       -23.7050   -3.6730   -0.3870 C.2    80  GLN80       0.2608
     78  OE1      -24.7040   -4.2310   -0.9240 O.2    80  GLN80      -0.2717
     79  NE2      -22.4640   -4.0920   -0.5650 N.am   80  GLN80      -0.0878
     80  N        -30.3680   -9.2260   -2.7390 N.3    87  VAL87      -0.1245
     81  CA       -29.9290   -8.7310   -1.4000 C.3    87  VAL87       0.1561
     82  C        -30.9230   -7.7680   -0.9150 C.2    87  VAL87       0.2260
     83  O        -31.3480   -6.8780   -1.6840 O.2    87  VAL87      -0.2867
     84  CB       -28.4890   -8.0570   -1.4300 C.3    87  VAL87       0.0252
     85  CG1      -28.1880   -7.2630   -0.1330 C.3    87  VAL87       0.0019
     86  CG2      -27.4730   -9.0490   -1.7280 C.3    87  VAL87       0.0019
     87  N        -27.5580   -5.1280    3.6510 N.3    90  MET90      -0.1245
     88  CA       -26.1350   -5.4510    3.7100 C.3    90  MET90       0.1570
     89  C        -25.3160   -4.3400    4.3880 C.2    90  MET90       0.2261
     90  O        -25.1330   -3.2470    3.7980 O.2    90  MET90      -0.2867
     91  CB       -25.5320   -5.7230    2.3090 C.3    90  MET90       0.0387
     92  CG       -24.0220   -6.1390    2.3580 C.3    90  MET90       0.0595
     93  SD       -23.7920   -7.7950    2.9440 S.3    90  MET90      -0.1393
     94  CE       -24.7010   -8.7450    1.6840 C.3    90  MET90       0.0692
     95  N        -15.3660   -2.8480    8.9670 N.3    94  TRP94      -0.1241
     96  CA       -13.9440   -3.2410    9.0300 C.3    94  TRP94       0.1605
     97  C        -13.4280   -2.7470   10.3580 C.2    94  TRP94       0.2264
     98  O        -13.7320   -1.6290   10.6890 O.2    94  TRP94      -0.2867
     99  CB       -13.1080   -2.4910    7.9990 C.3    94  TRP94       0.0550
    100  CG       -13.3540   -2.8640    6.6020 C.ar   94  TRP94       0.0003
    101  CD1      -14.1500   -2.2040    5.7440 C.ar   94  TRP94       0.0946
    102  CD2      -12.7500   -3.9750    5.8240 C.ar   94  TRP94       0.0152
    103  NE1      -14.1280   -2.8180    4.5150 N.ar   94  TRP94      -0.2442
    104  CE2      -13.2300   -3.8540    4.5080 C.ar   94  TRP94       0.0810
    105  CE3      -11.8100   -4.9910    6.1150 C.ar   94  TRP94       0.0012
    106  CZ2      -12.8410   -4.7380    3.4390 C.ar   94  TRP94       0.0191
    107  CZ3      -11.3860   -5.8960    5.0260 C.ar   94  TRP94       0.0001
    108  CH2      -11.9200   -5.7430    3.7260 C.ar   94  TRP94       0.0015
    109  N        -13.5450   -8.1410    9.3680 N.3   108  LEU108     -0.1245
    110  CA       -14.6050   -7.7590    8.4420 C.3   108  LEU108      0.1561
    111  C        -15.8990   -8.5380    8.9130 C.2   108  LEU108      0.2260
    112  O        -15.8540   -9.7460    9.0130 O.2   108  LEU108     -0.2867
    113  CB       -14.2280   -8.0970    7.0030 C.3   108  LEU108      0.0270
    114  CG       -15.3080   -7.7970    5.9680 C.3   108  LEU108      0.0019
    115  CD1      -15.7420   -6.3500    6.0280 C.3   108  LEU108      0.0001
    116  CD2      -14.7940   -8.1090    4.5720 C.3   108  LEU108      0.0001
    117  N        -20.3470   -8.8260    8.4710 N.3   110  HIS110     -0.1241
    118  CA       -21.4640   -8.6710    7.5220 C.3   110  HIS110      0.1621
    119  C        -22.7400   -8.8920    8.2250 C.2   110  HIS110      0.2264
    120  O        -22.8740   -9.9290    8.8380 O.2   110  HIS110     -0.2867
    121  CB       -21.4060   -9.6800    6.3790 C.3   110  HIS110      0.0745
    122  CG       -20.3030   -9.4130    5.4190 C.ar  110  HIS110      0.0817
    123  ND1      -19.0240   -9.8990    5.5980 N.ar  110  HIS110     -0.2268
    124  CD2      -20.2890   -8.7750    4.2270 C.ar  110  HIS110      0.1154
    125  CE1      -18.2530   -9.5240    4.5940 C.ar  110  HIS110      0.1986
    126  NE2      -19.0050   -8.8740    3.7240 N.ar  110  HIS110     -0.2212
    127  N        -26.6320  -16.2510   -1.3450 N.3   136  LEU136     -0.1245
    128  CA       -26.0540  -15.1670   -0.5310 C.3   136  LEU136      0.1561
    129  C        -25.0980  -15.6390    0.5210 C.2   136  LEU136      0.2260
    130  O        -24.1140  -15.0150    0.6820 O.2   136  LEU136     -0.2867
    131  CB       -27.1370  -14.3370    0.1670 C.3   136  LEU136      0.0270
    132  CG       -27.1200  -12.7830    0.1430 C.3   136  LEU136      0.0019
    133  CD1      -27.7250  -12.2130    1.3280 C.3   136  LEU136      0.0001
    134  CD2      -25.8730  -12.0780   -0.1840 C.3   136  LEU136      0.0001
    135  N        -21.7120  -16.2680   -1.2690 N.3   139  VAL139     -0.1231
    136  CA       -21.1570  -15.1200   -1.9620 C.3   139  VAL139      0.1692
    137  C        -20.5440  -14.2080   -0.8350 C.2   139  VAL139      0.2591
    138  O        -19.4600  -13.6460   -0.9660 O.2   139  VAL139     -0.2718
    139  CB       -22.3550  -14.4050   -2.7450 C.3   139  VAL139      0.0266
    140  CG1      -22.2700  -12.8280   -2.5800 C.3   139  VAL139      0.0020
    141  CG2      -22.5180  -14.9890   -4.2250 C.3   139  VAL139      0.0020
    142  N        -21.2360  -14.1070    0.2780 N.am  140  VAL140     -0.1980
    143  CA       -20.6720  -13.3890    1.3910 C.3   140  VAL140      0.1595
    144  C        -19.3910  -14.0680    1.9230 C.2   140  VAL140      0.2287
    145  O        -18.3690  -13.3970    2.1040 O.2   140  VAL140     -0.2864
    146  CB       -21.7020  -13.2710    2.5280 C.3   140  VAL140      0.0276
    147  CG1      -20.9520  -12.8370    3.8350 C.3   140  VAL140      0.0022
    148  CG2      -22.7960  -12.3510    2.1230 C.3   140  VAL140      0.0022
    149  N        -16.3570  -13.7310   -0.7230 N.3   143  ASN143     -0.1225
    150  CA       -15.8350  -12.4400   -1.0140 C.3   143  ASN143      0.1785
    151  C        -15.2490  -11.7970    0.2100 C.2   143  ASN143      0.2597
    152  O        -14.4000  -10.9790    0.1360 O.2   143  ASN143     -0.2718
    153  CB       -17.0240  -11.6630   -1.4940 C.3   143  ASN143      0.1169
    154  CG       -17.1100  -11.7070   -2.9330 C.2   143  ASN143      0.2627
    155  OD1      -16.5210  -10.8550   -3.6310 O.2   143  ASN143     -0.2716
    156  ND2      -17.7580  -12.7500   -3.4460 N.am  143  ASN143     -0.0877
    157  N        -15.7840  -12.1570    1.3320 N.am  144  SER144     -0.1952
    158  CA       -15.2900  -11.7780    2.5980 C.3   144  SER144      0.1924
    159  C        -13.8020  -12.2300    2.7610 C.2   144  SER144      0.2314
    160  O        -12.9070  -11.4250    3.0640 O.2   144  SER144     -0.2863
    161  CB       -16.2290  -12.4130    3.6540 C.3   144  SER144      0.2116
    162  OG       -15.6770  -12.2790    4.9230 O.3   144  SER144     -0.2180
    163  N        -11.5860  -10.3860    0.1610 N.3   147  ASP147     -0.1239
    164  CA       -11.3910   -8.9910    0.5570 C.3   147  ASP147      0.1674
    165  C        -10.3340   -8.8380    1.6470 C.2   147  ASP147      0.2266
    166  O         -9.4640   -7.9650    1.6050 O.2   147  ASP147     -0.2867
    167  CB       -12.7690   -8.3830    1.0370 C.3   147  ASP147      0.1410
    168  CG       -13.7320   -7.9550   -0.1340 C.2   147  ASP147      0.3668
    169  OD1      -13.3660   -8.0620   -1.3570 O.co2 147  ASP147     -0.2456
    170  OD2      -14.8840   -7.5040    0.1930 O.co2 147  ASP147     -0.2456
@<TRIPOS>BOND
     1    24    23    2
     2    21    22    1
     3    23    22    1
     4    15    16    2
     5    15    14    1
     6    22    25    1
     7    14    13    1
     8    14    17    1
     9    27    25    1
    10    28    29    1
    11    25    26    1
    12     3     4    2
    13     3     2    1
    14    31    30    2
    15    17    18    1
    16    29    30    1
    17    29    32    1
    18    40    38   ar
    19    40    41   ar
    20    38    35   ar
    21    20    18    1
    22    18    19    1
    23     1     2    1
    24     2     5    1
    25    32    33    1
    26    41    39   ar
    27   141   139    1
    28    35    33   ar
    29    35    37   ar
    30    33    34   ar
    31     5     6    1
    32   155   154    2
    33    37    39   ar
    34    37    36   ar
    35   156   154   am
    36    34    36   ar
    37   154   153    1
    38   139   140    1
    39   139   136    1
    40    80    81    1
    41     6     7   ar
    42     6     8   ar
    43   136   135    1
    44   136   137    1
    45    86    84    1
    46    83    82    2
    47     7     9   ar
    48   153   150    1
    49    42    43    1
    50     8    10   ar
    51    84    81    1
    52    84    85    1
    53    81    82    1
    54   169   168   ar
    55   127   128    1
    56   150   149    1
    57   150   151    1
    58   138   137    2
    59    78    77    2
    60   137   142   am
    61    79    77   am
    62   128   131    1
    63   128   129    1
    64    77    76    1
    65   134   132    1
    66   168   170   ar
    67   168   167    1
    68    47    46    1
    69     9    11   ar
    70    45    44    2
    71    10    11   ar
    72    43    44    1
    73    43    46    1
    74   152   151    2
    75   132   131    1
    76   132   133    1
    77   163   164    1
    78   151   157   am
    79   142   143    1
    80    76    75    1
    81    75    72    1
    82   129   130    2
    83   164   167    1
    84   164   165    1
    85    11    12    1
    86    73    72    1
    87    73    74    2
    88    72    71    1
    89   157   158    1
    90   143   144    1
    91   143   146    1
    92    54    55    1
    93    54    53    1
    94   166   165    2
    95    94    93    1
    96    55    56    2
    97   144   145    2
    98   148   146    1
    99    56    58    1
   100    56    57    1
   101    91    92    1
   102    91    88    1
   103    92    93    1
   104   146   147    1
   105   158   159    1
   106   158   161    1
   107    53    52    1
   108   159   160    2
   109    48    49    1
   110   106   108   ar
   111   106   104   ar
   112    87    88    1
   113   161   162    1
   114    52    49    1
   115    88    89    1
   116   126   124   ar
   117   126   125   ar
   118   108   107   ar
   119    90    89    2
   120    65    67   ar
   121    65    64   ar
   122   124   122   ar
   123    67    69   ar
   124    49    50    1
   125   104   103   ar
   126   104   102   ar
   127   103   101   ar
   128   116   114    1
   129   125   123   ar
   130    63    64    1
   131    63    60    1
   132    64    66   ar
   133    51    50    2
   134   107   105   ar
   135    69    70    1
   136    69    68   ar
   137   122   123   ar
   138   122   121    1
   139    66    68   ar
   140    60    61    1
   141    60    59    1
   142   101   100   ar
   143    61    62    2
   144   102   105   ar
   145   102   100   ar
   146   114   115    1
   147   114   113    1
   148   121   118    1
   149   100    99    1
   150   113   110    1
   151   118   119    1
   152   118   117    1
   153    99    96    1
   154   119   120    2
   155   110   111    1
   156   110   109    1
   157   111   112    2
   158    95    96    1
   159    96    97    1
   160    97    98    2
