@<TRIPOS>MOLECULE
tmp/3tg2A00.pdb
 158 153 0 0 0
SMALL
GASTEIGER

@<TRIPOS>ATOM
      1  N         41.2790  -25.8370  -17.3180 N.3     2  ILE2       -0.1245
      2  CA        39.9280  -25.6830  -16.8310 C.3     2  ILE2        0.1561
      3  C         39.1060  -26.7250  -17.5750 C.2     2  ILE2        0.2260
      4  O         39.1820  -26.8070  -18.8000 O.2     2  ILE2       -0.2867
      5  CB        39.3740  -24.2790  -17.1210 C.3     2  ILE2        0.0252
      6  CG1       40.2320  -23.1860  -16.4580 C.3     2  ILE2        0.0019
      7  CG2       37.9320  -24.1860  -16.6600 C.3     2  ILE2        0.0019
      8  CD1       39.8880  -21.7990  -16.9270 C.3     2  ILE2        0.0001
      9  N         33.7820  -11.1800   -9.6990 N.3    33  HIS33      -0.1226
     10  CA        35.1110  -11.7300   -9.9500 C.3    33  HIS33       0.1752
     11  C         35.1590  -12.6170  -11.1890 C.2    33  HIS33       0.2596
     12  O         34.5240  -13.6810  -11.2360 O.2    33  HIS33      -0.2718
     13  CB        35.5160  -12.5270   -8.7000 C.3    33  HIS33       0.0759
     14  CG        36.8150  -13.2470   -8.8190 C.ar   33  HIS33       0.0818
     15  ND1       36.9150  -14.4730   -9.4350 N.ar   33  HIS33      -0.2268
     16  CD2       38.0440  -12.9630   -8.3400 C.ar   33  HIS33       0.1154
     17  CE1       38.1670  -14.8950   -9.3520 C.ar   33  HIS33       0.1986
     18  NE2       38.8830  -13.9960   -8.6930 N.ar   33  HIS33      -0.2212
     19  N         35.9280  -12.1590  -12.1750 N.am   34  ASN34      -0.1974
     20  CA        36.2830  -12.9110  -13.3820 C.3    34  ASN34       0.1688
     21  C         35.0960  -13.4460  -14.1760 C.2    34  ASN34       0.2292
     22  O         35.1710  -14.5200  -14.7860 O.2    34  ASN34      -0.2864
     23  CB        37.2590  -14.0380  -13.0440 C.3    34  ASN34       0.1181
     24  CG        38.6810  -13.5650  -12.7330 C.2    34  ASN34       0.2629
     25  OD1       39.6250  -14.3590  -12.8910 O.2    34  ASN34      -0.2716
     26  ND2       38.8610  -12.3520  -12.3220 N.am   34  ASN34      -0.0877
     27  N         35.6110  -15.5860  -21.4020 N.3    38  TYR38      -0.1227
     28  CA        36.5810  -16.6720  -21.4260 C.3    38  TYR38       0.1736
     29  C         36.2700  -17.7380  -20.3650 C.2    38  TYR38       0.2595
     30  O         36.2690  -18.9420  -20.6590 O.2    38  TYR38      -0.2718
     31  CB        38.0160  -16.1250  -21.2170 C.3    38  TYR38       0.0548
     32  CG        39.0480  -17.2320  -21.0690 C.ar   38  TYR38      -0.0200
     33  CD1       39.5610  -17.5600  -19.8170 C.ar   38  TYR38      -0.0009
     34  CD2       39.4670  -17.9800  -22.1620 C.ar   38  TYR38      -0.0009
     35  CE1       40.4790  -18.5910  -19.6540 C.ar   38  TYR38       0.0417
     36  CE2       40.3920  -19.0060  -22.0080 C.ar   38  TYR38       0.0417
     37  CZ        40.8730  -19.3230  -20.7600 C.ar   38  TYR38       0.1957
     38  OH        41.7310  -20.3990  -20.6510 O.3    38  TYR38      -0.2866
     39  N         36.0480  -17.3020  -19.1290 N.am   39  PHE39      -0.1976
     40  CA        35.8320  -18.2170  -18.0260 C.3    39  PHE39       0.1639
     41  C         34.4340  -18.8210  -18.0300 C.2    39  PHE39       0.2290
     42  O         34.2420  -19.9840  -17.6620 O.2    39  PHE39      -0.2864
     43  CB        36.1470  -17.5240  -16.6980 C.3    39  PHE39       0.0560
     44  CG        37.5980  -17.1570  -16.5630 C.ar   39  PHE39      -0.0200
     45  CD1       38.5700  -18.1580  -16.4930 C.ar   39  PHE39      -0.0042
     46  CD2       38.0090  -15.8430  -16.5100 C.ar   39  PHE39      -0.0042
     47  CE1       39.9110  -17.8480  -16.3330 C.ar   39  PHE39      -0.0003
     48  CE2       39.3520  -15.5230  -16.3750 C.ar   39  PHE39      -0.0003
     49  CZ        40.3100  -16.5220  -16.2850 C.ar   39  PHE39      -0.0000
     50  N         41.0220  -10.6980  -16.2820 N.3    76  GLN76      -0.1245
     51  CA        42.3670  -10.9400  -16.7840 C.3    76  GLN76       0.1566
     52  C         42.5590  -10.3210  -18.1550 C.2    76  GLN76       0.2260
     53  O         41.6510  -10.3780  -18.9920 O.2    76  GLN76      -0.2867
     54  CB        42.6420  -12.4190  -16.9360 C.3    76  GLN76       0.0367
     55  CG        42.8180  -13.1460  -15.6370 C.3    76  GLN76       0.0905
     56  CD        43.5200  -14.5000  -15.8310 C.2    76  GLN76       0.2608
     57  OE1       44.0000  -14.8390  -16.9080 O.2    76  GLN76      -0.2717
     58  NE2       43.5520  -15.2910  -14.7850 N.am   76  GLN76      -0.0878
     59  N         53.0060  -13.2460  -16.0610 N.3    85  ARG85      -0.1245
     60  CA        52.1170  -14.3500  -15.7190 C.3    85  ARG85       0.1563
     61  C         52.8220  -15.3690  -14.8050 C.2    85  ARG85       0.2260
     62  O         52.1900  -15.9970  -13.9620 O.2    85  ARG85      -0.2867
     63  CB        51.6090  -15.0100  -16.9950 C.3    85  ARG85       0.0307
     64  CG        50.6100  -16.1240  -16.7580 C.3    85  ARG85       0.0489
     65  CD        49.9130  -16.4720  -18.0610 C.3    85  ARG85       0.2205
     66  NE        49.1330  -17.7100  -17.9730 N.pl3  85  ARG85      -0.0865
     67  CZ        47.9060  -17.8130  -17.4640 C.cat  85  ARG85       0.5346
     68  NH1       47.2740  -16.7630  -16.9720 N.pl3  85  ARG85       0.1354
     69  NH2       47.3080  -18.9950  -17.4390 N.pl3  85  ARG85       0.1354
     70  N         51.7920  -19.1700  -12.9430 N.3    88  LEU88      -0.1245
     71  CA        50.4730  -19.5840  -13.4460 C.3    88  LEU88       0.1561
     72  C         50.5930  -20.4010  -14.7130 C.2    88  LEU88       0.2260
     73  O         49.7900  -21.3140  -14.9270 O.2    88  LEU88      -0.2867
     74  CB        49.6030  -18.3620  -13.7530 C.3    88  LEU88       0.0270
     75  CG        48.8790  -17.7920  -12.5410 C.3    88  LEU88       0.0019
     76  CD1       48.3550  -16.4130  -12.8900 C.3    88  LEU88       0.0001
     77  CD2       47.7540  -18.7150  -12.0730 C.3    88  LEU88       0.0001
     78  N         48.3470  -23.6440  -15.9720 N.3    92  TRP92      -0.1241
     79  CA        47.1960  -23.3600  -16.8260 C.3    92  TRP92       0.1605
     80  C         47.5560  -23.0750  -18.2730 C.2    92  TRP92       0.2264
     81  O         46.6490  -22.8730  -19.0800 O.2    92  TRP92      -0.2867
     82  CB        46.4050  -22.1600  -16.2570 C.3    92  TRP92       0.0550
     83  CG        45.9730  -22.3400  -14.8410 C.ar   92  TRP92       0.0003
     84  CD1       46.5670  -21.7840  -13.7600 C.ar   92  TRP92       0.0946
     85  CD2       44.8860  -23.1410  -14.3490 C.ar   92  TRP92       0.0152
     86  NE1       45.9190  -22.1690  -12.6230 N.ar   92  TRP92      -0.2442
     87  CE2       44.8930  -23.0150  -12.9520 C.ar   92  TRP92       0.0810
     88  CE3       43.9080  -23.9410  -14.9500 C.ar   92  TRP92       0.0012
     89  CZ2       43.9570  -23.6470  -12.1390 C.ar   92  TRP92       0.0191
     90  CZ3       42.9800  -24.5790  -14.1410 C.ar   92  TRP92       0.0001
     91  CH2       43.0120  -24.4310  -12.7480 C.ar   92  TRP92       0.0015
     92  N         47.4110  -18.8900  -21.1100 N.3    95  GLY95      -0.1225
     93  CA        46.2600  -18.1060  -20.7050 C.3    95  GLY95       0.1811
     94  C         45.5260  -17.4800  -21.8760 C.2    95  GLY95       0.2280
     95  O         45.9070  -17.6010  -23.0480 O.2    95  GLY95      -0.2866
     96  N         43.2790   -8.3050  -13.4180 N.3   117  LYS117     -0.1245
     97  CA        43.4950   -9.4810  -12.5770 C.3   117  LYS117      0.1561
     98  C         44.7420  -10.2080  -13.0300 C.2   117  LYS117      0.2260
     99  O         44.8270  -10.6260  -14.1970 O.2   117  LYS117     -0.2867
    100  CB        42.2960  -10.4250  -12.7430 C.3   117  LYS117      0.0271
    101  CG        42.2670  -11.6030  -11.7670 C.3   117  LYS117      0.0035
    102  CD        42.0730  -11.1360  -10.3430 C.3   117  LYS117      0.0206
    103  CE        41.1780  -11.9780   -9.5290 C.3   117  LYS117      0.1093
    104  NZ        41.4990  -13.4630   -9.5260 N.3   117  LYS117     -0.1314
    105  N         46.5370  -12.5480  -10.5860 N.3   119  ARG119     -0.1231
    106  CA        46.7480  -13.7300   -9.7480 C.3   119  ARG119      0.1694
    107  C         45.4040  -14.1890   -9.2200 C.2   119  ARG119      0.2592
    108  O         44.4140  -13.4930   -9.3610 O.2   119  ARG119     -0.2718
    109  CB        47.6620  -13.3800   -8.5650 C.3   119  ARG119      0.0321
    110  CG        49.0570  -12.8830   -8.9390 C.3   119  ARG119      0.0489
    111  CD        49.9220  -13.9580   -9.5470 C.3   119  ARG119      0.2205
    112  NE        51.2970  -13.5680   -9.8160 N.pl3 119  ARG119     -0.0865
    113  CZ        51.7610  -13.1380  -10.9870 C.cat 119  ARG119      0.5346
    114  NH1       50.9340  -12.9590  -12.0160 N.pl3 119  ARG119      0.1354
    115  NH2       53.0550  -12.8690  -11.1270 N.pl3 119  ARG119      0.1354
    116  N         45.3830  -15.3300   -8.5360 N.am  120  TYR120     -0.1976
    117  CA        44.1260  -15.8300   -7.9690 C.3   120  TYR120      0.1639
    118  C         43.4780  -14.7850   -7.0620 C.2   120  TYR120      0.2290
    119  O         42.2620  -14.6050   -7.0950 O.2   120  TYR120     -0.2864
    120  CB        44.3330  -17.1030   -7.1530 C.3   120  TYR120      0.0560
    121  CG        44.8630  -18.3290   -7.8900 C.ar  120  TYR120     -0.0198
    122  CD1       44.6890  -18.5230   -9.2580 C.ar  120  TYR120     -0.0009
    123  CD2       45.4820  -19.3310   -7.1720 C.ar  120  TYR120     -0.0009
    124  CE1       45.1400  -19.6850   -9.8740 C.ar  120  TYR120      0.0417
    125  CE2       45.9410  -20.4750   -7.7680 C.ar  120  TYR120      0.0417
    126  CZ        45.7740  -20.6500   -9.1230 C.ar  120  TYR120      0.1957
    127  OH        46.2120  -21.7890   -9.7660 O.3   120  TYR120     -0.2866
    128  N         33.3640  -16.4760  -10.4620 N.3   145  VAL145     -0.1231
    129  CA        33.9510  -17.7940  -10.6590 C.3   145  VAL145      0.1692
    130  C         35.4660  -17.7100  -10.5110 C.2   145  VAL145      0.2592
    131  O         36.0280  -16.6440  -10.7380 O.2   145  VAL145     -0.2718
    132  CB        33.5930  -18.3900  -12.0550 C.3   145  VAL145      0.0266
    133  CG1       32.0920  -18.5790  -12.1910 C.3   145  VAL145      0.0020
    134  CG2       34.1440  -17.5470  -13.2090 C.3   145  VAL145      0.0020
    135  N         36.1740  -18.8050  -10.1890 N.am  146  TYR146     -0.1976
    136  CA        35.6620  -20.0960   -9.7360 C.3   146  TYR146      0.1639
    137  C         35.8060  -20.1720   -8.2180 C.2   146  TYR146      0.2290
    138  O         36.8170  -19.7160   -7.6500 O.2   146  TYR146     -0.2864
    139  CB        36.4650  -21.2480  -10.3860 C.3   146  TYR146      0.0560
    140  CG        36.4320  -21.2090  -11.8980 C.ar  146  TYR146     -0.0198
    141  CD1       35.3060  -21.6200  -12.6160 C.ar  146  TYR146     -0.0009
    142  CD2       37.5140  -20.7240  -12.6120 C.ar  146  TYR146     -0.0009
    143  CE1       35.2650  -21.5410  -13.9970 C.ar  146  TYR146      0.0417
    144  CE2       37.4740  -20.6340  -13.9980 C.ar  146  TYR146      0.0417
    145  CZ        36.3400  -21.0330  -14.6850 C.ar  146  TYR146      0.1957
    146  OH        36.3670  -20.9290  -16.0570 O.3   146  TYR146     -0.2866
    147  N         39.1110  -21.3470   -6.4920 N.3   149  ILE149     -0.1231
    148  CA        40.3620  -20.7660   -6.9770 C.3   149  ILE149      0.1692
    149  C         40.4050  -19.2810   -6.6010 C.2   149  ILE149      0.2592
    150  O         40.7900  -18.9550   -5.4720 O.2   149  ILE149     -0.2718
    151  CB        40.6040  -21.0630   -8.4740 C.3   149  ILE149      0.0266
    152  CG1       40.5450  -22.5690   -8.7320 C.3   149  ILE149      0.0019
    153  CG2       41.9430  -20.4880   -8.9040 C.3   149  ILE149      0.0020
    154  CD1       40.5940  -22.9430  -10.2040 C.3   149  ILE149      0.0001
    155  N         39.9830  -18.3870   -7.4850 N.am  150  GLY150     -0.1957
    156  CA        40.1560  -16.9770   -7.2070 C.3   150  GLY150      0.1869
    157  C         39.1860  -16.4200   -6.1840 C.2   150  GLY150      0.2309
    158  O         39.5030  -15.4870   -5.4550 O.2   150  GLY150     -0.2863
@<TRIPOS>BOND
     1    95    94    2
     2    34    36   ar
     3    34    32   ar
     4    36    37   ar
     5    94    93    1
     6    28    27    1
     7    28    31    1
     8    28    29    1
     9    31    32    1
    10    92    93    1
    11    32    33   ar
    12    37    38    1
    13    37    35   ar
    14    30    29    2
    15    29    39   am
    16    33    35   ar
    17    39    40    1
    18    81    80    2
    19    53    52    2
    20     4     3    2
    21    80    79    1
    22    52    51    1
    23    65    66    1
    24    65    64    1
    25    41    40    1
    26    41    42    2
    27    40    43    1
    28    66    67    2
    29     3     2    1
    30    67    69    1
    31    67    68    1
    32     1     2    1
    33     5     2    1
    34     5     7    1
    35     5     6    1
    36    63    64    1
    37    63    60    1
    38    54    51    1
    39    54    55    1
    40     8     6    1
    41    57    56    2
    42    79    82    1
    43    79    78    1
    44    51    50    1
    45    43    44    1
    46    44    46   ar
    47    44    45   ar
    48    46    48   ar
    49    45    47   ar
    50    48    49   ar
    51    47    49   ar
    52    82    83    1
    53    59    60    1
    54   146   145    1
    55    56    55    1
    56    56    58   am
    57    60    61    1
    58    88    85   ar
    59    88    90   ar
    60    73    72    2
    61    83    85   ar
    62    83    84   ar
    63    61    62    2
    64    22    21    2
    65    72    71    1
    66   145   144   ar
    67   145   143   ar
    68    85    87   ar
    69    99    98    2
    70    21    20    1
    71    90    91   ar
    72   144   142   ar
    73   143   141   ar
    74    84    86   ar
    75    74    71    1
    76    74    75    1
    77    71    70    1
    78    96    97    1
    79    20    23    1
    80    20    19    1
    81   134   132    1
    82    23    24    1
    83    98    97    1
    84    87    86   ar
    85    87    89   ar
    86    25    24    2
    87    76    75    1
    88    91    89   ar
    89   100    97    1
    90   100   101    1
    91    24    26   am
    92   141   140   ar
    93   142   140   ar
    94    75    77    1
    95   133   132    1
    96    19    11   am
    97   132   129    1
    98   114   113    1
    99   140   139    1
   100   101   102    1
   101    12    11    2
   102    11    10    1
   103   115   113    1
   104   113   112    2
   105   131   130    2
   106   129   130    1
   107   129   128    1
   108   105   106    1
   109   130   135   am
   110   139   136    1
   111   102   103    1
   112   154   152    1
   113   135   136    1
   114    10     9    1
   115    10    13    1
   116   124   122   ar
   117   124   126   ar
   118   112   111    1
   119   127   126    1
   120   106   107    1
   121   106   109    1
   122   136   137    1
   123   111   110    1
   124   103   104    1
   125    15    17   ar
   126    15    14   ar
   127   108   107    2
   128    17    18   ar
   129   122   121   ar
   130   107   116   am
   131   126   125   ar
   132   110   109    1
   133   153   151    1
   134    14    13    1
   135    14    16   ar
   136   152   151    1
   137    18    16   ar
   138   116   117    1
   139   151   148    1
   140   137   138    2
   141   117   120    1
   142   117   118    1
   143   121   123   ar
   144   121   120    1
   145   125   123   ar
   146   155   156    1
   147   155   149   am
   148   156   157    1
   149   119   118    2
   150   148   149    1
   151   148   147    1
   152   149   150    2
   153   157   158    2
