@<TRIPOS>MOLECULE
tmp/3tg8A01.pdb
 89 88 0 0 0
SMALL
GASTEIGER

@<TRIPOS>ATOM
      1  N         15.6180   18.4500   -3.6510 N.3    51  LEU51      -0.1231
      2  CA        16.1760   17.9120   -2.4170 C.3    51  LEU51       0.1678
      3  C         17.6320   17.5220   -2.6180 C.2    51  LEU51       0.2434
      4  O         17.9850   16.9860   -3.6660 O.2    51  LEU51      -0.2733
      5  CB        15.3890   16.6800   -1.9810 C.3    51  LEU51       0.0284
      6  CG        13.9070   16.9180   -1.6610 C.3    51  LEU51       0.0019
      7  CD1       13.2680   15.5970   -1.2750 C.3    51  LEU51       0.0001
      8  CD2       13.7800   17.9450   -0.5470 C.3    51  LEU51       0.0001
      9  N         18.4790   17.7690   -1.6040 N.am   52  PRO52      -0.2718
     10  CA        19.8980   17.4080   -1.7270 C.3    52  PRO52       0.1535
     11  C         20.0950   15.9010   -1.9380 C.2    52  PRO52       0.2599
     12  O         21.0510   15.5020   -2.5800 O.2    52  PRO52      -0.2715
     13  CB        20.5100   17.8540   -0.3880 C.3    52  PRO52       0.0310
     14  CG        19.3720   18.2260    0.4990 C.3    52  PRO52       0.0237
     15  CD        18.2020   18.5510   -0.3900 C.3    52  PRO52       0.0939
     16  N         19.2020   15.0790   -1.3980 N.am   53  HIS53      -0.1960
     17  CA        19.3080   13.6330   -1.5670 C.3    53  HIS53       0.1787
     18  C         18.0910   13.1180   -2.3310 C.2    53  HIS53       0.2620
     19  O         16.9630   13.2640   -1.8740 O.2    53  HIS53      -0.2715
     20  CB        19.4280   12.9450   -0.2000 C.3    53  HIS53       0.0785
     21  CG        20.4820   13.5440    0.6790 C.ar   53  HIS53       0.0821
     22  ND1       21.8210   13.2410    0.5450 N.ar   53  HIS53      -0.2267
     23  CD2       20.3980   14.4430    1.6890 C.ar   53  HIS53       0.1154
     24  CE1       22.5160   13.9220    1.4400 C.ar   53  HIS53       0.1986
     25  NE2       21.6760   14.6610    2.1460 N.ar   53  HIS53      -0.2212
     26  N         18.3260   12.5280   -3.4980 N.am   54  GLY54      -0.1954
     27  CA        17.2510   12.0530   -4.3580 C.3    54  GLY54       0.1869
     28  C         16.3980   10.9690   -3.7230 C.2    54  GLY54       0.2309
     29  O         16.8470   10.3110   -2.7790 O.2    54  GLY54      -0.2863
     30  N         19.7180   12.7190  -12.2500 N.3   141  ARG141     -0.1231
     31  CA        19.9850   12.8040  -10.8130 C.3   141  ARG141      0.1694
     32  C         19.2710   13.9850  -10.1380 C.2   141  ARG141      0.2591
     33  O         18.7340   13.8470   -9.0300 O.2   141  ARG141     -0.2718
     34  CB        21.4990   12.8450  -10.5410 C.3   141  ARG141      0.0321
     35  CG        22.1850   11.4990  -10.7350 C.3   141  ARG141      0.0489
     36  CD        23.6600   11.5410  -10.3230 C.3   141  ARG141      0.2205
     37  NE        24.4220   12.5360  -11.0760 N.pl3 141  ARG141     -0.0865
     38  CZ        24.9920   12.3050  -12.2560 C.cat 141  ARG141      0.5346
     39  NH1       25.6620   13.2740  -12.8740 N.pl3 141  ARG141      0.1354
     40  NH2       24.8900   11.1050  -12.8200 N.pl3 141  ARG141      0.1354
     41  N         19.2550   15.1400  -10.8020 N.am  142  GLU142     -0.1979
     42  CA        18.5290   16.2970  -10.2860 C.3   142  GLU142      0.1602
     43  C         17.0170   16.0500  -10.1810 C.2   142  GLU142      0.2287
     44  O         16.3820   16.4280   -9.1970 O.2   142  GLU142     -0.2864
     45  CB        18.7650   17.5300  -11.1580 C.3   142  GLU142      0.0415
     46  CG        17.9000   18.7130  -10.7550 C.3   142  GLU142      0.1163
     47  CD        17.9350   19.8500  -11.7600 C.2   142  GLU142      0.3649
     48  OE1       18.9300   19.9630  -12.5130 O.co2 142  GLU142     -0.2457
     49  OE2       16.9610   20.6350  -11.7960 O.co2 142  GLU142     -0.2457
     50  N         15.4070   13.3130   -9.9030 N.3   144  LYS144     -0.1231
     51  CA        15.1060   12.3220   -8.8640 C.3   144  LYS144      0.1693
     52  C         14.9690   12.9780   -7.4900 C.2   144  LYS144      0.2592
     53  O         14.5080   12.3470   -6.5410 O.2   144  LYS144     -0.2718
     54  CB        16.2270   11.2790   -8.7960 C.3   144  LYS144      0.0285
     55  CG        16.1940   10.2190   -9.8780 C.3   144  LYS144      0.0035
     56  CD        15.1580    9.1840   -9.5400 C.3   144  LYS144      0.0206
     57  CE        15.3740    7.8990  -10.2980 C.3   144  LYS144      0.1093
     58  NZ        14.1760    7.0470  -10.1190 N.3   144  LYS144     -0.1314
     59  N         15.4010   14.2310   -7.3740 N.am  145  GLY145     -0.1957
     60  CA        15.2600   14.9670   -6.1260 C.3   145  GLY145      0.1869
     61  C         14.2630   16.1080   -6.2150 C.2   145  GLY145      0.2309
     62  O         14.0000   16.7750   -5.2140 O.2   145  GLY145     -0.2863
     63  N         16.7940    5.8740    5.2260 N.3   166  PHE166     -0.1228
     64  CA        17.7990    6.8900    5.0550 C.3   166  PHE166      0.1721
     65  C         18.5760    7.1390    6.3320 C.2   166  PHE166      0.2437
     66  O         18.0230    7.0770    7.3870 O.2   166  PHE166     -0.2733
     67  CB        17.1500    8.2200    4.6870 C.3   166  PHE166      0.0547
     68  CG        16.8720    8.4180    3.2390 C.ar  166  PHE166     -0.0202
     69  CD1       16.6010    7.3760    2.4130 C.ar  166  PHE166     -0.0042
     70  CD2       16.8530    9.6940    2.7060 C.ar  166  PHE166     -0.0042
     71  CE1       16.3430    7.6000    1.0990 C.ar  166  PHE166     -0.0003
     72  CE2       16.5800    9.9110    1.4150 C.ar  166  PHE166     -0.0003
     73  CZ        16.3140    8.8860    0.6060 C.ar  166  PHE166     -0.0000
     74  N         19.8420    7.4750    6.2220 N.am  167  PRO167     -0.2729
     75  CA        20.5570    7.9440    7.4180 C.3   167  PRO167      0.1401
     76  C         19.8700    9.2130    7.9170 C.2   167  PRO167      0.2269
     77  O         19.3090    9.9470    7.1030 O.2   167  PRO167     -0.2865
     78  CB        21.9630    8.2620    6.8960 C.3   167  PRO167      0.0296
     79  CG        22.0970    7.4470    5.6310 C.3   167  PRO167      0.0237
     80  CD        20.7100    7.3720    5.0390 C.3   167  PRO167      0.0939
     81  N         20.7050   12.6200    6.3270 N.3   170  LYS170     -0.1245
     82  CA        20.1030   12.8410    5.0070 C.3   170  LYS170      0.1561
     83  C         18.6420   13.2590    5.1280 C.2   170  LYS170      0.2260
     84  O         18.1750   14.1580    4.4160 O.2   170  LYS170     -0.2867
     85  CB        20.2390   11.6030    4.1110 C.3   170  LYS170      0.0271
     86  CG        21.6970   11.2310    3.8090 C.3   170  LYS170      0.0035
     87  CD        21.8080   10.3270    2.5790 C.3   170  LYS170      0.0206
     88  CE        23.2820   10.1630    2.1780 C.3   170  LYS170      0.1093
     89  NZ        23.4430    9.4570    0.8740 N.3   170  LYS170     -0.1314
@<TRIPOS>BOND
     1    39    38    1
     2    40    38    1
     3    48    47   ar
     4    38    37    2
     5    30    31    1
     6    49    47   ar
     7    47    46    1
     8    45    46    1
     9    45    42    1
    10    37    36    1
    11    31    34    1
    12    31    32    1
    13    41    42    1
    14    41    32   am
    15    35    34    1
    16    35    36    1
    17    57    58    1
    18    57    56    1
    19    42    43    1
    20    43    44    2
    21    32    33    2
    22    50    51    1
    23    55    56    1
    24    55    54    1
    25    51    54    1
    26    51    52    1
    27    52    59   am
    28    52    53    2
    29    59    60    1
    30    61    60    1
    31    61    62    2
    32    27    28    1
    33    27    26    1
    34    28    29    2
    35     4     3    2
    36     1     2    1
    37    26    18   am
    38     3     2    1
    39     3     9   am
    40    12    11    2
    41     2     5    1
    42    18    19    2
    43    18    17    1
    44     5     6    1
    45    11    10    1
    46    11    16   am
    47    10     9    1
    48    10    13    1
    49     6     7    1
    50     6     8    1
    51     9    15    1
    52    17    16    1
    53    17    20    1
    54    15    14    1
    55    13    14    1
    56    20    21    1
    57    22    21   ar
    58    22    24   ar
    59    73    71   ar
    60    73    72   ar
    61    21    23   ar
    62    89    88    1
    63    71    69   ar
    64    72    70   ar
    65    24    25   ar
    66    23    25   ar
    67    88    87    1
    68    69    68   ar
    69    87    86    1
    70    70    68   ar
    71    68    67    1
    72    86    85    1
    73    85    82    1
    74    84    83    2
    75    67    64    1
    76    82    83    1
    77    82    81    1
    78    80    79    1
    79    80    74    1
    80    64    63    1
    81    64    65    1
    82    79    78    1
    83    74    65   am
    84    74    75    1
    85    65    66    2
    86    78    75    1
    87    77    76    2
    88    75    76    1
