@<TRIPOS>MOLECULE
tmp/3tg8A02.pdb
 82 80 0 0 0
SMALL
GASTEIGER

@<TRIPOS>ATOM
      1  N          1.0410   23.2800    8.1980 N.3    33  LYS33      -0.1231
      2  CA        -0.1710   24.0870    8.1070 C.3    33  LYS33       0.1693
      3  C          0.2980   25.4970    7.8510 C.2    33  LYS33       0.2592
      4  O          1.0110   26.0630    8.6690 O.2    33  LYS33      -0.2718
      5  CB        -0.9510   24.0540    9.4190 C.3    33  LYS33       0.0285
      6  CG        -2.0810   23.0540    9.4410 C.3    33  LYS33       0.0035
      7  CD        -3.2150   23.5000    8.5250 C.3    33  LYS33       0.0206
      8  CE        -4.4270   22.6000    8.6790 C.3    33  LYS33       0.1093
      9  NZ        -5.5860   23.0580    7.8740 N.3    33  LYS33      -0.1314
     10  N         -0.0950   26.0630    6.7160 N.am   34  LEU34      -0.1966
     11  CA         0.3940   27.3740    6.3170 C.3    34  LEU34       0.1728
     12  C         -0.5590   28.5190    6.6630 C.2    34  LEU34       0.2617
     13  O         -1.7790   28.3570    6.6450 O.2    34  LEU34      -0.2715
     14  CB         0.7100   27.3890    4.8180 C.3    34  LEU34       0.0311
     15  CG         1.7900   26.4020    4.3470 C.3    34  LEU34       0.0022
     16  CD1        2.0650   26.6110    2.8750 C.3    34  LEU34       0.0001
     17  CD2        3.0760   26.5720    5.1520 C.3    34  LEU34       0.0001
     18  N          0.0040   29.6850    6.9560 N.am   35  GLY35      -0.1940
     19  CA        -0.8080   30.8340    7.3270 C.3    35  GLY35       0.2014
     20  C         -1.2690   31.5880    6.0950 C.2    35  GLY35       0.2639
     21  O         -0.8880   32.7410    5.8820 O.2    35  GLY35      -0.2714
     22  N         -2.0890   30.9180    5.2870 N.am   36  ILE36      -0.1963
     23  CA        -2.5960   31.4550    4.0230 C.3    36  ILE36       0.1727
     24  C         -4.0620   31.0530    3.8460 C.2    36  ILE36       0.2616
     25  O         -4.5390   30.1250    4.4970 O.2    36  ILE36      -0.2715
     26  CB        -1.8130   30.8790    2.8130 C.3    36  ILE36       0.0290
     27  CG1       -1.9880   29.3540    2.7350 C.3    36  ILE36       0.0022
     28  CG2       -0.3540   31.2480    2.8880 C.3    36  ILE36       0.0023
     29  CD1       -1.3560   28.7370    1.5120 C.3    36  ILE36       0.0001
     30  N         -4.7810   31.7500    2.9710 N.am   37  ASP37      -0.1958
     31  CA        -6.1370   31.3260    2.6240 C.3    37  ASP37       0.1825
     32  C         -6.1370   30.9790    1.1540 C.2    37  ASP37       0.2464
     33  O         -6.1150   31.8660    0.2890 O.2    37  ASP37      -0.2730
     34  CB        -7.1760   32.4130    2.9090 C.3    37  ASP37       0.1450
     35  CG        -8.6130   31.9430    2.6420 C.2    37  ASP37       0.3671
     36  OD1       -8.8260   30.9210    1.9350 O.co2  37  ASP37      -0.2456
     37  OD2       -9.5340   32.6000    3.1600 O.co2  37  ASP37      -0.2456
     38  N         -6.1460   29.6780    0.8680 N.am   38  PRO38      -0.2715
     39  CA        -6.0470   29.1150   -0.4800 C.3    38  PRO38       0.1536
     40  C         -7.3080   29.3890   -1.3070 C.2    38  PRO38       0.2598
     41  O         -7.3040   29.1670   -2.5150 O.2    38  PRO38      -0.2715
     42  CB        -5.9070   27.6140   -0.2180 C.3    38  PRO38       0.0310
     43  CG        -5.5630   27.4920    1.2540 C.3    38  PRO38       0.0237
     44  CD        -6.2630   28.6330    1.8930 C.3    38  PRO38       0.0939
     45  N         -8.3700   29.8660   -0.6690 N.am   39  ARG39      -0.1978
     46  CA        -9.5400   30.3150   -1.4270 C.3    39  ARG39       0.1597
     47  C         -9.2830   31.6780   -2.0790 C.2    39  ARG39       0.2287
     48  O        -10.0810   32.1450   -2.8970 O.2    39  ARG39      -0.2864
     49  CB       -10.7730   30.3850   -0.5380 C.3    39  ARG39       0.0334
     50  CG       -11.4730   29.0550   -0.3310 C.3    39  ARG39       0.0492
     51  CD       -11.4770   28.6850    1.1240 C.3    39  ARG39       0.2205
     52  NE       -11.3510   29.8530    1.9910 N.pl3  39  ARG39      -0.0865
     53  CZ       -12.3730   30.4890    2.5520 C.cat  39  ARG39       0.5346
     54  NH1      -12.1540   31.5380    3.3380 N.pl3  39  ARG39       0.1354
     55  NH2      -13.6150   30.0690    2.3340 N.pl3  39  ARG39       0.1354
     56  N         -7.0180   23.0600    0.0510 N.3   153  LYS153     -0.1231
     57  CA        -7.9470   24.1640    0.3230 C.3   153  LYS153      0.1693
     58  C         -7.9660   24.6230    1.7820 C.2   153  LYS153      0.2592
     59  O         -8.4190   25.7380    2.0780 O.2   153  LYS153     -0.2718
     60  CB        -9.3690   23.8050   -0.1330 C.3   153  LYS153      0.0285
     61  CG        -9.5050   23.7320   -1.6470 C.3   153  LYS153      0.0035
     62  CD        -9.0760   25.0530   -2.2760 C.3   153  LYS153      0.0206
     63  CE        -8.5700   24.8750   -3.7040 C.3   153  LYS153      0.1093
     64  NZ        -7.8400   26.0950   -4.1730 N.3   153  LYS153     -0.1314
     65  N         -7.4730   23.7660    2.6740 N.am  154  THR154     -0.1953
     66  CA        -7.3670   24.0790    4.1040 C.3   154  THR154      0.1897
     67  C         -6.1000   24.8690    4.4420 C.2   154  THR154      0.2313
     68  O         -5.9660   25.3850    5.5480 O.2   154  THR154     -0.2863
     69  CB        -7.3950   22.7940    4.9760 C.3   154  THR154      0.1794
     70  OG1       -6.1050   22.1640    4.9800 O.3   154  THR154     -0.2208
     71  CG2       -8.4350   21.8060    4.4620 C.3   154  THR154      0.0378
     72  N          2.5600   27.6680   10.5790 N.3   196  ARG196     -0.1245
     73  CA         1.7390   27.6050   11.7940 C.3   196  ARG196      0.1563
     74  C          2.0280   26.3650   12.6270 C.2   196  ARG196      0.2260
     75  O          2.1420   26.4330   13.8500 O.2   196  ARG196     -0.2867
     76  CB         0.2610   27.6820   11.4370 C.3   196  ARG196      0.0307
     77  CG        -0.1450   29.0280   10.8620 C.3   196  ARG196      0.0489
     78  CD        -1.6130   28.9970   10.4430 C.3   196  ARG196      0.2205
     79  NE        -2.4840   28.5850   11.5410 N.pl3 196  ARG196     -0.0865
     80  CZ        -3.0220   29.4290   12.4170 C.cat 196  ARG196      0.5346
     81  NH1       -2.7690   30.7330   12.3310 N.pl3 196  ARG196      0.1354
     82  NH2       -3.8090   28.9670   13.3840 N.pl3 196  ARG196      0.1354
@<TRIPOS>BOND
     1    64    63    1
     2    63    62    1
     3    48    47    2
     4    41    40    2
     5    62    61    1
     6    47    46    1
     7    61    60    1
     8    46    45    1
     9    46    49    1
    10    40    45   am
    11    40    39    1
    12    49    50    1
    13    39    42    1
    14    39    38    1
    15    50    51    1
    16    42    43    1
    17    60    57    1
    18    56    57    1
    19    33    32    2
    20    57    58    1
    21    38    32   am
    22    38    44    1
    23    51    52    1
    24    32    31    1
    25    43    44    1
    26    29    27    1
    27    58    59    2
    28    58    65   am
    29    36    35   ar
    30    52    53    2
    31    55    53    1
    32    53    54    1
    33    31    34    1
    34    31    30    1
    35    35    34    1
    36    35    37   ar
    37    65    66    1
    38    27    26    1
    39    26    28    1
    40    26    23    1
    41    16    15    1
    42    30    24   am
    43    24    23    1
    44    24    25    2
    45    23    22    1
    46    66    67    1
    47    66    69    1
    48    15    14    1
    49    15    17    1
    50    67    68    2
    51    71    69    1
    52    14    11    1
    53    69    70    1
    54    22    20   am
    55    21    20    2
    56    20    19    1
    57    11    12    1
    58    11    10    1
    59    13    12    2
    60    12    18   am
    61    10     3   am
    62    18    19    1
    63     3     2    1
    64     3     4    2
    65     9     8    1
    66     2     1    1
    67     2     5    1
    68     7     8    1
    69     7     6    1
    70     5     6    1
    71    78    77    1
    72    78    79    1
    73    72    73    1
    74    77    76    1
    75    76    73    1
    76    79    80    2
    77    73    74    1
    78    81    80    1
    79    80    82    1
    80    74    75    2
