@<TRIPOS>MOLECULE
tmp/3tgeA00.pdb
 151 140 0 0 0
SMALL
GASTEIGER

@<TRIPOS>ATOM
      1  N         19.6450    4.7530   13.4340 N.3    77  TYR77      -0.1241
      2  CA        18.4150    3.9860   13.5920 C.3    77  TYR77       0.1605
      3  C         17.6560    4.2140   14.9120 C.2    77  TYR77       0.2264
      4  O         16.4790    4.5670   14.8530 O.2    77  TYR77      -0.2867
      5  CB        18.6650    2.4960   13.3220 C.3    77  TYR77       0.0534
      6  CG        17.4520    1.6100   13.5330 C.ar   77  TYR77      -0.0201
      7  CD1       16.3170    1.7410   12.7340 C.ar   77  TYR77      -0.0009
      8  CD2       17.4370    0.6460   14.5330 C.ar   77  TYR77      -0.0009
      9  CE1       15.1930    0.9340   12.9330 C.ar   77  TYR77       0.0417
     10  CE2       16.3150   -0.1600   14.7440 C.ar   77  TYR77       0.0417
     11  CZ        15.2000   -0.0200   13.9360 C.ar   77  TYR77       0.1957
     12  OH        14.1180   -0.8560   14.1230 O.3    77  TYR77      -0.2866
     13  N         16.3890   -8.1060   23.3060 N.3   191  LEU191     -0.1245
     14  CA        16.2260   -9.3670   22.5560 C.3   191  LEU191      0.1561
     15  C         16.6540  -10.6180   23.3390 C.2   191  LEU191      0.2260
     16  O         16.0710  -11.6780   23.1280 O.2   191  LEU191     -0.2867
     17  CB        16.9390   -9.2810   21.2010 C.3   191  LEU191      0.0270
     18  CG        16.1070   -9.3740   19.8910 C.3   191  LEU191      0.0019
     19  CD1       14.6230   -9.0620   20.0570 C.3   191  LEU191      0.0001
     20  CD2       16.7280   -8.5460   18.7870 C.3   191  LEU191      0.0001
     21  N         14.3350  -13.9140   23.7690 N.3   195  ILE195     -0.1245
     22  CA        14.7540  -15.3130   23.5070 C.3   195  ILE195      0.1561
     23  C         14.4860  -16.1970   24.7150 C.2   195  ILE195      0.2260
     24  O         14.1140  -17.3670   24.5580 O.2   195  ILE195     -0.2867
     25  CB        16.2610  -15.3910   23.1310 C.3   195  ILE195      0.0252
     26  CG1       16.5320  -14.7180   21.8020 C.3   195  ILE195      0.0019
     27  CG2       16.8160  -16.8460   23.1470 C.3   195  ILE195      0.0019
     28  CD1       17.7820  -14.0760   21.8660 C.3   195  ILE195      0.0001
     29  N         10.4380   -4.6780   16.3260 N.3   231  LEU231     -0.1245
     30  CA        11.0430   -5.2270   15.1150 C.3   231  LEU231      0.1561
     31  C         10.2340   -4.9810   13.8590 C.2   231  LEU231      0.2260
     32  O         10.6690   -5.4020   12.7890 O.2   231  LEU231     -0.2867
     33  CB        11.2410   -6.7440   15.2900 C.3   231  LEU231      0.0270
     34  CG        12.1160   -7.2040   16.4460 C.3   231  LEU231      0.0019
     35  CD1       12.1410   -8.7170   16.5080 C.3   231  LEU231      0.0001
     36  CD2       13.5520   -6.6040   16.3380 C.3   231  LEU231      0.0001
     37  N          9.6050   -2.7330   11.5650 N.3   233  ALA233     -0.1231
     38  CA        10.0950   -2.1570   10.3120 C.3   233  ALA233      0.1694
     39  C         10.4590   -3.3020    9.3420 C.2   233  ALA233      0.2591
     40  O         10.3340   -3.1410    8.1210 O.2   233  ALA233     -0.2718
     41  CB        11.3120   -1.2870   10.5820 C.3   233  ALA233      0.0304
     42  N         10.8670   -4.4830    9.9060 N.am  234  ILE234     -0.1980
     43  CA        11.2140   -5.6850    9.1360 C.3   234  ILE234      0.1595
     44  C         10.0100   -6.3020    8.3910 C.2   234  ILE234      0.2287
     45  O         10.2050   -7.1560    7.5320 O.2   234  ILE234     -0.2864
     46  CB        12.0220   -6.7180    9.9760 C.3   234  ILE234      0.0276
     47  CG1       13.1270   -7.4060    9.1130 C.3   234  ILE234      0.0022
     48  CG2       11.1210   -7.7290   10.7200 C.3   234  ILE234      0.0022
     49  CD1       14.3690   -7.8790    9.9240 C.3   234  ILE234      0.0001
     50  N         10.9870   -1.0990    4.0780 N.3   241  GLN241     -0.1245
     51  CA        11.8100   -2.0210    4.8770 C.3   241  GLN241      0.1566
     52  C         13.2930   -1.8980    4.4970 C.2   241  GLN241      0.2260
     53  O         14.1460   -1.8650    5.3860 O.2   241  GLN241     -0.2867
     54  CB        11.3160   -3.4730    4.7160 C.3   241  GLN241      0.0367
     55  CG        12.0630   -4.5250    5.5750 C.3   241  GLN241      0.0905
     56  CD        13.3780   -5.0380    5.0030 C.2   241  GLN241      0.2608
     57  OE1       14.2530   -5.4710    5.7380 O.2   241  GLN241     -0.2717
     58  NE2       13.5610   -5.0110    3.6800 N.am  241  GLN241     -0.0878
     59  N         14.8310    1.4190    5.8290 N.3   244  ILE244     -0.1231
     60  CA        15.0650    1.2900    7.2730 C.3   244  ILE244      0.1692
     61  C         16.2480    0.3210    7.5300 C.2   244  ILE244      0.2591
     62  O         17.1200    0.6560    8.3260 O.2   244  ILE244     -0.2718
     63  CB        13.7930    0.9600    8.1090 C.3   244  ILE244      0.0266
     64  CG1       12.7640    2.1110    8.0160 C.3   244  ILE244      0.0019
     65  CG2       14.1560    0.6990    9.5770 C.3   244  ILE244      0.0020
     66  CD1       11.3210    1.7120    8.3060 C.3   244  ILE244      0.0001
     67  N         16.3140   -0.8190    6.8050 N.am  245  ALA245     -0.1980
     68  CA        17.4350   -1.7650    6.9310 C.3   245  ALA245      0.1597
     69  C         18.7780   -1.0520    6.6780 C.2   245  ALA245      0.2287
     70  O         19.7690   -1.4020    7.3120 O.2   245  ALA245     -0.2864
     71  CB        17.2790   -2.9110    5.9500 C.3   245  ALA245      0.0319
     72  N         19.6370    0.7030    9.9120 N.3   248  VAL248     -0.1231
     73  CA        20.0250   -0.3090   10.9030 C.3   248  VAL248      0.1692
     74  C         21.4940   -0.6790   10.6750 C.2   248  VAL248      0.2591
     75  O         22.2730   -0.6840   11.6280 O.2   248  VAL248     -0.2718
     76  CB        19.0950   -1.5630   10.8310 C.3   248  VAL248      0.0266
     77  CG1       19.5660   -2.6700   11.7610 C.3   248  VAL248      0.0020
     78  CG2       17.6400   -1.2010   11.1290 C.3   248  VAL248      0.0020
     79  N         21.8730   -0.9510    9.4010 N.am  249  ALA249     -0.1980
     80  CA        23.2420   -1.3270    9.0440 C.3   249  ALA249      0.1597
     81  C         24.2120   -0.1770    9.2820 C.2   249  ALA249      0.2287
     82  O         25.2740   -0.4160    9.8380 O.2   249  ALA249     -0.2864
     83  CB        23.3160   -1.8080    7.6060 C.3   249  ALA249      0.0319
     84  N         24.9670   -0.0800   13.0010 N.3   252  PHE252     -0.1241
     85  CA        25.8500   -1.2000   13.3720 C.3   252  PHE252      0.1605
     86  C         27.2760   -0.9310   12.8850 C.2   252  PHE252      0.2264
     87  O         28.2180   -1.1930   13.6250 O.2   252  PHE252     -0.2867
     88  CB        25.3650   -2.5320   12.7760 C.3   252  PHE252      0.0534
     89  CG        24.1370   -3.1580   13.4010 C.ar  252  PHE252     -0.0203
     90  CD1       23.8270   -2.9460   14.7420 C.ar  252  PHE252     -0.0042
     91  CD2       23.2910   -3.9650   12.6490 C.ar  252  PHE252     -0.0042
     92  CE1       22.6690   -3.5050   15.3070 C.ar  252  PHE252     -0.0003
     93  CE2       22.1560   -4.5470   13.2230 C.ar  252  PHE252     -0.0003
     94  CZ        21.8360   -4.2870   14.5390 C.ar  252  PHE252     -0.0000
     95  N         28.2110   -8.4140   11.7610 N.3   270  LEU270     -0.1245
     96  CA        27.0620   -7.5270   11.9370 C.3   270  LEU270      0.1561
     97  C         27.4590   -6.0510   11.9930 C.2   270  LEU270      0.2260
     98  O         26.7190   -5.1870   11.5160 O.2   270  LEU270     -0.2867
     99  CB        26.2970   -7.8910   13.2310 C.3   270  LEU270      0.0270
    100  CG        24.9620   -7.1610   13.4560 C.3   270  LEU270      0.0019
    101  CD1       23.9350   -7.6020   12.4300 C.3   270  LEU270      0.0001
    102  CD2       24.4270   -7.4020   14.8590 C.3   270  LEU270      0.0001
    103  N         24.9270   -8.8080    4.7980 N.3   279  ILE279     -0.1245
    104  CA        23.6010   -8.2560    5.1200 C.3   279  ILE279      0.1561
    105  C         22.4230   -9.1430    4.6680 C.2   279  ILE279      0.2260
    106  O         21.6400   -9.5410    5.5410 O.2   279  ILE279     -0.2867
    107  CB        23.4270   -6.7430    4.7960 C.3   279  ILE279      0.0252
    108  CG1       24.2880   -5.8740    5.7610 C.3   279  ILE279      0.0019
    109  CG2       21.9120   -6.3130    4.8320 C.3   279  ILE279      0.0019
    110  CD1       24.5130   -4.4120    5.2660 C.3   279  ILE279      0.0001
    111  N         22.3090  -12.5050    6.6560 N.3   282  MET282     -0.1230
    112  CA        22.0950  -12.2430    8.0830 C.3   282  MET282      0.1702
    113  C         20.6540  -11.8310    8.3170 C.2   282  MET282      0.2592
    114  O         20.0490  -12.3170    9.2750 O.2   282  MET282     -0.2718
    115  CB        23.0780  -11.2190    8.6300 C.3   282  MET282      0.0401
    116  CG        24.5050  -11.7140    8.6210 C.3   282  MET282      0.0596
    117  SD        25.5980  -10.6900    9.6230 S.3   282  MET282     -0.1393
    118  CE        25.4150   -9.0190    8.7670 C.3   282  MET282      0.0692
    119  N         20.0710  -11.0270    7.3950 N.am  283  GLN283     -0.1979
    120  CA        18.6540  -10.6480    7.4640 C.3   283  GLN283      0.1601
    121  C         17.7510  -11.8920    7.4060 C.2   283  GLN283      0.2287
    122  O         16.7960  -11.9750    8.1740 O.2   283  GLN283     -0.2864
    123  CB        18.2620   -9.6430    6.3540 C.3   283  GLN283      0.0394
    124  CG        18.5730   -8.1750    6.6690 C.3   283  GLN283      0.0908
    125  CD        17.6550   -7.5890    7.7240 C.2   283  GLN283      0.2608
    126  OE1       17.6800   -7.9970    8.8720 O.2   283  GLN283     -0.2717
    127  NE2       16.8500   -6.5860    7.3750 N.am  283  GLN283     -0.0878
    128  N         18.1280  -13.9530   10.7140 N.3   286  PHE286     -0.1241
    129  CA        17.4420  -13.2100   11.7840 C.3   286  PHE286      0.1605
    130  C         15.9250  -13.2920   11.6710 C.2   286  PHE286      0.2264
    131  O         15.2590  -13.4830   12.6920 O.2   286  PHE286     -0.2867
    132  CB        17.9260  -11.7590   11.8310 C.3   286  PHE286      0.0534
    133  CG        17.3280  -10.8620   12.8870 C.ar  286  PHE286     -0.0203
    134  CD1       17.8060  -10.8830   14.1940 C.ar  286  PHE286     -0.0042
    135  CD2       16.3230   -9.9530   12.5630 C.ar  286  PHE286     -0.0042
    136  CE1       17.2740  -10.0240   15.1640 C.ar  286  PHE286     -0.0003
    137  CE2       15.7980   -9.0940   13.5340 C.ar  286  PHE286     -0.0003
    138  CZ        16.2740   -9.1400   14.8280 C.ar  286  PHE286     -0.0000
    139  N         15.0030  -17.0690   12.5780 N.3   289  ALA289     -0.1231
    140  CA        15.2600  -17.4330   13.9630 C.3   289  ALA289      0.1694
    141  C         14.5440  -16.5960   15.0240 C.2   289  ALA289      0.2591
    142  O         14.3060  -17.1000   16.1260 O.2   289  ALA289     -0.2718
    143  CB        16.7610  -17.4280   14.2240 C.3   289  ALA289      0.0304
    144  N         14.2450  -15.3230   14.7090 N.am  290  ILE290     -0.1980
    145  CA        13.6810  -14.3690   15.6470 C.3   290  ILE290      0.1595
    146  C         12.3030  -13.8550   15.2790 C.2   290  ILE290      0.2287
    147  O         11.4080  -13.8220   16.1340 O.2   290  ILE290     -0.2864
    148  CB        14.7100  -13.2080   15.8960 C.3   290  ILE290      0.0276
    149  CG1       15.9550  -13.6760   16.7140 C.3   290  ILE290      0.0022
    150  CG2       14.0810  -11.9120   16.4830 C.3   290  ILE290      0.0022
    151  CD1       15.6670  -14.1990   18.1850 C.3   290  ILE290      0.0001
@<TRIPOS>BOND
     1    58    56   am
     2    50    51    1
     3    52    51    1
     4    52    53    2
     5   105   104    1
     6   105   106    2
     7    54    51    1
     8    54    55    1
     9   107   109    1
    10   107   104    1
    11   107   108    1
    12   103   104    1
    13    56    55    1
    14    56    57    2
    15   110   108    1
    16    59    60    1
    17    71    68    1
    18   123   124    1
    19   123   120    1
    20   111   112    1
    21   124   125    1
    22    69    68    1
    23    69    70    2
    24    67    68    1
    25    67    61   am
    26    60    61    1
    27    60    63    1
    28   127   125   am
    29   119   120    1
    30   119   113   am
    31   121   120    1
    32   121   122    2
    33    61    62    2
    34    45    44    2
    35    83    80    1
    36   125   126    2
    37    64    63    1
    38    64    66    1
    39   112   113    1
    40   112   115    1
    41    63    65    1
    42    40    39    2
    43   113   114    2
    44    44    43    1
    45   116   115    1
    46   116   117    1
    47   118   117    1
    48    80    81    1
    49    80    79    1
    50    47    49    1
    51    47    46    1
    52    43    42    1
    53    43    46    1
    54    81    82    2
    55    39    42   am
    56    39    38    1
    57    79    74   am
    58    72    73    1
    59    46    48    1
    60    38    41    1
    61    38    37    1
    62    74    73    1
    63    74    75    2
    64   128   129    1
    65    76    73    1
    66    76    78    1
    67    76    77    1
    68    98    97    2
    69   130   129    1
    70   130   131    2
    71    95    96    1
    72   129   132    1
    73   132   133    1
    74    96    97    1
    75    96    99    1
    76   101   100    1
    77   135   133   ar
    78   135   137   ar
    79   139   140    1
    80    91    93   ar
    81    91    89   ar
    82     7     9   ar
    83     7     6   ar
    84    88    85    1
    85    88    89    1
    86    32    31    2
    87    86    85    1
    88    86    87    2
    89   133   134   ar
    90     9    11   ar
    91    84    85    1
    92    93    94   ar
    93    99   100    1
    94     5     6    1
    95     5     2    1
    96    89    90   ar
    97     1     2    1
    98   100   102    1
    99     6     8   ar
   100   137   138   ar
   101     2     3    1
   102    31    30    1
   103    11    12    1
   104    11    10   ar
   105   140   143    1
   106   140   141    1
   107   134   136   ar
   108     8    10   ar
   109    94    92   ar
   110   144   141   am
   111   144   145    1
   112    90    92   ar
   113   138   136   ar
   114     4     3    2
   115   141   142    2
   116    30    33    1
   117    30    29    1
   118   146   145    1
   119   146   147    2
   120    33    34    1
   121   145   148    1
   122   148   150    1
   123   148   149    1
   124    36    34    1
   125    34    35    1
   126   149   151    1
   127    20    18    1
   128    18    19    1
   129    18    17    1
   130    17    14    1
   131    26    28    1
   132    26    25    1
   133    14    13    1
   134    14    15    1
   135    16    15    2
   136    25    27    1
   137    25    22    1
   138    22    21    1
   139    22    23    1
   140    24    23    2
