@<TRIPOS>MOLECULE
tmp/3tggA00.pdb
 151 140 0 0 0
SMALL
GASTEIGER

@<TRIPOS>ATOM
      1  N         19.1250    4.6040   12.8740 N.3    77  TYR77      -0.1241
      2  CA        17.8640    3.8750   12.9710 C.3    77  TYR77       0.1605
      3  C         17.0630    4.1340   14.2560 C.2    77  TYR77       0.2264
      4  O         15.9060    4.5470   14.1600 O.2    77  TYR77      -0.2867
      5  CB        18.1090    2.3750   12.7160 C.3    77  TYR77       0.0534
      6  CG        16.9070    1.4780   12.9370 C.ar   77  TYR77      -0.0201
      7  CD1       15.7910    1.5580   12.1080 C.ar   77  TYR77      -0.0009
      8  CD2       16.9160    0.4960   13.9230 C.ar   77  TYR77      -0.0009
      9  CE1       14.6880    0.7340   12.3020 C.ar   77  TYR77       0.0417
     10  CE2       15.8170   -0.3410   14.1220 C.ar   77  TYR77       0.0417
     11  CZ        14.7190   -0.2400   13.2840 C.ar   77  TYR77       0.1957
     12  OH        13.6470   -1.0860   13.4240 O.3    77  TYR77      -0.2866
     13  N         15.8250   -7.9270   22.6560 N.3   191  LEU191     -0.1245
     14  CA        15.6610   -9.1860   21.9170 C.3   191  LEU191      0.1561
     15  C         16.0770  -10.4330   22.7150 C.2   191  LEU191      0.2260
     16  O         15.5100  -11.4910   22.4820 O.2   191  LEU191     -0.2867
     17  CB        16.3550   -9.1590   20.5510 C.3   191  LEU191      0.0270
     18  CG        15.5900   -8.5040   19.3870 C.3   191  LEU191      0.0019
     19  CD1       16.4220   -8.5280   18.1130 C.3   191  LEU191      0.0001
     20  CD2       14.2640   -9.2160   19.1140 C.3   191  LEU191      0.0001
     21  N         13.7100  -13.7750   23.0920 N.3   195  ILE195     -0.1245
     22  CA        14.1370  -15.1650   22.8490 C.3   195  ILE195      0.1561
     23  C         13.8950  -16.0240   24.0990 C.2   195  ILE195      0.2260
     24  O         13.4530  -17.1670   23.9800 O.2   195  ILE195     -0.2867
     25  CB        15.6300  -15.2340   22.4040 C.3   195  ILE195      0.0252
     26  CG1       15.8370  -14.5290   21.0510 C.3   195  ILE195      0.0019
     27  CG2       16.1550  -16.6970   22.3680 C.3   195  ILE195      0.0019
     28  CD1       17.1940  -13.9240   20.9710 C.3   195  ILE195      0.0001
     29  N          9.9620   -4.6590   15.5880 N.3   231  LEU231     -0.1245
     30  CA        10.5840   -5.2180   14.3780 C.3   231  LEU231      0.1561
     31  C          9.7750   -4.9870   13.1120 C.2   231  LEU231      0.2260
     32  O         10.2120   -5.4180   12.0440 O.2   231  LEU231     -0.2867
     33  CB        10.7460   -6.7420   14.5480 C.3   231  LEU231      0.0270
     34  CG        11.7030   -7.2120   15.6550 C.3   231  LEU231      0.0019
     35  CD1       11.5820   -8.6930   15.8550 C.3   231  LEU231      0.0001
     36  CD2       13.1500   -6.7940   15.3560 C.3   231  LEU231      0.0001
     37  N          9.1850   -2.8650   10.8600 N.3   233  ALA233     -0.1231
     38  CA         9.7230   -2.2830    9.6310 C.3   233  ALA233      0.1694
     39  C         10.0910   -3.4260    8.6560 C.2   233  ALA233      0.2591
     40  O          9.9850   -3.2590    7.4450 O.2   233  ALA233     -0.2718
     41  CB        10.9440   -1.4360    9.9420 C.3   233  ALA233      0.0304
     42  N         10.4360   -4.6130    9.2080 N.am  234  ILE234     -0.1980
     43  CA        10.7750   -5.8120    8.4290 C.3   234  ILE234      0.1595
     44  C          9.5850   -6.3850    7.6580 C.2   234  ILE234      0.2287
     45  O          9.7950   -7.2280    6.7950 O.2   234  ILE234     -0.2864
     46  CB        11.4980   -6.8810    9.2990 C.3   234  ILE234      0.0276
     47  CG1       12.6430   -7.5670    8.4910 C.3   234  ILE234      0.0022
     48  CG2       10.5210   -7.8960    9.9350 C.3   234  ILE234      0.0022
     49  CD1       13.8210   -8.0770    9.3870 C.3   234  ILE234      0.0001
     50  N         10.6510   -1.1940    3.3900 N.3   241  GLN241     -0.1245
     51  CA        11.4730   -2.0860    4.2300 C.3   241  GLN241      0.1566
     52  C         12.9570   -1.9820    3.8250 C.2   241  GLN241      0.2260
     53  O         13.8310   -2.0180    4.6880 O.2   241  GLN241     -0.2867
     54  CB        10.9690   -3.5430    4.0940 C.3   241  GLN241      0.0367
     55  CG        11.7040   -4.5850    4.9670 C.3   241  GLN241      0.0905
     56  CD        13.0250   -5.0970    4.4090 C.2   241  GLN241      0.2608
     57  OE1       13.8930   -5.5400    5.1560 O.2   241  GLN241     -0.2717
     58  NE2       13.2320   -5.0260    3.0920 N.am  241  GLN241     -0.0878
     59  N         14.5210    1.2860    5.1920 N.3   244  ILE244     -0.1231
     60  CA        14.7560    1.1860    6.6320 C.3   244  ILE244      0.1692
     61  C         15.9270    0.2210    6.9140 C.2   244  ILE244      0.2591
     62  O         16.7430    0.5250    7.7870 O.2   244  ILE244     -0.2718
     63  CB        13.4650    0.8660    7.4540 C.3   244  ILE244      0.0266
     64  CG1       12.3640    1.9450    7.2120 C.3   244  ILE244      0.0019
     65  CG2       13.7930    0.7690    8.9510 C.3   244  ILE244      0.0020
     66  CD1       10.9130    1.5580    7.5690 C.3   244  ILE244      0.0001
     67  N         16.0360   -0.9170    6.1610 N.am  245  ALA245     -0.1980
     68  CA        17.1470   -1.8780    6.3440 C.3   245  ALA245      0.1597
     69  C         18.5020   -1.1880    6.1190 C.2   245  ALA245      0.2287
     70  O         19.4770   -1.4930    6.8190 O.2   245  ALA245     -0.2864
     71  CB        16.9970   -3.0670    5.4010 C.3   245  ALA245      0.0319
     72  N         19.1640    0.5960    9.3560 N.3   248  VAL248     -0.1231
     73  CA        19.5330   -0.4310   10.3410 C.3   248  VAL248      0.1692
     74  C         21.0260   -0.7710   10.1410 C.2   248  VAL248      0.2591
     75  O         21.7950   -0.7430   11.1050 O.2   248  VAL248     -0.2718
     76  CB        18.6470   -1.7090   10.2360 C.3   248  VAL248      0.0266
     77  CG1       19.1320   -2.7930   11.1900 C.3   248  VAL248      0.0020
     78  CG2       17.1720   -1.4020   10.4980 C.3   248  VAL248      0.0020
     79  N         21.4120   -1.0840    8.8870 N.am  249  ALA249     -0.1980
     80  CA        22.7930   -1.4270    8.5020 C.3   249  ALA249      0.1597
     81  C         23.7510   -0.2770    8.7960 C.2   249  ALA249      0.2287
     82  O         24.8260   -0.5260    9.3360 O.2   249  ALA249     -0.2864
     83  CB        22.8620   -1.7970    7.0280 C.3   249  ALA249      0.0319
     84  N         24.4570   -0.1720   12.5170 N.3   252  PHE252     -0.1241
     85  CA        25.3330   -1.2850   12.8780 C.3   252  PHE252      0.1605
     86  C         26.7700   -1.0200   12.4340 C.2   252  PHE252      0.2264
     87  O         27.7040   -1.2420   13.2140 O.2   252  PHE252     -0.2867
     88  CB        24.8170   -2.6090   12.2740 C.3   252  PHE252      0.0534
     89  CG        23.5610   -3.1900   12.8970 C.ar  252  PHE252     -0.0203
     90  CD1       23.1780   -2.8470   14.1920 C.ar  252  PHE252     -0.0042
     91  CD2       22.7770   -4.0970   12.1990 C.ar  252  PHE252     -0.0042
     92  CE1       22.0270   -3.3960   14.7680 C.ar  252  PHE252     -0.0003
     93  CE2       21.6330   -4.6540   12.7820 C.ar  252  PHE252     -0.0003
     94  CZ        21.2610   -4.2910   14.0550 C.ar  252  PHE252     -0.0000
     95  N         27.7390   -8.4970   11.5600 N.3   270  LEU270     -0.1245
     96  CA        26.5860   -7.6020   11.6790 C.3   270  LEU270      0.1561
     97  C         26.9850   -6.1160   11.7240 C.2   270  LEU270      0.2260
     98  O         26.3010   -5.2780   11.1290 O.2   270  LEU270     -0.2867
     99  CB        25.7660   -7.9450   12.9380 C.3   270  LEU270      0.0270
    100  CG        24.4090   -7.2330   13.0570 C.3   270  LEU270      0.0019
    101  CD1       23.4240   -7.7300   12.0240 C.3   270  LEU270      0.0001
    102  CD2       23.8550   -7.3670   14.4270 C.3   270  LEU270      0.0001
    103  N         24.5640   -9.1720    4.5780 N.3   279  ILE279     -0.1245
    104  CA        23.2340   -8.6020    4.8510 C.3   279  ILE279      0.1561
    105  C         22.0490   -9.4500    4.3430 C.2   279  ILE279      0.2260
    106  O         21.2110   -9.8240    5.1760 O.2   279  ILE279     -0.2867
    107  CB        23.1190   -7.0880    4.5090 C.3   279  ILE279      0.0252
    108  CG1       23.9270   -6.2310    5.5260 C.3   279  ILE279      0.0019
    109  CG2       21.6350   -6.6220    4.4340 C.3   279  ILE279      0.0019
    110  CD1       24.2560   -4.7890    5.0220 C.3   279  ILE279      0.0001
    111  N         21.9110  -12.8720    6.0990 N.3   282  MET282     -0.1230
    112  CA        21.6330  -12.6240    7.5130 C.3   282  MET282      0.1702
    113  C         20.1870  -12.1790    7.7260 C.2   282  MET282      0.2592
    114  O         19.5810  -12.6210    8.6960 O.2   282  MET282     -0.2718
    115  CB        22.6290  -11.6430    8.1260 C.3   282  MET282      0.0401
    116  CG        23.9490  -12.2970    8.4640 C.3   282  MET282      0.0596
    117  SD        25.0800  -11.1210    9.2210 S.3   282  MET282     -0.1393
    118  CE        24.5400  -11.2120   10.8830 C.3   282  MET282      0.0692
    119  N         19.6170  -11.3550    6.8080 N.am  283  GLN283     -0.1979
    120  CA        18.2120  -10.9340    6.8860 C.3   283  GLN283      0.1601
    121  C         17.2840  -12.1470    6.7720 C.2   283  GLN283      0.2287
    122  O         16.3120  -12.2290    7.5260 O.2   283  GLN283     -0.2864
    123  CB        17.8450   -9.8960    5.8030 C.3   283  GLN283      0.0394
    124  CG        18.1500   -8.4330    6.1650 C.3   283  GLN283      0.0908
    125  CD        17.1920   -7.8640    7.1910 C.2   283  GLN283      0.2608
    126  OE1       17.1200   -8.3270    8.3260 O.2   283  GLN283     -0.2717
    127  NE2       16.4670   -6.8150    6.8320 N.am  283  GLN283     -0.0878
    128  N         17.4970  -14.1920   10.0740 N.3   286  PHE286     -0.1241
    129  CA        16.8330  -13.4220   11.1400 C.3   286  PHE286      0.1605
    130  C         15.3060  -13.4420   11.0010 C.2   286  PHE286      0.2264
    131  O         14.6070  -13.6280   11.9920 O.2   286  PHE286     -0.2867
    132  CB        17.3680  -11.9930   11.1570 C.3   286  PHE286      0.0534
    133  CG        16.8250  -11.1020   12.2500 C.ar  286  PHE286     -0.0203
    134  CD1       17.3860  -11.1140   13.5240 C.ar  286  PHE286     -0.0042
    135  CD2       15.8030  -10.1960   11.9860 C.ar  286  PHE286     -0.0042
    136  CE1       16.8990  -10.2670   14.5280 C.ar  286  PHE286     -0.0003
    137  CE2       15.3300   -9.3370   12.9880 C.ar  286  PHE286     -0.0003
    138  CZ        15.9000   -9.3630   14.2430 C.ar  286  PHE286     -0.0000
    139  N         14.3200  -17.1430   11.8410 N.3   289  ALA289     -0.1231
    140  CA        14.5390  -17.5190   13.2490 C.3   289  ALA289      0.1694
    141  C         13.8280  -16.6780   14.2720 C.2   289  ALA289      0.2591
    142  O         13.4620  -17.1960   15.3280 O.2   289  ALA289     -0.2718
    143  CB        16.0300  -17.5350   13.5600 C.3   289  ALA289      0.0304
    144  N         13.7220  -15.3640   14.0170 N.am  290  ILE290     -0.1980
    145  CA        13.1760  -14.4070   14.9750 C.3   290  ILE290      0.1595
    146  C         11.7750  -13.9060   14.6360 C.2   290  ILE290      0.2287
    147  O         10.9070  -13.8510   15.5150 O.2   290  ILE290     -0.2864
    148  CB        14.1830  -13.2210   15.1770 C.3   290  ILE290      0.0276
    149  CG1       15.5560  -13.6860   15.7510 C.3   290  ILE290      0.0022
    150  CG2       13.5850  -12.0270   15.9620 C.3   290  ILE290      0.0022
    151  CD1       15.5870  -14.1190   17.2800 C.3   290  ILE290      0.0001
@<TRIPOS>BOND
     1    58    56   am
     2    50    51    1
     3    52    51    1
     4    52    53    2
     5    54    51    1
     6    54    55    1
     7   105   104    1
     8   105   106    2
     9    56    55    1
    10    56    57    2
    11   109   107    1
    12   107   104    1
    13   107   108    1
    14   103   104    1
    15   110   108    1
    16    59    60    1
    17    71    68    1
    18   123   124    1
    19   123   120    1
    20   111   112    1
    21    69    68    1
    22    69    70    2
    23    67    68    1
    24    67    61   am
    25   124   125    1
    26    60    61    1
    27    60    63    1
    28   121   120    1
    29   121   122    2
    30    45    44    2
    31   119   120    1
    32   119   113   am
    33   127   125   am
    34    61    62    2
    35    83    80    1
    36   125   126    2
    37    64    63    1
    38    64    66    1
    39    40    39    2
    40    63    65    1
    41   112   113    1
    42   112   115    1
    43    44    43    1
    44   113   114    2
    45   115   116    1
    46    43    42    1
    47    43    46    1
    48   116   117    1
    49    47    46    1
    50    47    49    1
    51    80    81    1
    52    80    79    1
    53    39    42   am
    54    39    38    1
    55    81    82    2
    56    79    74   am
    57   117   118    1
    58    46    48    1
    59    72    73    1
    60    38    41    1
    61    38    37    1
    62   128   129    1
    63    74    73    1
    64    74    75    2
    65    76    73    1
    66    76    78    1
    67    76    77    1
    68   130   129    1
    69   130   131    2
    70    98    97    2
    71   129   132    1
    72   132   133    1
    73    95    96    1
    74    96    97    1
    75    96    99    1
    76   139   140    1
    77   135   133   ar
    78   135   137   ar
    79   101   100    1
    80    32    31    2
    81     7     9   ar
    82     7     6   ar
    83    91    93   ar
    84    91    89   ar
    85   133   134   ar
    86    88    85    1
    87    88    89    1
    88     9    11   ar
    89    86    85    1
    90    86    87    2
    91    84    85    1
    92     5     6    1
    93     5     2    1
    94    93    94   ar
    95     1     2    1
    96    89    90   ar
    97     6     8   ar
    98    99   100    1
    99     2     3    1
   100   137   138   ar
   101   100   102    1
   102    31    30    1
   103   140   143    1
   104   140   141    1
   105    11    12    1
   106    11    10   ar
   107   134   136   ar
   108     8    10   ar
   109   144   141   am
   110   144   145    1
   111    94    92   ar
   112     4     3    2
   113    90    92   ar
   114   138   136   ar
   115   141   142    2
   116    30    33    1
   117    30    29    1
   118    33    34    1
   119   146   145    1
   120   146   147    2
   121   145   148    1
   122   148   149    1
   123   148   150    1
   124    36    34    1
   125    34    35    1
   126   149   151    1
   127    19    18    1
   128    20    18    1
   129    18    17    1
   130    17    14    1
   131    28    26    1
   132    26    25    1
   133    14    13    1
   134    14    15    1
   135    27    25    1
   136    25    22    1
   137    16    15    2
   138    22    21    1
   139    22    23    1
   140    24    23    2
