@<TRIPOS>MOLECULE
tmp/3tgmA02.pdb
 116 116 0 0 0
SMALL
GASTEIGER

@<TRIPOS>ATOM
      1  N        -23.0230   -4.7320   22.2350 N.3    53  GLU53      -0.1245
      2  CA       -21.8100   -4.2930   22.9240 C.3    53  GLU53       0.1567
      3  C        -22.1010   -3.6420   24.2730 C.2    53  GLU53       0.2260
      4  O        -21.2870   -3.7300   25.1920 O.2    53  GLU53      -0.2867
      5  CB       -20.9890   -3.3650   22.0300 C.3    53  GLU53       0.0388
      6  CG       -20.4780   -4.0550   20.7740 C.3    53  GLU53       0.1160
      7  CD       -19.5170   -3.2100   19.9570 C.2    53  GLU53       0.3649
      8  OE1      -19.0130   -2.1750   20.4580 O.co2  53  GLU53      -0.2457
      9  OE2      -19.2600   -3.6000   18.8010 O.co2  53  GLU53      -0.2457
     10  N        -22.6760   -6.6120   26.4470 N.3    56  ILE56      -0.1231
     11  CA       -21.3960   -7.3070   26.6190 C.3    56  ILE56       0.1692
     12  C        -20.5240   -6.6120   27.6740 C.2    56  ILE56       0.2591
     13  O        -19.8910   -7.2770   28.5010 O.2    56  ILE56      -0.2718
     14  CB       -20.6490   -7.4970   25.2680 C.3    56  ILE56       0.0266
     15  CG1      -21.2030   -8.7290   24.5370 C.3    56  ILE56       0.0019
     16  CG2      -19.1410   -7.6370   25.4800 C.3    56  ILE56       0.0020
     17  CD1      -20.7350   -8.8890   23.0910 C.3    56  ILE56       0.0001
     18  N        -20.5200   -5.2790   27.6560 N.am   57  GLU57      -0.1979
     19  CA       -19.8050   -4.4940   28.6650 C.3    57  GLU57       0.1602
     20  C        -20.3750   -4.6690   30.0750 C.2    57  GLU57       0.2287
     21  O        -19.6280   -4.6270   31.0520 O.2    57  GLU57      -0.2864
     22  CB       -19.7660   -3.0130   28.2870 C.3    57  GLU57       0.0415
     23  CG       -18.7370   -2.6700   27.2140 C.3    57  GLU57       0.1163
     24  CD       -17.2960   -2.8200   27.6880 C.2    57  GLU57       0.3649
     25  OE1      -16.9860   -2.4040   28.8300 O.co2  57  GLU57      -0.2457
     26  OE2      -16.4680   -3.3450   26.9080 O.co2  57  GLU57      -0.2457
     27  N        -19.5430  -15.2510   30.3140 N.3    65  PHE65      -0.1241
     28  CA       -19.0990  -14.5930   29.0820 C.3    65  PHE65       0.1605
     29  C        -17.5990  -14.2520   29.0560 C.2    65  PHE65       0.2264
     30  O        -17.0070  -14.1370   27.9790 O.2    65  PHE65      -0.2867
     31  CB       -19.9350  -13.3340   28.8060 C.3    65  PHE65       0.0534
     32  CG       -19.7560  -12.7810   27.4160 C.ar   65  PHE65      -0.0203
     33  CD1      -20.5010  -13.2810   26.3540 C.ar   65  PHE65      -0.0042
     34  CD2      -18.8340  -11.7690   27.1650 C.ar   65  PHE65      -0.0042
     35  CE1      -20.3340  -12.7840   25.0700 C.ar   65  PHE65      -0.0003
     36  CE2      -18.6580  -11.2700   25.8810 C.ar   65  PHE65      -0.0003
     37  CZ       -19.4080  -11.7800   24.8330 C.ar   65  PHE65      -0.0000
     38  N        -14.9980  -15.4860   26.2850 N.3    68  VAL68      -0.1231
     39  CA       -15.1830  -15.0690   24.8830 C.3    68  VAL68       0.1692
     40  C        -15.1320  -13.5490   24.6700 C.2    68  VAL68       0.2592
     41  O        -15.4200  -13.0560   23.5760 O.2    68  VAL68      -0.2718
     42  CB       -16.4820  -15.6580   24.2470 C.3    68  VAL68       0.0266
     43  CG1      -16.3720  -17.1670   24.0850 C.3    68  VAL68       0.0020
     44  CG2      -17.7120  -15.2900   25.0540 C.3    68  VAL68       0.0020
     45  N        -14.7560  -12.8180   25.7170 N.am   69  TYR69      -0.1962
     46  CA       -14.6850  -11.3590   25.6730 C.3    69  TYR69       0.1771
     47  C        -13.4160  -10.9080   24.9550 C.2    69  TYR69       0.2620
     48  O        -12.2990  -11.1370   25.4360 O.2    69  TYR69      -0.2715
     49  CB       -14.7630  -10.7850   27.0950 C.3    69  TYR69       0.0574
     50  CG       -14.6740   -9.2770   27.1940 C.ar   69  TYR69      -0.0198
     51  CD1      -15.5830   -8.4560   26.5270 C.ar   69  TYR69      -0.0009
     52  CD2      -13.6900   -8.6700   27.9760 C.ar   69  TYR69      -0.0009
     53  CE1      -15.5040   -7.0680   26.6220 C.ar   69  TYR69       0.0417
     54  CE2      -13.6060   -7.2880   28.0790 C.ar   69  TYR69       0.0417
     55  CZ       -14.5160   -6.4940   27.3990 C.ar   69  TYR69       0.1957
     56  OH       -14.4350   -5.1250   27.4920 O.3    69  TYR69      -0.2866
     57  N        -13.6000  -10.2880   23.7900 N.am   70  PHE70      -0.1960
     58  CA       -12.4930   -9.7860   22.9760 C.3    70  PHE70       0.1756
     59  C        -12.7800   -8.3560   22.5140 C.2    70  PHE70       0.2461
     60  O        -12.9920   -8.1280   21.3210 O.2    70  PHE70      -0.2730
     61  CB       -12.2690  -10.6880   21.7560 C.3    70  PHE70       0.0574
     62  CG       -11.6740  -12.0330   22.0820 C.ar   70  PHE70      -0.0200
     63  CD1      -10.3000  -12.2340   22.0130 C.ar   70  PHE70      -0.0042
     64  CD2      -12.4880  -13.1060   22.4300 C.ar   70  PHE70      -0.0042
     65  CE1       -9.7450  -13.4820   22.3020 C.ar   70  PHE70      -0.0003
     66  CE2      -11.9470  -14.3510   22.7250 C.ar   70  PHE70      -0.0003
     67  CZ       -10.5750  -14.5410   22.6600 C.ar   70  PHE70      -0.0000
     68  N        -12.7680   -7.3850   23.4530 N.am   71  PRO71      -0.2727
     69  CA       -13.2090   -6.0150   23.1670 C.3    71  PRO71       0.1402
     70  C        -12.5010   -5.3800   21.9720 C.2    71  PRO71       0.2269
     71  O        -13.1590   -4.9500   21.0250 O.2    71  PRO71      -0.2865
     72  CB       -12.8670   -5.2550   24.4560 C.3    71  PRO71       0.0296
     73  CG       -11.8360   -6.0760   25.1280 C.3    71  PRO71       0.0237
     74  CD       -12.1810   -7.4900   24.8010 C.3    71  PRO71       0.0939
     75  N        -12.9050   -7.1550   18.2260 N.3    74  LEU74      -0.1231
     76  CA       -14.2070   -7.3300   17.5930 C.3    74  LEU74       0.1693
     77  C        -15.1510   -6.1170   17.6010 C.2    74  LEU74       0.2592
     78  O        -16.0900   -6.0770   16.8140 O.2    74  LEU74      -0.2718
     79  CB       -14.9100   -8.5610   18.1840 C.3    74  LEU74       0.0284
     80  CG       -14.3850   -9.9590   17.8250 C.3    74  LEU74       0.0019
     81  CD1      -15.0450  -11.0130   18.6970 C.3    74  LEU74       0.0001
     82  CD2      -14.5890  -10.2880   16.3510 C.3    74  LEU74       0.0001
     83  N        -14.9080   -5.1320   18.4620 N.am   75  HIS75      -0.1976
     84  CA       -15.8360   -3.9980   18.5860 C.3    75  HIS75       0.1656
     85  C        -16.1700   -3.3280   17.2390 C.2    75  HIS75       0.2291
     86  O        -15.2830   -2.9640   16.4550 O.2    75  HIS75      -0.2864
     87  CB       -15.3780   -2.9930   19.6540 C.3    75  HIS75       0.0771
     88  CG       -14.4220   -1.9540   19.1570 C.ar   75  HIS75       0.0820
     89  ND1      -13.0990   -2.2280   18.8820 N.ar   75  HIS75      -0.2267
     90  CD2      -14.5950   -0.6340   18.9040 C.ar   75  HIS75       0.1154
     91  CE1      -12.5000   -1.1230   18.4730 C.ar   75  HIS75       0.1986
     92  NE2      -13.3850   -0.1410   18.4790 N.ar   75  HIS75      -0.2212
     93  N        -20.8880  -11.8620   15.6420 N.3   128  TYR128     -0.1241
     94  CA       -19.4510  -11.7250   15.4040 C.3   128  TYR128      0.1605
     95  C        -18.8860  -12.7780   14.4600 C.2   128  TYR128      0.2264
     96  O        -18.3140  -12.4390   13.4270 O.2   128  TYR128     -0.2867
     97  CB       -18.6710  -11.7270   16.7210 C.3   128  TYR128      0.0534
     98  CG       -18.8240  -10.4600   17.5200 C.ar  128  TYR128     -0.0201
     99  CD1      -18.4680   -9.2270   16.9770 C.ar  128  TYR128     -0.0009
    100  CD2      -19.3010  -10.4930   18.8270 C.ar  128  TYR128     -0.0009
    101  CE1      -18.6020   -8.0580   17.7060 C.ar  128  TYR128      0.0417
    102  CE2      -19.4450   -9.3250   19.5690 C.ar  128  TYR128      0.0417
    103  CZ       -19.0890   -8.1140   18.9980 C.ar  128  TYR128      0.1957
    104  OH       -19.2180   -6.9510   19.7130 O.3   128  TYR128     -0.2866
    105  N        -11.6450  -18.2980   18.8730 N.3   173  TYR173     -0.1241
    106  CA       -12.9630  -17.9590   19.4170 C.3   173  TYR173      0.1605
    107  C        -13.8010  -19.2050   19.7110 C.2   173  TYR173      0.2264
    108  O        -14.5470  -19.2370   20.6920 O.2   173  TYR173     -0.2867
    109  CB       -13.7180  -17.0000   18.4890 C.3   173  TYR173      0.0534
    110  CG       -14.9070  -16.3200   19.1420 C.ar  173  TYR173     -0.0201
    111  CD1      -14.7630  -15.1010   19.8060 C.ar  173  TYR173     -0.0009
    112  CD2      -16.1770  -16.8960   19.0950 C.ar  173  TYR173     -0.0009
    113  CE1      -15.8530  -14.4760   20.4080 C.ar  173  TYR173      0.0417
    114  CE2      -17.2730  -16.2800   19.6930 C.ar  173  TYR173      0.0417
    115  CZ       -17.1040  -15.0740   20.3450 C.ar  173  TYR173      0.1957
    116  OH       -18.1910  -14.4710   20.9330 O.3   173  TYR173     -0.2866
@<TRIPOS>BOND
     1    96    95    2
     2    95    94    1
     3    94    93    1
     4    94    97    1
     5    82    80    1
     6    86    85    2
     7    97    98    1
     8    78    77    2
     9    99    98   ar
    10    99   101   ar
    11    85    84    1
    12    98   100   ar
    13    76    77    1
    14    76    79    1
    15    76    75    1
    16    77    83   am
    17   101   103   ar
    18    80    79    1
    19    80    81    1
    20    83    84    1
    21    91    92   ar
    22    91    89   ar
    23    92    90   ar
    24   109   110    1
    25   109   106    1
    26    84    87    1
    27     9     7   ar
    28   100   102   ar
    29   105   106    1
    30    89    88   ar
    31    90    88   ar
    32   103   102   ar
    33   103   104    1
    34   112   110   ar
    35   112   114   ar
    36   110   111   ar
    37    88    87    1
    38   106   107    1
    39   114   115   ar
    40   107   108    2
    41   111   113   ar
    42     7     8   ar
    43     7     6    1
    44   115   113   ar
    45   115   116    1
    46     6     5    1
    47    71    70    2
    48    60    59    2
    49    61    62    1
    50    61    58    1
    51    70    69    1
    52    63    62   ar
    53    63    65   ar
    54     5     2    1
    55    62    64   ar
    56     1     2    1
    57    65    67   ar
    58    64    66   ar
    59    59    58    1
    60    59    68   am
    61    67    66   ar
    62     2     3    1
    63    58    57    1
    64    17    15    1
    65    69    68    1
    66    69    72    1
    67    68    74    1
    68    41    40    2
    69    57    47   am
    70    43    42    1
    71    42    39    1
    72    42    44    1
    73     3     4    2
    74    72    73    1
    75    15    14    1
    76    40    39    1
    77    40    45   am
    78    74    73    1
    79    37    35   ar
    80    37    36   ar
    81    39    38    1
    82    47    48    2
    83    47    46    1
    84    35    33   ar
    85    14    16    1
    86    14    11    1
    87    46    45    1
    88    46    49    1
    89    36    34   ar
    90    33    32   ar
    91    10    11    1
    92    51    53   ar
    93    51    50   ar
    94    11    12    1
    95    53    55   ar
    96    26    24   ar
    97    49    50    1
    98    34    32   ar
    99    50    52   ar
   100    23    24    1
   101    23    22    1
   102    55    56    1
   103    55    54   ar
   104    32    31    1
   105    18    12   am
   106    18    19    1
   107    12    13    2
   108    24    25   ar
   109    52    54   ar
   110    30    29    2
   111    22    19    1
   112    19    20    1
   113    31    28    1
   114    29    28    1
   115    28    27    1
   116    20    21    2
