@<TRIPOS>MOLECULE
tmp/3tgmA01.pdb
 186 178 0 0 0
SMALL
GASTEIGER

@<TRIPOS>ATOM
      1  N        -29.9550  -21.3800    8.8970 N.3    16  HIS16      -0.1241
      2  CA       -28.9530  -20.6840    8.0940 C.3    16  HIS16       0.1621
      3  C        -29.2980  -20.7620    6.6050 C.2    16  HIS16       0.2264
      4  O        -29.0760  -19.8040    5.8620 O.2    16  HIS16      -0.2867
      5  CB       -27.5550  -21.2550    8.3600 C.3    16  HIS16       0.0745
      6  CG       -26.4490  -20.4790    7.7140 C.ar   16  HIS16       0.0817
      7  ND1      -25.9440  -20.8000    6.4720 N.ar   16  HIS16      -0.2268
      8  CD2      -25.7510  -19.3980    8.1360 C.ar   16  HIS16       0.1154
      9  CE1      -24.9830  -19.9510    6.1580 C.ar   16  HIS16       0.1986
     10  NE2      -24.8480  -19.0880    7.1490 N.ar   16  HIS16      -0.2212
     11  N        -34.1330  -10.6140    0.4150 N.3    24  PHE24      -0.1227
     12  CA       -33.0980   -9.5810    0.3510 C.3    24  PHE24       0.1736
     13  C        -31.7400  -10.1610   -0.0490 C.2    24  PHE24       0.2595
     14  O        -31.0890   -9.6570   -0.9690 O.2    24  PHE24      -0.2718
     15  CB       -32.9860   -8.8590    1.7000 C.3    24  PHE24       0.0547
     16  CG       -32.0840   -7.6510    1.6780 C.ar   24  PHE24      -0.0202
     17  CD1      -30.7040   -7.7890    1.8210 C.ar   24  PHE24      -0.0042
     18  CD2      -32.6140   -6.3750    1.5280 C.ar   24  PHE24      -0.0042
     19  CE1      -29.8640   -6.6750    1.8020 C.ar   24  PHE24      -0.0003
     20  CE2      -31.7830   -5.2560    1.5110 C.ar   24  PHE24      -0.0003
     21  CZ       -30.4060   -5.4070    1.6460 C.ar   24  PHE24      -0.0000
     22  N        -31.3280  -11.2190    0.6500 N.am   25  MET25      -0.1979
     23  CA       -30.0190  -11.8460    0.4470 C.3    25  MET25       0.1605
     24  C        -29.9630  -12.6710   -0.8320 C.2    25  MET25       0.2287
     25  O        -28.8780  -12.9650   -1.3400 O.2    25  MET25      -0.2864
     26  CB       -29.6350  -12.7160    1.6480 C.3    25  MET25       0.0413
     27  CG       -29.6110  -11.9820    2.9860 C.3    25  MET25       0.0598
     28  SD       -28.6810  -10.4350    2.9780 S.3    25  MET25      -0.1393
     29  CE       -26.9930  -11.0160    2.8440 C.3    25  MET25       0.0692
     30  N        -29.0060   -9.9350   -2.9750 N.3    28  PHE28      -0.1241
     31  CA       -27.6620   -9.4900   -2.6040 C.3    28  PHE28       0.1605
     32  C        -26.5730  -10.3590   -3.2290 C.2    28  PHE28       0.2264
     33  O        -25.5600   -9.8390   -3.6990 O.2    28  PHE28      -0.2867
     34  CB       -27.4920   -9.4430   -1.0800 C.3    28  PHE28       0.0534
     35  CG       -26.3660   -8.5560   -0.6250 C.ar   28  PHE28      -0.0203
     36  CD1      -25.0640   -9.0380   -0.5510 C.ar   28  PHE28      -0.0042
     37  CD2      -26.6080   -7.2320   -0.2780 C.ar   28  PHE28      -0.0042
     38  CE1      -24.0200   -8.2140   -0.1400 C.ar   28  PHE28      -0.0003
     39  CE2      -25.5680   -6.4010    0.1350 C.ar   28  PHE28      -0.0003
     40  CZ       -24.2730   -6.8940    0.2030 C.ar   28  PHE28      -0.0000
     41  N        -28.7220   -0.8400    1.2610 N.3    38  PHE38      -0.1241
     42  CA       -27.4810   -0.9080    2.0210 C.3    38  PHE38       0.1605
     43  C        -27.5270   -0.0160    3.2600 C.2    38  PHE38       0.2264
     44  O        -27.1060   -0.4350    4.3360 O.2    38  PHE38      -0.2867
     45  CB       -26.2930   -0.5310    1.1330 C.3    38  PHE38       0.0534
     46  CG       -24.9680   -0.9700    1.6790 C.ar   38  PHE38      -0.0203
     47  CD1      -24.5270   -2.2780    1.5020 C.ar   38  PHE38      -0.0042
     48  CD2      -24.1570   -0.0800    2.3720 C.ar   38  PHE38      -0.0042
     49  CE1      -23.2980   -2.6900    2.0050 C.ar   38  PHE38      -0.0003
     50  CE2      -22.9260   -0.4820    2.8780 C.ar   38  PHE38      -0.0003
     51  CZ       -22.4970   -1.7900    2.6950 C.ar   38  PHE38      -0.0000
     52  N        -29.3960   -1.7240    5.9530 N.3    41  VAL41      -0.1231
     53  CA       -28.5480   -2.7620    6.5350 C.3    41  VAL41       0.1692
     54  C        -27.5810   -2.1220    7.5300 C.2    41  VAL41       0.2591
     55  O        -27.5030   -2.5260    8.6920 O.2    41  VAL41      -0.2718
     56  CB       -27.7750   -3.5430    5.4300 C.3    41  VAL41       0.0266
     57  CG1      -26.6260   -4.3390    6.0140 C.3    41  VAL41       0.0020
     58  CG2      -28.7150   -4.4620    4.6720 C.3    41  VAL41       0.0020
     59  N        -26.8800   -1.0960    7.0570 N.am   42  MET42      -0.1979
     60  CA       -25.8800   -0.3820    7.8340 C.3    42  MET42       0.1605
     61  C        -26.4770    0.2090    9.1060 C.2    42  MET42       0.2287
     62  O        -25.8400    0.1960   10.1590 O.2    42  MET42      -0.2864
     63  CB       -25.2610    0.7240    6.9740 C.3    42  MET42       0.0413
     64  CG       -23.7480    0.7260    6.9670 C.3    42  MET42       0.0598
     65  SD       -23.1150   -0.8690    6.4240 S.3    42  MET42      -0.1393
     66  CE       -21.3460   -0.5670    6.4760 C.3    42  MET42       0.0692
     67  N        -29.2870   -0.9360   10.5450 N.3    44  SER44      -0.1202
     68  CA       -29.6950   -2.0970   11.3320 C.3    44  SER44       0.2020
     69  C        -28.5250   -2.6230   12.1550 C.2    44  SER44       0.2618
     70  O        -28.6480   -2.8330   13.3640 O.2    44  SER44      -0.2717
     71  CB       -30.2290   -3.2080   10.4250 C.3    44  SER44       0.2103
     72  OG       -31.4020   -2.8040    9.7460 O.3    44  SER44      -0.2182
     73  N        -27.3900   -2.8200   11.4870 N.am   45  LEU45      -0.1979
     74  CA       -26.1720   -3.2820   12.1380 C.3    45  LEU45       0.1596
     75  C        -25.7350   -2.3420   13.2530 C.2    45  LEU45       0.2287
     76  O        -25.1940   -2.7920   14.2580 O.2    45  LEU45      -0.2864
     77  CB       -25.0460   -3.4560   11.1210 C.3    45  LEU45       0.0297
     78  CG       -25.1370   -4.6380   10.1530 C.3    45  LEU45       0.0022
     79  CD1      -24.2270   -4.4070    8.9530 C.3    45  LEU45       0.0001
     80  CD2      -24.8060   -5.9610   10.8430 C.3    45  LEU45       0.0001
     81  N        -28.1010   -2.8590   16.4110 N.3    48  ILE48      -0.1245
     82  CA       -27.9110   -4.1950   16.9720 C.3    48  ILE48       0.1561
     83  C        -26.6020   -4.2910   17.7490 C.2    48  ILE48       0.2260
     84  O        -26.5850   -4.7770   18.8790 O.2    48  ILE48      -0.2867
     85  CB       -27.9540   -5.2870   15.8740 C.3    48  ILE48       0.0252
     86  CG1      -29.3500   -5.3700   15.2510 C.3    48  ILE48       0.0019
     87  CG2      -27.5550   -6.6490   16.4400 C.3    48  ILE48       0.0019
     88  CD1      -29.3570   -5.9720   13.8520 C.3    48  ILE48       0.0001
     89  N        -23.6760  -12.9750   15.6510 N.3   127  ARG127     -0.1245
     90  CA       -23.2590  -11.6830   15.1000 C.3   127  ARG127      0.1563
     91  C        -21.7890  -11.6410   14.6860 C.2   127  ARG127      0.2260
     92  O        -21.4850  -11.4190   13.5180 O.2   127  ARG127     -0.2867
     93  CB       -23.5600  -10.5510   16.0880 C.3   127  ARG127      0.0307
     94  CG       -25.0040  -10.0610   16.0810 C.3   127  ARG127      0.0489
     95  CD       -25.2000   -8.8550   15.1650 C.3   127  ARG127      0.2205
     96  NE       -24.7930   -9.1220   13.7890 N.pl3 127  ARG127     -0.0865
     97  CZ       -25.5740   -9.6590   12.8590 C.cat 127  ARG127      0.5346
     98  NH1      -26.8280   -9.9890   13.1410 N.pl3 127  ARG127      0.1354
     99  NH2      -25.0930   -9.8670   11.6400 N.pl3 127  ARG127      0.1354
    100  N        -20.4190  -14.7350   12.5810 N.3   130  GLY130     -0.1210
    101  CA       -21.1480  -14.6060   11.3250 C.3   130  GLY130      0.1956
    102  C        -20.5660  -13.5110   10.4550 C.2   130  GLY130      0.2611
    103  O        -20.1780  -13.7600    9.3130 O.2   130  GLY130     -0.2717
    104  N        -20.4870  -12.3020   11.0070 N.am  131  ASP131     -0.1973
    105  CA       -19.9950  -11.1340   10.2690 C.3   131  ASP131      0.1709
    106  C        -18.4840  -11.1920    9.9960 C.2   131  ASP131      0.2293
    107  O        -17.9680  -10.4660    9.1460 O.2   131  ASP131     -0.2864
    108  CB       -20.3880   -9.8310   10.9870 C.3   131  ASP131      0.1436
    109  CG       -21.9030   -9.5680   10.9630 C.2   131  ASP131      0.3671
    110  OD1      -22.6540  -10.3140   10.2960 O.co2 131  ASP131     -0.2456
    111  OD2      -22.3500   -8.6020   11.6160 O.co2 131  ASP131     -0.2456
    112  N        -17.0960  -14.0480    9.0370 N.3   133  SER133     -0.1202
    113  CA       -16.9800  -15.0390    7.9770 C.3   133  SER133      0.2020
    114  C        -17.2790  -14.4420    6.6070 C.2   133  SER133      0.2619
    115  O        -16.5670  -14.7130    5.6410 O.2   133  SER133     -0.2717
    116  CB       -17.9140  -16.2210    8.2460 C.3   133  SER133      0.2103
    117  OG       -17.5490  -16.9000    9.4340 O.3   133  SER133     -0.2182
    118  N        -18.3250  -13.6230    6.5330 N.am  134  GLY134     -0.1956
    119  CA       -18.8410  -13.1360    5.2520 C.3   134  GLY134      0.1869
    120  C        -18.3240  -11.7980    4.7540 C.2   134  GLY134      0.2309
    121  O        -18.2880  -11.5620    3.5420 O.2   134  GLY134     -0.2863
    122  N        -18.8490  -10.1000    0.8570 N.3   138  LEU138     -0.1245
    123  CA       -19.9750   -9.1600    0.8830 C.3   138  LEU138      0.1561
    124  C        -19.5590   -7.7200    0.5600 C.2   138  LEU138      0.2260
    125  O        -20.3390   -6.9610   -0.0140 O.2   138  LEU138     -0.2867
    126  CB       -20.6940   -9.2030    2.2350 C.3   138  LEU138      0.0270
    127  CG       -21.3670  -10.4990    2.7020 C.3   138  LEU138      0.0019
    128  CD1      -21.7640  -10.3740    4.1630 C.3   138  LEU138      0.0001
    129  CD2      -22.5780  -10.8660    1.8510 C.3   138  LEU138      0.0001
    130  N        -16.8190   -1.1200    8.4800 N.3   157  PHE157     -0.1227
    131  CA       -17.3890   -2.2720    9.1820 C.3   157  PHE157      0.1736
    132  C        -16.8720   -3.6280    8.6830 C.2   157  PHE157      0.2595
    133  O        -16.7740   -4.5820    9.4530 O.2   157  PHE157     -0.2718
    134  CB       -18.9220   -2.2270    9.0910 C.3   157  PHE157      0.0547
    135  CG       -19.6060   -3.4820    9.5790 C.ar  157  PHE157     -0.0202
    136  CD1      -19.7730   -3.7190   10.9430 C.ar  157  PHE157     -0.0042
    137  CD2      -20.0900   -4.4250    8.6740 C.ar  157  PHE157     -0.0042
    138  CE1      -20.4060   -4.8720   11.3950 C.ar  157  PHE157     -0.0003
    139  CE2      -20.7220   -5.5830    9.1200 C.ar  157  PHE157     -0.0003
    140  CZ       -20.8810   -5.8030   10.4830 C.ar  157  PHE157     -0.0000
    141  N        -16.5480   -3.7040    7.3970 N.am  158  PHE158     -0.1976
    142  CA       -16.1460   -4.9600    6.7690 C.3   158  PHE158      0.1639
    143  C        -14.6810   -5.3150    6.9980 C.2   158  PHE158      0.2290
    144  O        -14.2030   -6.3350    6.4950 O.2   158  PHE158     -0.2864
    145  CB       -16.4550   -4.9270    5.2710 C.3   158  PHE158      0.0560
    146  CG       -17.9070   -4.7410    4.9620 C.ar  158  PHE158     -0.0200
    147  CD1      -18.7660   -5.8360    4.9170 C.ar  158  PHE158     -0.0042
    148  CD2      -18.4210   -3.4710    4.7250 C.ar  158  PHE158     -0.0042
    149  CE1      -20.1170   -5.6730    4.6350 C.ar  158  PHE158     -0.0003
    150  CE2      -19.7680   -3.2920    4.4450 C.ar  158  PHE158     -0.0003
    151  CZ       -20.6200   -4.3970    4.3970 C.ar  158  PHE158     -0.0000
    152  N        -32.8580  -12.2420   12.5770 N.3   201  ASN201     -0.1240
    153  CA       -32.1500  -11.7700   11.3890 C.3   201  ASN201      0.1653
    154  C        -32.9770  -11.9260   10.1110 C.2   201  ASN201      0.2266
    155  O        -33.1550  -10.9600    9.3650 O.2   201  ASN201     -0.2867
    156  CB       -30.7910  -12.4610   11.2560 C.3   201  ASN201      0.1155
    157  CG       -29.7200  -11.8030   12.1000 C.2   201  ASN201      0.2627
    158  OD1      -29.1050  -10.8240   11.6860 O.2   201  ASN201     -0.2716
    159  ND2      -29.4880  -12.3450   13.2900 N.am  201  ASN201     -0.0877
    160  N        -35.7700   -9.6720   10.0100 N.3   204  LEU204     -0.1231
    161  CA       -35.3210   -8.3220    9.6830 C.3   204  LEU204      0.1693
    162  C        -35.2440   -8.1070    8.1740 C.2   204  LEU204      0.2592
    163  O        -35.7200   -7.0940    7.6730 O.2   204  LEU204     -0.2718
    164  CB       -33.9720   -8.0280   10.3460 C.3   204  LEU204      0.0284
    165  CG       -33.3200   -6.6560   10.1580 C.3   204  LEU204      0.0019
    166  CD1      -34.1550   -5.5280   10.7540 C.3   204  LEU204      0.0001
    167  CD2      -31.9310   -6.6680   10.7700 C.3   204  LEU204      0.0001
    168  N        -34.6580   -9.0680    7.4590 N.am  205  PHE205     -0.1976
    169  CA       -34.5450   -9.0070    5.9980 C.3   205  PHE205      0.1639
    170  C        -35.8980   -9.0080    5.2970 C.2   205  PHE205      0.2290
    171  O        -36.0130   -8.5500    4.1600 O.2   205  PHE205     -0.2864
    172  CB       -33.7120  -10.1740    5.4680 C.3   205  PHE205      0.0560
    173  CG       -32.2790  -10.1410    5.8960 C.ar  205  PHE205     -0.0200
    174  CD1      -31.4610   -9.0610    5.5630 C.ar  205  PHE205     -0.0042
    175  CD2      -31.7350  -11.2000    6.6160 C.ar  205  PHE205     -0.0042
    176  CE1      -30.1280   -9.0290    5.9580 C.ar  205  PHE205     -0.0003
    177  CE2      -30.4040  -11.1810    7.0140 C.ar  205  PHE205     -0.0003
    178  CZ       -29.5960  -10.0930    6.6820 C.ar  205  PHE205     -0.0000
    179  N        -37.2330   -5.4160    5.7920 N.3   208  LEU208     -0.1245
    180  CA       -36.4270   -4.5430    4.9430 C.3   208  LEU208      0.1561
    181  C        -36.8860   -4.6060    3.4900 C.2   208  LEU208      0.2260
    182  O        -36.9400   -3.5790    2.8090 O.2   208  LEU208     -0.2867
    183  CB       -34.9350   -4.8840    5.0490 C.3   208  LEU208      0.0270
    184  CG       -34.2160   -4.6760    6.3890 C.3   208  LEU208      0.0019
    185  CD1      -32.7970   -5.2070    6.3100 C.3   208  LEU208      0.0001
    186  CD2      -34.2150   -3.2240    6.8350 C.3   208  LEU208      0.0001
@<TRIPOS>BOND
     1    33    32    2
     2    32    31    1
     3    30    31    1
     4    31    34    1
     5    25    24    2
     6    34    35    1
     7    14    13    2
     8    24    23    1
     9    35    36   ar
    10    35    37   ar
    11    36    38   ar
    12    37    39   ar
    13    38    40   ar
    14    13    12    1
    15    13    22   am
    16   125   124    2
    17    39    40   ar
    18    12    11    1
    19    12    15    1
    20    23    22    1
    21    23    26    1
    22   124   123    1
    23   122   123    1
    24   123   126    1
    25    45    46    1
    26    45    42    1
    27    41    42    1
    28    47    46   ar
    29    47    49   ar
    30    20    18   ar
    31    20    21   ar
    32    18    16   ar
    33    21    19   ar
    34    26    27    1
    35    16    15    1
    36    16    17   ar
    37    46    48   ar
    38    19    17   ar
    39   129   127    1
    40    49    51   ar
    41    42    43    1
    42   126   127    1
    43    48    50   ar
    44    51    50   ar
    45   127   128    1
    46   182   181    2
    47    29    28    1
    48    28    27    1
    49    43    44    2
    50   181   180    1
    51   121   120    2
    52   171   170    2
    53   151   150   ar
    54   151   149   ar
    55   150   148   ar
    56   149   147   ar
    57    58    56    1
    58   148   146   ar
    59   120   119    1
    60   147   146   ar
    61   180   183    1
    62   180   179    1
    63   146   145    1
    64   183   184    1
    65   119   118    1
    66   145   142    1
    67   170   169    1
    68    56    57    1
    69    56    53    1
    70   172   173    1
    71   172   169    1
    72   174   173   ar
    73   174   176   ar
    74   115   114    2
    75     4     3    2
    76   173   175   ar
    77    52    53    1
    78   176   178   ar
    79   169   168    1
    80     9     7   ar
    81     9    10   ar
    82   185   184    1
    83   184   186    1
    84    65    66    1
    85    65    64    1
    86     7     6   ar
    87   144   143    2
    88   118   114   am
    89    53    54    1
    90     3     2    1
    91   114   113    1
    92   175   177   ar
    93   178   177   ar
    94   142   143    1
    95   142   141    1
    96    64    63    1
    97    63    60    1
    98    59    54   am
    99    59    60    1
   100    10     8   ar
   101   141   132   am
   102   168   162   am
   103    54    55    2
   104   163   162    2
   105     6     8   ar
   106     6     5    1
   107    60    61    1
   108   113   116    1
   109   113   112    1
   110     2     5    1
   111     2     1    1
   112   162   161    1
   113   116   117    1
   114   130   131    1
   115   137   139   ar
   116   137   135   ar
   117   132   131    1
   118   132   133    2
   119    79    78    1
   120   134   131    1
   121   134   135    1
   122    61    62    2
   123   139   140   ar
   124   107   106    2
   125   103   102    2
   126   155   154    2
   127   135   136   ar
   128   161   160    1
   129   161   164    1
   130    72    71    1
   131   106   105    1
   132   154   153    1
   133    78    80    1
   134    78    77    1
   135   165   164    1
   136   165   166    1
   137   165   167    1
   138   105   108    1
   139   105   104    1
   140   110   109   ar
   141    71    68    1
   142   102   104   am
   143   102   101    1
   144   140   138   ar
   145    67    68    1
   146   136   138   ar
   147   109   108    1
   148   109   111   ar
   149    77    74    1
   150   156   153    1
   151   156   157    1
   152   101   100    1
   153    68    69    1
   154   153   152    1
   155    73    74    1
   156    73    69   am
   157    99    97    1
   158   158   157    2
   159   157   159   am
   160    74    75    1
   161    69    70    2
   162    97    98    1
   163    97    96    2
   164    75    76    2
   165    92    91    2
   166    96    95    1
   167    88    86    1
   168    91    90    1
   169    90    89    1
   170    90    93    1
   171    95    94    1
   172    86    85    1
   173    85    87    1
   174    85    82    1
   175    94    93    1
   176    81    82    1
   177    82    83    1
   178    83    84    2
