@<TRIPOS>MOLECULE
tmp/3tgrB00.pdb
 75 72 0 0 0
SMALL
GASTEIGER

@<TRIPOS>ATOM
      1  N        -35.1770  -43.1570   24.7420 N.3   118  ASN118     -0.1240
      2  CA       -34.1740  -44.1210   25.1870 C.3   118  ASN118      0.1653
      3  C        -33.7580  -45.1430   24.1300 C.2   118  ASN118      0.2266
      4  O        -32.6850  -45.7380   24.2260 O.2   118  ASN118     -0.2867
      5  CB       -34.6320  -44.8290   26.4690 C.3   118  ASN118      0.1155
      6  CG       -35.9600  -45.5460   26.3040 C.2   118  ASN118      0.2627
      7  OD1      -36.2900  -46.0330   25.2230 O.2   118  ASN118     -0.2716
      8  ND2      -36.7320  -45.6130   27.3840 N.am  118  ASN118     -0.0877
      9  N        -36.2720  -47.4920   22.7050 N.3   120  THR120     -0.1203
     10  CA       -37.3700  -48.4370   22.5310 C.3   120  THR120      0.1994
     11  C        -38.6910  -47.8540   23.0280 C.2   120  THR120      0.2618
     12  O        -38.7110  -47.0320   23.9430 O.2   120  THR120     -0.2717
     13  CB       -37.0960  -49.7630   23.2660 C.3   120  THR120      0.1784
     14  OG1      -36.9110  -49.5090   24.6640 O.3   120  THR120     -0.2211
     15  CG2      -35.8490  -50.4320   22.7100 C.3   120  THR120      0.0376
     16  N        -39.7910  -48.2830   22.4170 N.am  121  GLY121     -0.1942
     17  CA       -41.1100  -47.8250   22.8150 C.3   121  GLY121      0.1998
     18  C        -41.6530  -46.7170   21.9330 C.2   121  GLY121      0.2480
     19  O        -41.0660  -46.3970   20.8990 O.2   121  GLY121     -0.2729
     20  N        -42.7850  -46.1240   22.3420 N.am  122  PRO122     -0.2726
     21  CA       -43.4740  -45.0620   21.5980 C.3   122  PRO122      0.1402
     22  C        -42.6490  -43.7830   21.4810 C.2   122  PRO122      0.2269
     23  O        -41.6680  -43.6070   22.2030 O.2   122  PRO122     -0.2865
     24  CB       -44.7230  -44.7960   22.4470 C.3   122  PRO122      0.0296
     25  CG       -44.9120  -46.0320   23.2570 C.3   122  PRO122      0.0237
     26  CD       -43.5300  -46.5200   23.5470 C.3   122  PRO122      0.0939
     27  N        -29.6790  -43.5010   29.0860 N.3   156  ILE156     -0.1245
     28  CA       -29.2020  -44.8640   29.2750 C.3   156  ILE156      0.1561
     29  C        -30.0290  -45.8240   28.4270 C.2   156  ILE156      0.2260
     30  O        -31.2160  -46.0300   28.6800 O.2   156  ILE156     -0.2867
     31  CB       -29.2560  -45.2910   30.7510 C.3   156  ILE156      0.0252
     32  CG1      -28.3810  -44.3670   31.6000 C.3   156  ILE156      0.0019
     33  CG2      -28.8040  -46.7350   30.9030 C.3   156  ILE156      0.0019
     34  CD1      -28.3410  -44.7390   33.0610 C.3   156  ILE156      0.0001
     35  N        -30.7370  -49.5890   26.6170 N.3   158  SER158     -0.1202
     36  CA       -30.5260  -51.0180   26.7880 C.3   158  SER158      0.2020
     37  C        -31.7310  -51.8060   26.2980 C.2   158  SER158      0.2619
     38  O        -32.8750  -51.4320   26.5530 O.2   158  SER158     -0.2717
     39  CB       -30.2450  -51.3500   28.2550 C.3   158  SER158      0.2103
     40  OG       -29.9500  -52.7280   28.4180 O.3   158  SER158     -0.2182
     41  N        -31.4620  -52.8940   25.5870 N.am  159  GLU159     -0.1965
     42  CA       -32.5080  -53.7970   25.1320 C.3   159  GLU159      0.1733
     43  C        -33.3040  -54.2840   26.3380 C.2   159  GLU159      0.2616
     44  O        -34.4790  -54.6310   26.2240 O.2   159  GLU159     -0.2715
     45  CB       -31.8840  -54.9790   24.3920 C.3   159  GLU159      0.0429
     46  CG       -32.8550  -55.7960   23.5640 C.3   159  GLU159      0.1163
     47  CD       -32.1460  -56.8020   22.6770 C.2   159  GLU159      0.3649
     48  OE1      -30.9080  -56.9310   22.7960 O.co2 159  GLU159     -0.2457
     49  OE2      -32.8230  -57.4590   21.8580 O.co2 159  GLU159     -0.2457
     50  N        -32.6450  -54.2920   27.4930 N.am  160  ASN160     -0.1958
     51  CA       -33.2590  -54.7010   28.7490 C.3   160  ASN160      0.1819
     52  C        -32.2910  -54.5450   29.9170 C.2   160  ASN160      0.2621
     53  O        -31.3870  -55.3600   30.0960 O.2   160  ASN160     -0.2715
     54  CB       -33.7360  -56.1520   28.6610 C.3   160  ASN160      0.1195
     55  CG       -34.3830  -56.6290   29.9430 C.2   160  ASN160      0.2630
     56  OD1      -34.7920  -55.8260   30.7840 O.2   160  ASN160     -0.2716
     57  ND2      -34.4770  -57.9450   30.1030 N.am  160  ASN160     -0.0877
     58  N        -32.4850  -53.4960   30.7100 N.am  161  LEU161     -0.1977
     59  CA       -31.6230  -53.2290   31.8600 C.3   161  LEU161      0.1596
     60  C        -31.5650  -54.4090   32.8290 C.2   161  LEU161      0.2287
     61  O        -30.4920  -54.7710   33.3120 O.2   161  LEU161     -0.2864
     62  CB       -32.0870  -51.9720   32.6020 C.3   161  LEU161      0.0297
     63  CG       -31.9040  -50.6210   31.9060 C.3   161  LEU161      0.0022
     64  CD1      -32.7830  -49.5640   32.5550 C.3   161  LEU161      0.0001
     65  CD2      -30.4440  -50.1910   31.9160 C.3   161  LEU161      0.0001
     66  N        -32.6510  -45.6610   38.1540 N.3   212  HIS212     -0.1241
     67  CA       -33.2720  -46.9210   37.7660 C.3   212  HIS212      0.1621
     68  C        -33.1890  -47.9140   38.9210 C.2   212  HIS212      0.2264
     69  O        -34.1330  -48.6580   39.1880 O.2   212  HIS212     -0.2867
     70  CB       -32.5910  -47.4960   36.5240 C.3   212  HIS212      0.0745
     71  CG       -32.6570  -46.5980   35.3280 C.ar  212  HIS212      0.0817
     72  ND1      -31.6910  -45.6550   35.0510 N.ar  212  HIS212     -0.2268
     73  CD2      -33.5730  -46.5000   34.3360 C.ar  212  HIS212      0.1154
     74  CE1      -32.0090  -45.0140   33.9410 C.ar  212  HIS212      0.1986
     75  NE2      -33.1470  -45.5080   33.4870 N.ar  212  HIS212     -0.2212
@<TRIPOS>BOND
     1    19    18    2
     2    22    21    1
     3    22    23    2
     4    21    20    1
     5    21    24    1
     6    49    47   ar
     7    18    20   am
     8    18    17    1
     9    20    26    1
    10    16    17    1
    11    16    11   am
    12    24    25    1
    13    10     9    1
    14    10    11    1
    15    10    13    1
    16    47    48   ar
    17    47    46    1
    18    15    13    1
    19    11    12    2
    20    25    26    1
    21    13    14    1
    22    46    45    1
    23     3     4    2
    24     3     2    1
    25    45    42    1
    26     1     2    1
    27    42    41    1
    28    42    43    1
    29     2     5    1
    30     7     6    2
    31    41    37   am
    32    44    43    2
    33    37    38    2
    34    37    36    1
    35     6     5    1
    36     6     8   am
    37    43    50   am
    38    35    36    1
    39    36    39    1
    40    50    51    1
    41    39    40    1
    42    29    30    2
    43    29    28    1
    44    54    51    1
    45    54    55    1
    46    51    52    1
    47    27    28    1
    48    28    31    1
    49    52    53    2
    50    52    58   am
    51    55    57   am
    52    55    56    2
    53    58    59    1
    54    31    33    1
    55    31    32    1
    56    32    34    1
    57    59    62    1
    58    59    60    1
    59    63    65    1
    60    63    64    1
    61    63    62    1
    62    60    61    2
    63    75    74   ar
    64    75    73   ar
    65    74    72   ar
    66    73    71   ar
    67    72    71   ar
    68    71    70    1
    69    70    67    1
    70    67    66    1
    71    67    68    1
    72    68    69    2
