@<TRIPOS>MOLECULE
tmp/3tgrB01.pdb
 111 109 0 0 0
SMALL
GASTEIGER

@<TRIPOS>ATOM
      1  N         -5.7680  -42.4680    6.9070 N.3    94  PHE94      -0.1227
      2  CA        -6.9900  -43.0280    7.4690 C.3    94  PHE94       0.1736
      3  C         -7.6520  -42.0800    8.4660 C.2    94  PHE94       0.2595
      4  O         -7.1680  -41.9050    9.5840 O.2    94  PHE94      -0.2718
      5  CB        -6.6920  -44.3710    8.1430 C.3    94  PHE94       0.0547
      6  CG        -7.9140  -45.0720    8.6640 C.ar   94  PHE94      -0.0202
      7  CD1       -8.5060  -46.0910    7.9360 C.ar   94  PHE94      -0.0042
      8  CD2       -8.4720  -44.7120    9.8790 C.ar   94  PHE94      -0.0042
      9  CE1       -9.6320  -46.7360    8.4110 C.ar   94  PHE94      -0.0003
     10  CE2       -9.5970  -45.3530   10.3590 C.ar   94  PHE94      -0.0003
     11  CZ       -10.1780  -46.3670    9.6240 C.ar   94  PHE94      -0.0000
     12  N         -8.7620  -41.4750    8.0540 N.am   95  ASP95      -0.1960
     13  CA        -9.5490  -40.6190    8.9380 C.3    95  ASP95       0.1825
     14  C        -11.0090  -40.5670    8.4890 C.2    95  ASP95       0.2464
     15  O        -11.3270  -39.9760    7.4560 O.2    95  ASP95      -0.2730
     16  CB        -8.9590  -39.2100    9.0040 C.3    95  ASP95       0.1450
     17  CG        -9.6390  -38.3450   10.0460 C.2    95  ASP95       0.3671
     18  OD1       -9.9480  -38.8630   11.1400 O.co2  95  ASP95      -0.2456
     19  OD2       -9.8700  -37.1500    9.7680 O.co2  95  ASP95      -0.2456
     20  N        -11.8990  -41.1860    9.2790 N.am   96  PRO96      -0.2727
     21  CA       -13.3270  -41.3780    8.9960 C.3    96  PRO96       0.1402
     22  C        -14.0730  -40.1180    8.5520 C.2    96  PRO96       0.2269
     23  O        -13.6290  -38.9960    8.7930 O.2    96  PRO96      -0.2865
     24  CB       -13.8790  -41.8720   10.3360 C.3    96  PRO96       0.0296
     25  CG       -12.7300  -42.5770   10.9600 C.3    96  PRO96       0.0237
     26  CD       -11.5130  -41.7830   10.5700 C.3    96  PRO96       0.0939
     27  N        -19.9710  -40.5450   11.5270 N.3   136  LYS136     -0.1245
     28  CA       -18.6120  -41.0600   11.4540 C.3   136  LYS136      0.1561
     29  C        -18.6080  -42.5380   11.8190 C.2   136  LYS136      0.2260
     30  O        -19.0760  -42.9160   12.8930 O.2   136  LYS136     -0.2867
     31  CB       -17.6840  -40.2840   12.3890 C.3   136  LYS136      0.0271
     32  CG       -17.2930  -38.9110   11.8680 C.3   136  LYS136      0.0035
     33  CD       -16.2400  -38.2640   12.7450 C.3   136  LYS136      0.0206
     34  CE       -15.7700  -36.9490   12.1490 C.3   136  LYS136      0.1093
     35  NZ       -14.7430  -36.2730   12.9960 N.3   136  LYS136     -0.1314
     36  N        -16.8120  -44.7600   13.2230 N.3   138  VAL138     -0.1245
     37  CA       -15.6550  -44.9630   14.0880 C.3   138  VAL138      0.1561
     38  C        -15.7180  -46.2860   14.8410 C.2   138  VAL138      0.2260
     39  O        -16.6110  -46.5070   15.6600 O.2   138  VAL138     -0.2867
     40  CB       -15.5000  -43.8130   15.1010 C.3   138  VAL138      0.0252
     41  CG1      -14.2630  -44.0240   15.9620 C.3   138  VAL138      0.0019
     42  CG2      -15.4230  -42.4840   14.3770 C.3   138  VAL138      0.0019
     43  N        -16.4220  -42.5840   20.2940 N.3   145  LEU145     -0.1231
     44  CA       -15.6550  -41.4120   19.8800 C.3   145  LEU145      0.1693
     45  C        -16.2550  -40.6780   18.6800 C.2   145  LEU145      0.2592
     46  O        -16.8630  -41.2900   17.8010 O.2   145  LEU145     -0.2718
     47  CB       -14.2110  -41.8190   19.5700 C.3   145  LEU145      0.0284
     48  CG       -13.5050  -42.6670   20.6330 C.3   145  LEU145      0.0019
     49  CD1      -12.1890  -43.2190   20.1060 C.3   145  LEU145      0.0001
     50  CD2      -13.2900  -41.8770   21.9220 C.3   145  LEU145      0.0001
     51  N        -16.0720  -39.3610   18.6620 N.am  146  ASN146     -0.1974
     52  CA       -16.4630  -38.5160   17.5350 C.3   146  ASN146      0.1688
     53  C        -17.9110  -38.6880   17.0760 C.2   146  ASN146      0.2292
     54  O        -18.2160  -38.5370   15.8930 O.2   146  ASN146     -0.2864
     55  CB       -15.4980  -38.7170   16.3630 C.3   146  ASN146      0.1181
     56  CG       -14.0570  -38.4030   16.7350 C.2   146  ASN146      0.2629
     57  OD1      -13.7990  -37.6740   17.6940 O.2   146  ASN146     -0.2716
     58  ND2      -13.1130  -38.9510   15.9780 N.am  146  ASN146     -0.0877
     59  N         -9.0260  -48.7740   19.4640 N.3   235  PHE235     -0.1227
     60  CA        -9.4320  -47.8720   18.3950 C.3   235  PHE235      0.1736
     61  C         -8.3470  -47.7790   17.3270 C.2   235  PHE235      0.2595
     62  O         -7.2500  -48.3080   17.4950 O.2   235  PHE235     -0.2718
     63  CB        -9.7330  -46.4820   18.9590 C.3   235  PHE235      0.0547
     64  CG        -8.5320  -45.7870   19.5350 C.ar  235  PHE235     -0.0202
     65  CD1       -8.1340  -46.0270   20.8390 C.ar  235  PHE235     -0.0042
     66  CD2       -7.8070  -44.8860   18.7740 C.ar  235  PHE235     -0.0042
     67  CE1       -7.0310  -45.3850   21.3720 C.ar  235  PHE235     -0.0003
     68  CE2       -6.7030  -44.2430   19.3000 C.ar  235  PHE235     -0.0003
     69  CZ        -6.3150  -44.4930   20.6010 C.ar  235  PHE235     -0.0000
     70  N         -8.6590  -47.1030   16.2280 N.am  236  ASN236     -0.1960
     71  CA        -7.7020  -46.9340   15.1460 C.3   236  ASN236      0.1819
     72  C         -7.2800  -45.4760   14.9980 C.2   236  ASN236      0.2621
     73  O         -8.1200  -44.5750   14.9960 O.2   236  ASN236     -0.2715
     74  CB        -8.2820  -47.4500   13.8270 C.3   236  ASN236      0.1195
     75  CG        -7.2320  -47.5720   12.7380 C.2   236  ASN236      0.2630
     76  OD1       -6.7210  -46.5710   12.2340 O.2   236  ASN236     -0.2716
     77  ND2       -6.9050  -48.8050   12.3690 N.am  236  ASN236     -0.0877
     78  N         -5.9760  -45.2520   14.8790 N.am  237  CYS237     -0.1968
     79  CA        -5.4450  -43.9070   14.6940 C.3   237  CYS237      0.1712
     80  C         -4.4390  -43.8690   13.5490 C.2   237  CYS237      0.2296
     81  O         -3.3500  -44.4360   13.6470 O.2   237  CYS237     -0.2864
     82  CB        -4.7960  -43.4010   15.9830 C.3   237  CYS237      0.0983
     83  SG        -4.0880  -41.7400   15.8590 S.3   237  CYS237     -0.0798
     84  N         -3.8920  -39.1290   18.2720 N.3   301  CYS301     -0.1221
     85  CA        -5.3140  -38.9260   18.0190 C.3   301  CYS301      0.1808
     86  C         -5.9200  -37.9810   19.0500 C.2   301  CYS301      0.2601
     87  O         -5.8480  -38.2320   20.2540 O.2   301  CYS301     -0.2717
     88  CB        -6.0690  -40.2580   18.0350 C.3   301  CYS301      0.0970
     89  SG        -5.9410  -41.2260   16.5170 S.3   301  CYS301     -0.0800
     90  N         -6.5070  -36.8900   18.5700 N.am  302  ASN302     -0.1960
     91  CA        -7.2530  -35.9810   19.4320 C.3   302  ASN302      0.1819
     92  C         -8.7440  -36.1860   19.2220 C.2   302  ASN302      0.2622
     93  O         -9.3240  -35.6700   18.2660 O.2   302  ASN302     -0.2715
     94  CB        -6.8650  -34.5270   19.1620 C.3   302  ASN302      0.1195
     95  CG        -7.6260  -33.5480   20.0370 C.2   302  ASN302      0.2630
     96  OD1       -8.8430  -33.6490   20.1880 O.2   302  ASN302     -0.2716
     97  ND2       -6.9090  -32.5960   20.6230 N.am  302  ASN302     -0.0877
     98  N         -9.3590  -36.9450   20.1220 N.am  303  SER303     -0.1936
     99  CA       -10.7410  -37.3740   19.9450 C.3   303  SER303      0.2055
    100  C        -11.6520  -36.9030   21.0780 C.2   303  SER303      0.2643
    101  O        -11.1840  -36.4190   22.1070 O.2   303  SER303     -0.2714
    102  CB       -10.7960  -38.9000   19.8360 C.3   303  SER303      0.2130
    103  OG        -9.8360  -39.3720   18.9030 O.3   303  SER303     -0.2179
    104  N        -12.9570  -37.0490   20.8730 N.am  304  ASN304     -0.1971
    105  CA       -13.9430  -36.7010   21.8870 C.3   304  ASN304      0.1688
    106  C        -14.7700  -37.9100   22.3040 C.2   304  ASN304      0.2292
    107  O        -15.3880  -38.5630   21.4650 O.2   304  ASN304     -0.2864
    108  CB       -14.8810  -35.6040   21.3780 C.3   304  ASN304      0.1181
    109  CG       -14.1860  -34.2730   21.2020 C.2   304  ASN304      0.2629
    110  OD1      -13.3880  -33.8580   22.0420 O.2   304  ASN304     -0.2716
    111  ND2      -14.4860  -33.5930   20.1000 N.am  304  ASN304     -0.0877
@<TRIPOS>BOND
     1     1     2    1
     2    15    14    2
     3     2     5    1
     4     2     3    1
     5     7     9   ar
     6     7     6   ar
     7    12     3   am
     8    12    13    1
     9     5     6    1
    10     9    11   ar
    11     3     4    2
    12    14    13    1
    13    14    20   am
    14    22    23    2
    15    22    21    1
    16     6     8   ar
    17    13    16    1
    18    21    20    1
    19    21    24    1
    20    16    17    1
    21    20    26    1
    22    11    10   ar
    23    19    17   ar
    24     8    10   ar
    25    17    18   ar
    26    24    25    1
    27    26    25    1
    28    28    27    1
    29    28    29    1
    30    28    31    1
    31    29    30    2
    32    32    31    1
    33    32    33    1
    34    34    33    1
    35    34    35    1
    36    76    75    2
    37    77    75   am
    38    75    74    1
    39    36    37    1
    40    80    81    2
    41    80    79    1
    42    74    71    1
    43    37    38    1
    44    37    40    1
    45    42    40    1
    46    79    78    1
    47    79    82    1
    48    38    39    2
    49    78    72   am
    50    73    72    2
    51    72    71    1
    52    40    41    1
    53    71    70    1
    54    83    82    1
    55    83    89    1
    56    54    53    2
    57    58    56   am
    58    70    61   am
    59    55    56    1
    60    55    52    1
    61    89    88    1
    62    56    57    2
    63    53    52    1
    64    61    62    2
    65    61    60    1
    66    52    51    1
    67    46    45    2
    68    85    88    1
    69    85    84    1
    70    85    86    1
    71    93    92    2
    72    60    63    1
    73    60    59    1
    74    90    86   am
    75    90    91    1
    76    51    45   am
    77    45    44    1
    78    66    68   ar
    79    66    64   ar
    80   103   102    1
    81    63    64    1
    82    86    87    2
    83    94    91    1
    84    94    95    1
    85    92    91    1
    86    92    98   am
    87    68    69   ar
    88    64    65   ar
    89    47    44    1
    90    47    48    1
    91   102    99    1
    92    44    43    1
    93    99    98    1
    94    99   100    1
    95    95    96    2
    96    95    97   am
    97   111   109   am
    98    49    48    1
    99    69    67   ar
   100    48    50    1
   101    65    67   ar
   102   104   100   am
   103   104   105    1
   104   100   101    2
   105   109   108    1
   106   109   110    2
   107   108   105    1
   108   107   106    2
   109   105   106    1
