@<TRIPOS>MOLECULE
tmp/3tgsA05.pdb
 194 191 0 0 0
SMALL
GASTEIGER

@<TRIPOS>ATOM
      1  N         -9.5600   -9.0160   16.8460 N.3    62  HIS62      -0.1241
      2  CA       -10.6860   -8.1370   16.5620 C.3    62  HIS62       0.1621
      3  C        -10.9670   -8.0970   15.0660 C.2    62  HIS62       0.2264
      4  O        -12.1000   -8.3010   14.6330 O.2    62  HIS62      -0.2867
      5  CB       -10.4080   -6.7250   17.0840 C.3    62  HIS62       0.0745
      6  CG       -11.6360   -5.8790   17.2270 C.ar   62  HIS62       0.0817
      7  ND1      -12.6170   -6.1440   18.1580 N.ar   62  HIS62      -0.2268
      8  CD2      -12.0410   -4.7730   16.5600 C.ar   62  HIS62       0.1154
      9  CE1      -13.5740   -5.2380   18.0590 C.ar   62  HIS62       0.1986
     10  NE2      -13.2480   -4.3940   17.0960 N.ar   62  HIS62      -0.2212
     11  N        -17.5090  -12.2500   10.7600 N.3    69  TRP69      -0.1241
     12  CA       -18.9100  -11.8530   10.7800 C.3    69  TRP69       0.1605
     13  C        -19.3600  -11.2410    9.4620 C.2    69  TRP69       0.2264
     14  O        -20.5120  -11.4010    9.0610 O.2    69  TRP69      -0.2867
     15  CB       -19.1650  -10.8800   11.9310 C.3    69  TRP69       0.0550
     16  CG       -19.4550  -11.5650   13.2340 C.ar   69  TRP69       0.0003
     17  CD1      -18.7120  -12.5420   13.8310 C.ar   69  TRP69       0.0946
     18  CD2      -20.5660  -11.3200   14.1050 C.ar   69  TRP69       0.0152
     19  NE1      -19.2950  -12.9230   15.0160 N.ar   69  TRP69      -0.2442
     20  CE2      -20.4350  -12.1860   15.2060 C.ar   69  TRP69       0.0810
     21  CE3      -21.6600  -10.4510   14.0580 C.ar   69  TRP69       0.0012
     22  CZ2      -21.3590  -12.2100   16.2490 C.ar   69  TRP69       0.0191
     23  CZ3      -22.5730  -10.4770   15.0940 C.ar   69  TRP69       0.0001
     24  CH2      -22.4180  -11.3480   16.1730 C.ar   69  TRP69       0.0015
     25  N        -19.1540  -12.9810   20.8950 N.3   139  VAL139     -0.1245
     26  CA       -19.5850  -11.5960   21.0150 C.3   139  VAL139      0.1561
     27  C        -20.6990  -11.4860   22.0480 C.2   139  VAL139      0.2260
     28  O        -21.7720  -12.0670   21.8820 O.2   139  VAL139     -0.2867
     29  CB       -20.1240  -11.0700   19.6750 C.3   139  VAL139      0.0252
     30  CG1      -20.7610   -9.7080   19.8650 C.3   139  VAL139      0.0019
     31  CG2      -19.0170  -11.0210   18.6350 C.3   139  VAL139      0.0019
     32  N        -22.0920   -8.8010   25.7000 N.3   141  THR141     -0.1218
     33  CA       -21.8690   -7.6890   26.6140 C.3   141  THR141      0.1862
     34  C        -22.2430   -8.0810   28.0380 C.2   141  THR141      0.2287
     35  O        -23.1210   -8.9220   28.2450 O.2   141  THR141     -0.2866
     36  CB       -22.6930   -6.4560   26.2070 C.3   141  THR141      0.1770
     37  OG1      -24.0780   -6.8130   26.1430 O.3   141  THR141     -0.2211
     38  CG2      -22.2430   -5.9390   24.8490 C.3   141  THR141      0.0375
     39  N        -27.6150    2.2970   24.9180 N.3   227  ASP227     -0.1239
     40  CA       -27.9960    1.3400   23.8840 C.3   227  ASP227      0.1674
     41  C        -28.2890   -0.0350   24.4730 C.2   227  ASP227      0.2266
     42  O        -27.5770   -0.4980   25.3620 O.2   227  ASP227     -0.2867
     43  CB       -26.8960    1.2330   22.8250 C.3   227  ASP227      0.1410
     44  CG       -26.7390    2.5070   22.0150 C.2   227  ASP227      0.3668
     45  OD1      -27.7450    3.2240   21.8320 O.co2 227  ASP227     -0.2456
     46  OD2      -25.6100    2.7890   21.5590 O.co2 227  ASP227     -0.2456
     47  N        -27.6660   -2.8610   23.5380 N.3   229  GLU229     -0.1231
     48  CA       -26.5510   -3.7930   23.4380 C.3   229  GLU229      0.1699
     49  C        -25.6930   -3.7220   24.6950 C.2   229  GLU229      0.2592
     50  O        -25.1180   -4.7180   25.1290 O.2   229  GLU229     -0.2718
     51  CB       -25.7010   -3.5070   22.1960 C.3   229  GLU229      0.0402
     52  CG       -26.4570   -3.6250   20.8810 C.3   229  GLU229      0.1161
     53  CD       -27.3810   -2.4470   20.6340 C.2   229  GLU229      0.3649
     54  OE1      -27.1040   -1.3540   21.1740 O.co2 229  GLU229     -0.2457
     55  OE2      -28.3830   -2.6120   19.9050 O.co2 229  GLU229     -0.2457
     56  N        -25.6290   -2.5350   25.2840 N.am  230  ILE230     -0.1980
     57  CA       -24.7820   -2.2920   26.4420 C.3   230  ILE230      0.1595
     58  C        -25.5730   -2.2600   27.7500 C.2   230  ILE230      0.2287
     59  O        -25.0320   -2.5580   28.8150 O.2   230  ILE230     -0.2864
     60  CB       -23.9950   -0.9780   26.2640 C.3   230  ILE230      0.0276
     61  CG1      -22.9450   -1.1440   25.1630 C.3   230  ILE230      0.0022
     62  CG2      -23.3460   -0.5450   27.5700 C.3   230  ILE230      0.0022
     63  CD1      -22.1590    0.1190   24.8690 C.3   230  ILE230      0.0001
     64  N        -26.6590   -8.6030   25.7960 N.3   234  SER234     -0.1202
     65  CA       -26.9180   -8.9440   24.4060 C.3   234  SER234      0.2020
     66  C        -25.8080   -9.8400   23.8830 C.2   234  SER234      0.2619
     67  O        -24.6430   -9.6900   24.2580 O.2   234  SER234     -0.2717
     68  CB       -27.0450   -7.6880   23.5390 C.3   234  SER234      0.2103
     69  OG       -25.9190   -6.8420   23.6790 O.3   234  SER234     -0.2182
     70  N        -26.1860  -10.7770   23.0210 N.am  235  PHE235     -0.1961
     71  CA       -25.2500  -11.7280   22.4390 C.3   235  PHE235      0.1771
     72  C        -25.8720  -12.3850   21.2140 C.2   235  PHE235      0.2619
     73  O        -27.0440  -12.1540   20.9050 O.2   235  PHE235     -0.2715
     74  CB       -24.8950  -12.7960   23.4670 C.3   235  PHE235      0.0574
     75  CG       -26.0890  -13.5030   24.0280 C.ar  235  PHE235     -0.0200
     76  CD1      -26.8670  -12.8950   24.9970 C.ar  235  PHE235     -0.0042
     77  CD2      -26.4420  -14.7670   23.5850 C.ar  235  PHE235     -0.0042
     78  CE1      -27.9700  -13.5340   25.5180 C.ar  235  PHE235     -0.0003
     79  CE2      -27.5460  -15.4130   24.1080 C.ar  235  PHE235     -0.0003
     80  CZ       -28.3110  -14.7930   25.0730 C.ar  235  PHE235     -0.0000
     81  N        -25.0920  -13.2070   20.5200 N.am  236  ASN236     -0.1972
     82  CA       -25.6240  -13.9450   19.3800 C.3   236  ASN236      0.1688
     83  C        -25.7930  -15.4400   19.6520 C.2   236  ASN236      0.2292
     84  O        -24.8150  -16.1700   19.8320 O.2   236  ASN236     -0.2864
     85  CB       -24.7720  -13.7290   18.1350 C.3   236  ASN236      0.1181
     86  CG       -25.4450  -14.2440   16.8840 C.2   236  ASN236      0.2629
     87  OD1      -25.4440  -15.4440   16.6170 O.2   236  ASN236     -0.2716
     88  ND2      -26.0290  -13.3380   16.1090 N.am  236  ASN236     -0.0877
     89  N        -29.9630  -12.6060   17.4900 N.3   241  PHE241     -0.1241
     90  CA       -29.4830  -11.6190   18.4520 C.3   241  PHE241      0.1605
     91  C        -30.3990  -11.4540   19.6590 C.2   241  PHE241      0.2264
     92  O        -31.4710  -10.8620   19.5620 O.2   241  PHE241     -0.2867
     93  CB       -29.2610  -10.2770   17.7600 C.3   241  PHE241      0.0534
     94  CG       -28.1900  -10.3210   16.7140 C.ar  241  PHE241     -0.0203
     95  CD1      -28.4840  -10.7120   15.4250 C.ar  241  PHE241     -0.0042
     96  CD2      -26.8790  -10.0000   17.0310 C.ar  241  PHE241     -0.0042
     97  CE1      -27.4920  -10.7630   14.4650 C.ar  241  PHE241     -0.0003
     98  CE2      -25.8900  -10.0480   16.0780 C.ar  241  PHE241     -0.0003
     99  CZ       -26.1980  -10.4310   14.7910 C.ar  241  PHE241     -0.0000
    100  N        -31.3490   -9.9450   23.2860 N.3   243  TYR243     -0.1241
    101  CA       -31.1590   -8.8630   24.2420 C.3   243  TYR243      0.1605
    102  C        -31.8160   -9.2190   25.5700 C.2   243  TYR243      0.2264
    103  O        -33.0270   -9.0690   25.7370 O.2   243  TYR243     -0.2867
    104  CB       -31.7300   -7.5550   23.7010 C.3   243  TYR243      0.0534
    105  CG       -30.9220   -6.9720   22.5700 C.ar  243  TYR243     -0.0201
    106  CD1      -31.1110   -7.4050   21.2660 C.ar  243  TYR243     -0.0009
    107  CD2      -29.9610   -5.9990   22.8070 C.ar  243  TYR243     -0.0009
    108  CE1      -30.3760   -6.8800   20.2250 C.ar  243  TYR243      0.0417
    109  CE2      -29.2180   -5.4680   21.7740 C.ar  243  TYR243      0.0417
    110  CZ       -29.4290   -5.9110   20.4840 C.ar  243  TYR243      0.1957
    111  OH       -28.6870   -5.3790   19.4570 O.3   243  TYR243     -0.2866
    112  N        -30.0330   -3.8700   15.1390 N.3   280  ILE280     -0.1231
    113  CA       -28.9440   -3.9340   16.1050 C.3   280  ILE280      0.1692
    114  C        -27.9210   -2.8300   15.8710 C.2   280  ILE280      0.2592
    115  O        -27.8000   -2.3050   14.7640 O.2   280  ILE280     -0.2718
    116  CB       -28.2210   -5.3070   16.0790 C.3   280  ILE280      0.0266
    117  CG1      -26.9170   -5.2200   15.2830 C.3   280  ILE280      0.0019
    118  CG2      -29.1350   -6.4000   15.5300 C.3   280  ILE280      0.0020
    119  CD1      -25.7040   -5.6830   16.0570 C.3   280  ILE280      0.0001
    120  N        -27.1990   -2.4710   16.9270 N.am  281  ASN281     -0.1960
    121  CA       -26.0650   -1.5650   16.8060 C.3   281  ASN281      0.1819
    122  C        -24.7760   -2.3550   16.7010 C.2   281  ASN281      0.2621
    123  O        -24.3870   -3.0560   17.6320 O.2   281  ASN281     -0.2715
    124  CB       -25.9910   -0.6010   17.9890 C.3   281  ASN281      0.1195
    125  CG       -26.9190    0.5830   17.8340 C.2   281  ASN281      0.2630
    126  OD1      -26.5880    1.5630   17.1650 O.2   281  ASN281     -0.2716
    127  ND2      -28.0910    0.5010   18.4530 N.am  281  ASN281     -0.0877
    128  N        -24.1190   -2.2350   15.5550 N.am  282  MET282     -0.1963
    129  CA       -22.9220   -3.0070   15.2710 C.3   282  MET282      0.1736
    130  C        -21.8150   -2.7620   16.2840 C.2   282  MET282      0.2616
    131  O        -21.5350   -1.6230   16.6590 O.2   282  MET282     -0.2715
    132  CB       -22.4200   -2.6980   13.8650 C.3   282  MET282      0.0427
    133  CG       -23.4880   -2.8500   12.7990 C.3   282  MET282      0.0599
    134  SD       -22.8310   -2.6170   11.1500 S.3   282  MET282     -0.1393
    135  CE       -21.8420   -4.1000   10.9860 C.3   282  MET282      0.0692
    136  N        -21.1960   -3.8520   16.7200 N.am  283  TRP283     -0.1960
    137  CA       -20.0660   -3.7940   17.6290 C.3   283  TRP283      0.1771
    138  C        -18.7760   -3.6560   16.8310 C.2   283  TRP283      0.2620
    139  O        -17.7290   -3.3380   17.3860 O.2   283  TRP283     -0.2715
    140  CB       -20.0180   -5.0670   18.4690 C.3   283  TRP283      0.0590
    141  CG       -19.9300   -6.3010   17.6310 C.ar  283  TRP283      0.0006
    142  CD1      -20.9680   -7.0520   17.1630 C.ar  283  TRP283      0.0946
    143  CD2      -18.7340   -6.9180   17.1410 C.ar  283  TRP283      0.0152
    144  NE1      -20.4910   -8.1030   16.4160 N.ar  283  TRP283     -0.2442
    145  CE2      -19.1220   -8.0430   16.3890 C.ar  283  TRP283      0.0810
    146  CE3      -17.3710   -6.6290   17.2650 C.ar  283  TRP283      0.0012
    147  CZ2      -18.1990   -8.8770   15.7650 C.ar  283  TRP283      0.0191
    148  CZ3      -16.4560   -7.4600   16.6460 C.ar  283  TRP283      0.0001
    149  CH2      -16.8740   -8.5690   15.9060 C.ar  283  TRP283      0.0015
    150  N        -18.8540   -3.9000   15.5260 N.am  284  GLN284     -0.1963
    151  CA       -17.6720   -3.8440   14.6680 C.3   284  GLN284      0.1733
    152  C        -17.4010   -2.4240   14.1980 C.2   284  GLN284      0.2616
    153  O        -16.2550   -1.9990   14.0670 O.2   284  GLN284     -0.2715
    154  CB       -17.8470   -4.7380   13.4390 C.3   284  GLN284      0.0408
    155  CG       -18.3770   -6.1220   13.7180 C.3   284  GLN284      0.0908
    156  CD       -19.8780   -6.2030   13.5510 C.2   284  GLN284      0.2608
    157  OE1      -20.5900   -5.2210   13.7580 O.2   284  GLN284     -0.2717
    158  NE2      -20.3690   -7.3730   13.1600 N.am  284  GLN284     -0.0878
    159  N        -18.4810   -1.7010   13.9400 N.am  285  GLU285     -0.1963
    160  CA       -18.4030   -0.3750   13.3520 C.3   285  GLU285      0.1733
    161  C        -19.4580    0.5320   13.9520 C.2   285  GLU285      0.2616
    162  O        -20.4370    0.0600   14.5230 O.2   285  GLU285     -0.2715
    163  CB       -18.6250   -0.4650   11.8420 C.3   285  GLU285      0.0429
    164  CG       -17.4920    0.0920   10.9960 C.3   285  GLU285      0.1163
    165  CD       -17.7390   -0.0930    9.5090 C.2   285  GLU285      0.3649
    166  OE1      -18.7870   -0.6720    9.1440 O.co2 285  GLU285     -0.2457
    167  OE2      -16.8860    0.3410    8.7050 O.co2 285  GLU285     -0.2457
    168  N        -19.2530    1.8360   13.8270 N.am  286  VAL286     -0.1977
    169  CA       -20.2770    2.7910   14.2080 C.3   286  VAL286      0.1596
    170  C        -21.3370    2.7750   13.1180 C.2   286  VAL286      0.2287
    171  O        -21.2610    3.5270   12.1470 O.2   286  VAL286     -0.2864
    172  CB       -19.7060    4.2060   14.3540 C.3   286  VAL286      0.0276
    173  CG1      -20.8060    5.1730   14.7320 C.3   286  VAL286      0.0022
    174  CG2      -18.5950    4.2250   15.3910 C.3   286  VAL286      0.0022
    175  N        -19.3030   -3.5030   25.2200 N.3   326  GLY326     -0.1210
    176  CA       -19.4390   -2.7010   24.0220 C.3   326  GLY326      0.1956
    177  C        -18.2180   -2.8820   23.1490 C.2   326  GLY326      0.2612
    178  O        -18.3170   -3.3520   22.0180 O.2   326  GLY326     -0.2717
    179  N        -17.0600   -2.5090   23.6840 N.am  327  ASP327     -0.1959
    180  CA       -15.7950   -2.7650   23.0170 C.3   327  ASP327      0.1840
    181  C        -15.4500   -4.2420   23.1600 C.2   327  ASP327      0.2621
    182  O        -14.9750   -4.6780   24.2080 O.2   327  ASP327     -0.2715
    183  CB       -14.6860   -1.9010   23.6180 C.3   327  ASP327      0.1450
    184  CG       -13.3380   -2.1460   22.9670 C.2   327  ASP327      0.3671
    185  OD1      -13.3150   -2.5920   21.8010 O.co2 327  ASP327     -0.2456
    186  OD2      -12.3030   -1.8920   23.6200 O.co2 327  ASP327     -0.2456
    187  N        -15.7020   -5.0100   22.1030 N.am  328  MET328     -0.1977
    188  CA       -15.4810   -6.4520   22.1270 C.3   328  MET328      0.1605
    189  C        -14.0150   -6.7980   22.3110 C.2   328  MET328      0.2287
    190  O        -13.6800   -7.9410   22.6120 O.2   328  MET328     -0.2864
    191  CB       -16.0090   -7.1140   20.8500 C.3   328  MET328      0.0413
    192  CG       -17.5050   -6.9990   20.6770 C.3   328  MET328      0.0598
    193  SD       -18.3990   -7.7060   22.0660 S.3   328  MET328     -0.1393
    194  CE       -20.0300   -7.0160   21.7970 C.3   328  MET328      0.0692
@<TRIPOS>BOND
     1   167   165   ar
     2    14    13    2
     3   166   165   ar
     4    13    12    1
     5   165   164    1
     6    11    12    1
     7    12    15    1
     8   135   134    1
     9   164   163    1
    10   134   133    1
    11   163   160    1
    12    15    16    1
    13   171   170    2
    14   133   132    1
    15   170   169    1
    16   158   156   am
    17    16    17   ar
    18    16    18   ar
    19   160   159    1
    20   160   161    1
    21   154   155    1
    22   154   151    1
    23   156   155    1
    24   156   157    2
    25   168   161   am
    26   168   169    1
    27    17    19   ar
    28   132   129    1
    29   159   152   am
    30   161   162    2
    31    21    18   ar
    32    21    23   ar
    33   153   152    2
    34    18    20   ar
    35   152   151    1
    36   169   172    1
    37   172   173    1
    38   172   174    1
    39    97    99   ar
    40    97    95   ar
    41     4     3    2
    42   151   150    1
    43   115   114    2
    44    99    98   ar
    45    19    20   ar
    46     3     2    1
    47    23    24   ar
    48   112   113    1
    49    20    22   ar
    50   129   128    1
    51   129   130    1
    52   117   119    1
    53   117   116    1
    54    95    94   ar
    55   150   138   am
    56   118   116    1
    57   128   122   am
    58   147   149   ar
    59   147   145   ar
    60   114   113    1
    61   114   120   am
    62   149   148   ar
    63    98    96   ar
    64   116   113    1
    65    88    86   am
    66    24    22   ar
    67   130   131    2
    68   130   136   am
    69   145   144   ar
    70   145   143   ar
    71   144   142   ar
    72     8    10   ar
    73     8     6   ar
    74     2     1    1
    75     2     5    1
    76    87    86    2
    77   148   146   ar
    78   122   121    1
    79   122   123    2
    80    94    96   ar
    81    94    93    1
    82   136   137    1
    83   121   120    1
    84   121   124    1
    85   138   139    2
    86   138   137    1
    87    86    85    1
    88     5     6    1
    89    10     9   ar
    90   143   146   ar
    91   143   141   ar
    92   142   141   ar
    93   126   125    2
    94     6     7   ar
    95    89    90    1
    96   137   140    1
    97   141   140    1
    98    93    90    1
    99   125   124    1
   100   125   127   am
   101     9     7   ar
   102    85    82    1
   103    90    91    1
   104    31    29    1
   105    82    83    1
   106    82    81    1
   107   111   110    1
   108    92    91    2
   109    83    84    2
   110    29    30    1
   111    29    26    1
   112    55    53   ar
   113   108   110   ar
   114   108   106   ar
   115   110   109   ar
   116    81    72   am
   117    53    52    1
   118    53    54   ar
   119   192   191    1
   120   192   193    1
   121   191   188    1
   122    52    51    1
   123    25    26    1
   124    73    72    2
   125    26    27    1
   126    72    71    1
   127   106   105   ar
   128    46    44   ar
   129   109   107   ar
   130   194   193    1
   131   185   184   ar
   132    45    44   ar
   133    28    27    2
   134    44    43    1
   135   178   177    2
   136   187   188    1
   137   187   181   am
   138   188   189    1
   139    51    48    1
   140   189   190    2
   141    71    70    1
   142    71    74    1
   143   105   107   ar
   144   105   104    1
   145    43    40    1
   146   184   183    1
   147   184   186   ar
   148   180   181    1
   149   180   183    1
   150   180   179    1
   151    70    66   am
   152   177   179   am
   153   177   176    1
   154   181   182    2
   155   100   101    1
   156    48    47    1
   157    48    49    1
   158    74    75    1
   159    68    69    1
   160    68    65    1
   161    77    75   ar
   162    77    79   ar
   163   104   101    1
   164    66    67    2
   165    66    65    1
   166    40    41    1
   167    40    39    1
   168   176   175    1
   169    75    76   ar
   170    79    80   ar
   171   101   102    1
   172    65    64    1
   173    41    42    2
   174    49    50    2
   175    49    56   am
   176    38    36    1
   177    63    61    1
   178    76    78   ar
   179    80    78   ar
   180    61    60    1
   181    56    57    1
   182   102   103    2
   183    32    33    1
   184    37    36    1
   185    36    33    1
   186    60    57    1
   187    60    62    1
   188    57    58    1
   189    33    34    1
   190    58    59    2
   191    34    35    2
