@<TRIPOS>MOLECULE
tmp/3tguT00.pdb
 92 88 0 0 0
SMALL
GASTEIGER

@<TRIPOS>ATOM
      1  N         26.5410  108.8080  128.3860 N.3     7  TYR7       -0.1241
      2  CA        26.9220  107.9060  127.3210 C.3     7  TYR7        0.1605
      3  C         25.7940  106.9450  126.9740 C.2     7  TYR7        0.2264
      4  O         25.5870  106.6170  125.8160 O.2     7  TYR7       -0.2867
      5  CB        28.1530  107.1030  127.7230 C.3     7  TYR7        0.0534
      6  CG        28.4600  105.9840  126.7550 C.ar    7  TYR7       -0.0201
      7  CD1       29.2760  106.1970  125.6380 C.ar    7  TYR7       -0.0009
      8  CD2       27.8960  104.7170  126.9320 C.ar    7  TYR7       -0.0009
      9  CE1       29.5200  105.1720  124.7240 C.ar    7  TYR7        0.0417
     10  CE2       28.1310  103.6920  126.0270 C.ar    7  TYR7        0.0417
     11  CZ        28.9410  103.9210  124.9260 C.ar    7  TYR7        0.1957
     12  OH        29.1550  102.8940  124.0340 O.3     7  TYR7       -0.2866
     13  N         24.9550  109.7070  124.0310 N.3    11  PHE11      -0.1227
     14  CA        25.9520  109.3430  123.0240 C.3    11  PHE11       0.1736
     15  C         25.9250  107.9210  122.4380 C.2    11  PHE11       0.2595
     16  O         26.6440  107.6270  121.4700 O.2    11  PHE11      -0.2718
     17  CB        27.3350  109.6440  123.6040 C.3    11  PHE11       0.0547
     18  CG        27.4230  110.9810  124.3050 C.ar   11  PHE11      -0.0202
     19  CD1       28.3970  111.2130  125.2690 C.ar   11  PHE11      -0.0042
     20  CD2       26.5330  112.0070  124.0020 C.ar   11  PHE11      -0.0042
     21  CE1       28.4810  112.4390  125.9140 C.ar   11  PHE11      -0.0003
     22  CE2       26.6120  113.2330  124.6440 C.ar   11  PHE11      -0.0003
     23  CZ        27.5880  113.4510  125.6020 C.ar   11  PHE11      -0.0000
     24  N         25.0900  107.0520  123.0060 N.am   12  ARG12      -0.1980
     25  CA        24.9890  105.6670  122.5510 C.3    12  ARG12       0.1597
     26  C         24.4410  105.5940  121.1250 C.2    12  ARG12       0.2287
     27  O         25.1960  105.4260  120.1610 O.2    12  ARG12      -0.2864
     28  CB        24.0790  104.8690  123.4970 C.3    12  ARG12       0.0334
     29  CG        24.2620  103.3550  123.4160 C.3    12  ARG12       0.0492
     30  CD        25.4750  102.8880  124.2130 C.3    12  ARG12       0.2205
     31  NE        25.8560  101.4970  123.9460 N.pl3  12  ARG12      -0.0865
     32  CZ        25.0170  100.4590  123.9240 C.cat  12  ARG12       0.5346
     33  NH1       23.7140  100.6220  124.1490 N.pl3  12  ARG12       0.1354
     34  NH2       25.4910   99.2410  123.6770 N.pl3  12  ARG12       0.1354
     35  N         23.1400  106.8440  117.6980 N.3    14  THR14      -0.1218
     36  CA        23.4110  108.0120  116.8670 C.3    14  THR14       0.1862
     37  C         22.1910  108.9330  116.7910 C.2    14  THR14       0.2287
     38  O         22.3290  110.1560  116.6980 O.2    14  THR14      -0.2866
     39  CB        23.8360  107.5880  115.4430 C.3    14  THR14       0.1770
     40  OG1       24.9840  106.7320  115.5260 O.3    14  THR14      -0.2211
     41  CG2       24.1980  108.8060  114.6040 C.3    14  THR14       0.0375
     42  N         22.1100  110.9990  119.8430 N.3    17  PHE17      -0.1227
     43  CA        23.2940  111.8560  119.8460 C.3    17  PHE17       0.1736
     44  C         23.0120  113.1150  119.0370 C.2    17  PHE17       0.2595
     45  O         23.3530  114.2190  119.4550 O.2    17  PHE17      -0.2718
     46  CB        24.4960  111.1170  119.2550 C.3    17  PHE17       0.0547
     47  CG        25.7290  111.9630  119.1180 C.ar   17  PHE17      -0.0202
     48  CD1       25.7870  113.0060  118.1900 C.ar   17  PHE17      -0.0042
     49  CD2       26.8440  111.7130  119.9110 C.ar   17  PHE17      -0.0042
     50  CE1       26.9430  113.7840  118.0580 C.ar   17  PHE17      -0.0003
     51  CE2       28.0080  112.4850  119.7880 C.ar   17  PHE17      -0.0003
     52  CZ        28.0590  113.5190  118.8630 C.ar   17  PHE17      -0.0000
     53  N         22.3930  112.9440  117.8720 N.am   18  ALA18      -0.1980
     54  CA        22.0670  114.0800  117.0120 C.3    18  ALA18       0.1597
     55  C         21.0040  114.9320  117.6910 C.2    18  ALA18       0.2287
     56  O         21.1020  116.1600  117.7210 O.2    18  ALA18      -0.2864
     57  CB        21.5650  113.5950  115.6500 C.3    18  ALA18       0.0319
     58  N         22.6580  117.0370  120.0920 N.3    21  VAL21      -0.1231
     59  CA        23.4000  118.1540  119.5030 C.3    21  VAL21       0.1692
     60  C         22.4680  119.3290  119.2120 C.2    21  VAL21       0.2591
     61  O         22.8510  120.4870  119.3880 O.2    21  VAL21      -0.2718
     62  CB        24.1150  117.7480  118.1880 C.3    21  VAL21       0.0266
     63  CG1       24.8340  118.9520  117.5810 C.3    21  VAL21       0.0020
     64  CG2       25.1140  116.6480  118.4620 C.3    21  VAL21       0.0020
     65  N         21.2440  119.0320  118.7790 N.am   22  VAL22      -0.1980
     66  CA        20.2760  120.0810  118.4800 C.3    22  VAL22       0.1595
     67  C         19.8890  120.8400  119.7470 C.2    22  VAL22       0.2287
     68  O         20.1610  122.0360  119.8620 O.2    22  VAL22      -0.2864
     69  CB        18.9950  119.5100  117.8220 C.3    22  VAL22       0.0276
     70  CG1       17.9640  120.6090  117.6550 C.3    22  VAL22       0.0022
     71  CG2       19.3270  118.9210  116.4570 C.3    22  VAL22       0.0022
     72  N         22.5590  122.8360  120.9740 N.3    25  ALA25      -0.1231
     73  CA        22.8010  124.0860  120.2740 C.3    25  ALA25       0.1694
     74  C         21.7280  125.1160  120.6640 C.2    25  ALA25       0.2591
     75  O         22.0430  126.2710  120.9540 O.2    25  ALA25      -0.2718
     76  CB        22.8040  123.8510  118.7790 C.3    25  ALA25       0.0304
     77  N         20.4670  124.6980  120.6900 N.am   26  VAL26      -0.1980
     78  CA        19.3960  125.6100  121.0620 C.3    26  VAL26       0.1595
     79  C         19.7160  126.2910  122.3880 C.2    26  VAL26       0.2287
     80  O         19.7350  127.5220  122.4860 O.2    26  VAL26      -0.2864
     81  CB        18.0460  124.8720  121.2070 C.3    26  VAL26       0.0276
     82  CG1       17.0140  125.7960  121.8300 C.3    26  VAL26       0.0022
     83  CG2       17.5590  124.4060  119.8460 C.3    26  VAL26       0.0022
     84  N         23.0270  128.4810  122.4080 N.3    29  GLU29      -0.1245
     85  CA        22.9110  129.7720  121.7460 C.3    29  GLU29       0.1567
     86  C         22.3210  130.7900  122.7200 C.2    29  GLU29       0.2260
     87  O         22.9640  131.7760  123.0800 O.2    29  GLU29      -0.2867
     88  CB        22.0100  129.6570  120.5140 C.3    29  GLU29       0.0388
     89  CG        22.0530  130.8720  119.6050 C.3    29  GLU29       0.1160
     90  CD        21.0180  130.8160  118.5080 C.2    29  GLU29       0.3649
     91  OE1       21.1690  131.5790  117.5300 O.co2  29  GLU29      -0.2457
     92  OE2       20.0560  130.0190  118.6270 O.co2  29  GLU29      -0.2457
@<TRIPOS>BOND
     1    41    39    1
     2    39    40    1
     3    39    36    1
     4    57    54    1
     5    71    69    1
     6    38    37    2
     7    37    36    1
     8    36    35    1
     9    54    55    1
    10    54    53    1
    11    91    90   ar
    12    63    62    1
    13    70    69    1
    14    55    56    2
    15    69    66    1
    16    53    44   am
    17    50    48   ar
    18    50    52   ar
    19    62    64    1
    20    62    59    1
    21    48    47   ar
    22    66    65    1
    23    66    67    1
    24    90    92   ar
    25    90    89    1
    26    65    60   am
    27    76    73    1
    28    52    51   ar
    29    44    45    2
    30    44    43    1
    31    47    46    1
    32    47    49   ar
    33    60    61    2
    34    60    59    1
    35    46    43    1
    36    59    58    1
    37    89    88    1
    38    67    68    2
    39    51    49   ar
    40    42    43    1
    41    83    81    1
    42    27    26    2
    43    73    74    1
    44    73    72    1
    45    88    85    1
    46    74    77   am
    47    74    75    2
    48    77    78    1
    49    78    81    1
    50    78    79    1
    51    26    25    1
    52    81    82    1
    53    16    15    2
    54    85    84    1
    55    85    86    1
    56    79    80    2
    57    15    24   am
    58    15    14    1
    59    25    24    1
    60    25    28    1
    61    86    87    2
    62    14    17    1
    63    14    13    1
    64    29    28    1
    65    29    30    1
    66    17    18    1
    67    34    32    1
    68    32    31    2
    69    32    33    1
    70    31    30    1
    71    20    18   ar
    72    20    22   ar
    73    12    11    1
    74    18    19   ar
    75    22    23   ar
    76     9    11   ar
    77     9     7   ar
    78    11    10   ar
    79    19    21   ar
    80    23    21   ar
    81     7     6   ar
    82     4     3    2
    83    10     8   ar
    84     6     8   ar
    85     6     5    1
    86     3     2    1
    87     2     5    1
    88     2     1    1
