@<TRIPOS>MOLECULE
tmp/3tguC02.pdb
 190 183 0 0 0
SMALL
GASTEIGER

@<TRIPOS>ATOM
      1  N         15.8640  122.1480   83.6050 N.3   121  LEU121     -0.1245
      2  CA        15.4210  123.1520   84.5630 C.3   121  LEU121      0.1561
      3  C         16.4360  124.2930   84.6840 C.2   121  LEU121      0.2260
      4  O         16.0730  125.4670   84.6030 O.2   121  LEU121     -0.2867
      5  CB        15.1680  122.5010   85.9310 C.3   121  LEU121      0.0270
      6  CG        14.0380  121.4550   85.9460 C.3   121  LEU121      0.0019
      7  CD1       13.9330  120.7680   87.2960 C.3   121  LEU121      0.0001
      8  CD2       12.7380  122.1490   85.6160 C.3   121  LEU121      0.0001
      9  N         16.2500  126.5080   81.8010 N.3   124  MET124     -0.1230
     10  CA        15.0530  127.3460   81.8310 C.3   124  MET124      0.1702
     11  C         15.1910  128.5200   82.7760 C.2   124  MET124      0.2592
     12  O         14.7690  129.6360   82.4610 O.2   124  MET124     -0.2718
     13  CB        13.8340  126.5190   82.2120 C.3   124  MET124      0.0401
     14  CG        13.2870  125.7250   81.0490 C.3   124  MET124      0.0596
     15  SD        12.1750  124.4560   81.5790 S.3   124  MET124     -0.1393
     16  CE        10.6100  125.2920   81.5130 C.3   124  MET124      0.0692
     17  N         15.7700  128.2850   83.9440 N.am  125  ALA125     -0.1980
     18  CA        15.9510  129.3840   84.8790 C.3   125  ALA125      0.1597
     19  C         16.9610  130.3660   84.2710 C.2   125  ALA125      0.2287
     20  O         16.7950  131.5870   84.3530 O.2   125  ALA125     -0.2864
     21  CB        16.4510  128.8640   86.2070 C.3   125  ALA125      0.0319
     22  N         17.6070  131.0990   81.0700 N.3   127  ALA127     -0.1231
     23  CA        17.0010  131.9410   80.0390 C.3   127  ALA127      0.1694
     24  C         16.0290  132.9310   80.6810 C.2   127  ALA127      0.2592
     25  O         15.8900  134.0710   80.2400 O.2   127  ALA127     -0.2718
     26  CB        16.2930  131.0830   79.0050 C.3   127  ALA127      0.0304
     27  N         15.3690  132.4950   81.7440 N.am  128  PHE128     -0.1976
     28  CA        14.4380  133.3570   82.4480 C.3   128  PHE128      0.1639
     29  C         15.1140  134.6270   82.9720 C.2   128  PHE128      0.2290
     30  O         14.6500  135.7300   82.7110 O.2   128  PHE128     -0.2864
     31  CB        13.8260  132.6080   83.6150 C.3   128  PHE128      0.0560
     32  CG        12.8820  133.4360   84.4160 C.ar  128  PHE128     -0.0200
     33  CD1       11.6040  133.7130   83.9380 C.ar  128  PHE128     -0.0042
     34  CD2       13.2700  133.9540   85.6440 C.ar  128  PHE128     -0.0042
     35  CE1       10.7260  134.4880   84.6720 C.ar  128  PHE128     -0.0003
     36  CE2       12.3940  134.7380   86.3880 C.ar  128  PHE128     -0.0003
     37  CZ        11.1200  135.0040   85.9020 C.ar  128  PHE128     -0.0000
     38  N         16.5930  136.8990   80.2440 N.3   131  TYR131     -0.1227
     39  CA        15.5880  137.6730   79.5230 C.3   131  TYR131      0.1736
     40  C         15.3030  139.0070   80.1790 C.2   131  TYR131      0.2595
     41  O         14.8910  139.9530   79.5170 O.2   131  TYR131     -0.2718
     42  CB        14.2880  136.8860   79.4240 C.3   131  TYR131      0.0548
     43  CG        13.3120  137.4520   78.4260 C.ar  131  TYR131     -0.0200
     44  CD1       13.5840  137.4060   77.0650 C.ar  131  TYR131     -0.0009
     45  CD2       12.1090  138.0300   78.8360 C.ar  131  TYR131     -0.0009
     46  CE1       12.6810  137.9200   76.1230 C.ar  131  TYR131      0.0417
     47  CE2       11.1940  138.5470   77.9020 C.ar  131  TYR131      0.0417
     48  CZ        11.4920  138.4850   76.5480 C.ar  131  TYR131      0.1957
     49  OH        10.6130  138.9780   75.6180 O.3   131  TYR131     -0.2866
     50  N         15.5150  139.0860   81.4820 N.am  132  VAL132     -0.1980
     51  CA        15.2610  140.3250   82.2010 C.3   132  VAL132      0.1595
     52  C         16.3090  141.3970   81.9550 C.2   132  VAL132      0.2287
     53  O         16.0240  142.5830   82.0390 O.2   132  VAL132     -0.2864
     54  CB        15.2280  140.0970   83.7250 C.3   132  VAL132      0.0276
     55  CG1       15.0540  141.4250   84.4390 C.3   132  VAL132      0.0022
     56  CG2       14.1100  139.1610   84.0920 C.3   132  VAL132      0.0022
     57  N          8.6300  143.6460   78.2610 N.3   138  MET138     -0.1230
     58  CA         8.3430  142.2380   78.4740 C.3   138  MET138      0.1702
     59  C          9.2970  141.6640   79.4930 C.2   138  MET138      0.2593
     60  O          8.9570  140.7220   80.1970 O.2   138  MET138     -0.2718
     61  CB         8.4360  141.4470   77.1700 C.3   138  MET138      0.0401
     62  CG         7.6380  140.1440   77.2170 C.3   138  MET138      0.0596
     63  SD         5.9070  140.3500   77.8210 S.3   138  MET138     -0.1393
     64  CE         5.1690  141.0720   76.3730 C.3   138  MET138      0.0692
     65  N         10.4910  142.2440   79.5800 N.am  139  SER139     -0.1952
     66  CA        11.4950  141.7860   80.5310 C.3   139  SER139      0.1924
     67  C         10.9880  142.0310   81.9320 C.2   139  SER139      0.2314
     68  O         11.1100  141.1860   82.8160 O.2   139  SER139     -0.2863
     69  CB        12.7940  142.5590   80.3430 C.3   139  SER139      0.2116
     70  OG        13.2600  142.4560   79.0100 O.3   139  SER139     -0.2180
     71  N          7.3620  140.1310   82.4710 N.3   142  GLY142     -0.1210
     72  CA         7.5330  138.6940   82.5230 C.3   142  GLY142      0.1956
     73  C          8.0710  138.3950   83.9230 C.2   142  GLY142      0.2611
     74  O          7.5740  137.5170   84.6460 O.2   142  GLY142     -0.2717
     75  N          9.0870  139.1540   84.3240 N.am  143  ALA143     -0.1979
     76  CA         9.6840  138.9740   85.6350 C.3   143  ALA143      0.1597
     77  C          8.6290  139.1760   86.7210 C.2   143  ALA143      0.2287
     78  O          8.4990  138.3700   87.6410 O.2   143  ALA143     -0.2864
     79  CB        10.8350  139.9550   85.8220 C.3   143  ALA143      0.0319
     80  N          5.1340  139.1380   86.5960 N.3   145  VAL145     -0.1231
     81  CA         4.0800  138.1360   86.5910 C.3   145  VAL145      0.1692
     82  C          4.4980  136.7600   87.1090 C.2   145  VAL145      0.2591
     83  O          3.8210  136.1690   87.9510 O.2   145  VAL145     -0.2718
     84  CB         3.5230  137.9730   85.1760 C.3   145  VAL145      0.0266
     85  CG1        3.2000  136.5180   84.8940 C.3   145  VAL145      0.0020
     86  CG2        2.2950  138.8340   85.0210 C.3   145  VAL145      0.0020
     87  N          5.6110  136.2510   86.6000 N.am  146  ILE146     -0.1980
     88  CA         6.0790  134.9360   86.9890 C.3   146  ILE146      0.1595
     89  C          6.5730  134.8020   88.4270 C.2   146  ILE146      0.2287
     90  O          6.1640  133.8840   89.1510 O.2   146  ILE146     -0.2864
     91  CB         7.1740  134.4680   86.0280 C.3   146  ILE146      0.0276
     92  CG1        6.5900  134.3520   84.6190 C.3   146  ILE146      0.0022
     93  CG2        7.7260  133.1390   86.4710 C.3   146  ILE146      0.0022
     94  CD1        5.3700  133.4790   84.5420 C.3   146  ILE146      0.0001
     95  N          0.9390  139.8130   77.7510 N.3   268  ILE268     -0.1231
     96  CA         2.1720  139.3460   78.3570 C.3   268  ILE268      0.1692
     97  C          2.3910  137.8830   78.0120 C.2   268  ILE268      0.2592
     98  O          1.6850  137.0150   78.5220 O.2   268  ILE268     -0.2718
     99  CB         2.1010  139.4670   79.8980 C.3   268  ILE268      0.0266
    100  CG1        2.1240  140.9340   80.3120 C.3   268  ILE268      0.0019
    101  CG2        3.2440  138.7110   80.5460 C.3   268  ILE268      0.0020
    102  CD1        2.0590  141.1270   81.8190 C.3   268  ILE268      0.0001
    103  N          3.3600  137.5970   77.1550 N.am  269  LYS269     -0.1966
    104  CA         3.6310  136.2080   76.8090 C.3   269  LYS269      0.1713
    105  C          5.1320  135.9800   76.6500 C.2   269  LYS269      0.2458
    106  O          5.8580  136.8440   76.1570 O.2   269  LYS269     -0.2730
    107  CB         2.8890  135.8290   75.5280 C.3   269  LYS269      0.0311
    108  CG         3.2710  136.6540   74.3040 C.3   269  LYS269      0.0038
    109  CD         2.4690  136.2260   73.0790 C.3   269  LYS269      0.0206
    110  CE         3.2270  136.4740   71.7820 C.3   269  LYS269      0.1093
    111  NZ         4.4350  135.5850   71.6400 N.3   269  LYS269     -0.1314
    112  N          5.6160  134.8040   77.0590 N.am  270  PRO270     -0.2716
    113  CA         7.0290  134.4160   76.9870 C.3   270  PRO270      0.1536
    114  C          7.5420  134.1510   75.5790 C.2   270  PRO270      0.2598
    115  O          6.8230  134.3300   74.6000 O.2   270  PRO270     -0.2715
    116  CB         7.0620  133.1490   77.8240 C.3   270  PRO270      0.0310
    117  CG         5.7640  132.5120   77.4660 C.3   270  PRO270      0.0237
    118  CD         4.8000  133.6860   77.5650 C.3   270  PRO270      0.0939
    119  N          8.8010  133.7280   75.4900 N.am  271  GLU271     -0.1978
    120  CA         9.4110  133.3700   74.2120 C.3   271  GLU271      0.1602
    121  C          8.8290  132.0080   73.8280 C.2   271  GLU271      0.2287
    122  O          8.3750  131.2520   74.6850 O.2   271  GLU271     -0.2864
    123  CB        10.9240  133.2650   74.3530 C.3   271  GLU271      0.0415
    124  CG        11.6060  134.6080   74.4900 C.3   271  GLU271      0.1163
    125  CD        11.7540  135.3120   73.1600 C.2   271  GLU271      0.3649
    126  OE1       10.8900  135.0940   72.2850 O.co2 271  GLU271     -0.2457
    127  OE2       12.7260  136.0850   72.9970 O.co2 271  GLU271     -0.2457
    128  N          9.7590  129.0150   73.3910 N.3   273  TYR273     -0.1227
    129  CA        10.0780  127.8290   74.1810 C.3   273  TYR273      0.1736
    130  C          9.4030  127.6850   75.5430 C.2   273  TYR273      0.2595
    131  O          9.4870  126.6290   76.1600 O.2   273  TYR273     -0.2718
    132  CB        11.5990  127.6660   74.3080 C.3   273  TYR273      0.0548
    133  CG        12.3430  128.9170   74.6990 C.ar  273  TYR273     -0.0200
    134  CD1       12.4140  129.3230   76.0250 C.ar  273  TYR273     -0.0009
    135  CD2       13.0300  129.6670   73.7390 C.ar  273  TYR273     -0.0009
    136  CE1       13.1640  130.4510   76.3990 C.ar  273  TYR273      0.0417
    137  CE2       13.7790  130.7900   74.0960 C.ar  273  TYR273      0.0417
    138  CZ        13.8390  131.1730   75.4340 C.ar  273  TYR273      0.1957
    139  OH        14.5660  132.2780   75.8160 O.3   273  TYR273     -0.2866
    140  N          8.7260  128.7220   76.0110 N.am  274  PHE274     -0.1976
    141  CA         8.0220  128.6430   77.2940 C.3   274  PHE274      0.1639
    142  C          6.4960  128.6370   77.0880 C.2   274  PHE274      0.2290
    143  O          5.7510  128.3700   78.0190 O.2   274  PHE274     -0.2864
    144  CB         8.3650  129.8380   78.1810 C.3   274  PHE274      0.0560
    145  CG         9.6370  129.6910   78.9520 C.ar  274  PHE274     -0.0200
    146  CD1       10.5700  130.7170   78.9700 C.ar  274  PHE274     -0.0042
    147  CD2        9.8860  128.5580   79.7090 C.ar  274  PHE274     -0.0042
    148  CE1       11.7310  130.6200   79.7300 C.ar  274  PHE274     -0.0003
    149  CE2       11.0540  128.4550   80.4780 C.ar  274  PHE274     -0.0003
    150  CZ        11.9730  129.4900   80.4860 C.ar  274  PHE274     -0.0000
    151  N          4.2250  125.7810   78.3800 N.3   277  ALA277     -0.1231
    152  CA         4.1170  125.7900   79.8380 C.3   277  ALA277      0.1694
    153  C          3.2080  126.9130   80.3290 C.2   277  ALA277      0.2592
    154  O          2.5250  126.7850   81.3470 O.2   277  ALA277     -0.2718
    155  CB         5.4940  125.9290   80.4470 C.3   277  ALA277      0.0304
    156  N          3.2170  128.0180   79.5960 N.am  278  TYR278     -0.1976
    157  CA         2.3930  129.1730   79.9130 C.3   278  TYR278      0.1639
    158  C          0.9280  128.7600   79.7640 C.2   278  TYR278      0.2290
    159  O          0.0740  129.0950   80.5870 O.2   278  TYR278     -0.2864
    160  CB         2.7140  130.2890   78.9280 C.3   278  TYR278      0.0560
    161  CG         2.2640  131.6610   79.3620 C.ar  278  TYR278     -0.0198
    162  CD1        2.3370  132.0500   80.6950 C.ar  278  TYR278     -0.0009
    163  CD2        1.8650  132.6050   78.4220 C.ar  278  TYR278     -0.0009
    164  CE1        2.0340  133.3440   81.0780 C.ar  278  TYR278      0.0417
    165  CE2        1.5580  133.9050   78.7920 C.ar  278  TYR278      0.0417
    166  CZ         1.6450  134.2690   80.1160 C.ar  278  TYR278      0.1957
    167  OH         1.3390  135.5550   80.4790 O.3   278  TYR278     -0.2866
    168  N         -0.1260  126.7320   82.4660 N.3   281  LEU281     -0.1245
    169  CA        -0.2130  127.5540   83.6710 C.3   281  LEU281      0.1561
    170  C         -1.5800  128.2010   83.7680 C.2   281  LEU281      0.2260
    171  O         -2.2470  128.1370   84.7960 O.2   281  LEU281     -0.2867
    172  CB         0.8480  128.6500   83.6400 C.3   281  LEU281      0.0270
    173  CG         0.7160  129.7360   84.7130 C.3   281  LEU281      0.0019
    174  CD1        1.0040  129.1690   86.0940 C.3   281  LEU281      0.0001
    175  CD2        1.6890  130.8620   84.3980 C.3   281  LEU281      0.0001
    176  N          1.9820  123.9230   86.4190 N.3   294  LEU294     -0.1245
    177  CA         3.1430  124.3290   85.6440 C.3   294  LEU294      0.1561
    178  C          4.3230  123.5060   86.1210 C.2   294  LEU294      0.2260
    179  O          5.0480  122.9240   85.3240 O.2   294  LEU294     -0.2867
    180  CB         3.4410  125.8070   85.8610 C.3   294  LEU294      0.0270
    181  CG         4.7840  126.3180   85.3330 C.3   294  LEU294      0.0019
    182  CD1        4.9250  126.0290   83.8410 C.3   294  LEU294      0.0001
    183  CD2        4.8780  127.8060   85.5910 C.3   294  LEU294      0.0001
    184  N          6.7600  120.0070   83.9390 N.3   298  VAL298     -0.1245
    185  CA         8.1680  119.7340   83.6870 C.3   298  VAL298      0.1561
    186  C          8.6830  118.6220   84.6010 C.2   298  VAL298      0.2260
    187  O          9.3780  117.7170   84.1460 O.2   298  VAL298     -0.2867
    188  CB         9.0080  120.9980   83.8790 C.3   298  VAL298      0.0252
    189  CG1       10.4780  120.6480   83.8880 C.3   298  VAL298      0.0019
    190  CG2        8.7190  121.9700   82.7490 C.3   298  VAL298      0.0019
@<TRIPOS>BOND
     1   111   110    1
     2   110   109    1
     3   126   125   ar
     4   127   125   ar
     5   109   108    1
     6   125   124    1
     7   128   129    1
     8   135   137   ar
     9   135   133   ar
    10   121   120    1
    11   121   122    2
    12   137   138   ar
    13   129   132    1
    14   129   130    1
    15   120   123    1
    16   120   119    1
    17   108   107    1
    18   132   133    1
    19   123   124    1
    20   115   114    2
    21   133   134   ar
    22   138   139    1
    23   138   136   ar
    24   119   114   am
    25   107   104    1
    26   130   140   am
    27   130   131    2
    28   114   113    1
    29    49    48    1
    30   140   141    1
    31   134   136   ar
    32    46    48   ar
    33    46    44   ar
    34   106   105    2
    35    64    63    1
    36    48    47   ar
    37   105   104    1
    38   105   112   am
    39   104   103    1
    40   113   112    1
    41   113   116    1
    42   112   118    1
    43    44    43   ar
    44   142   141    1
    45   142   143    2
    46   103    97   am
    47    61    62    1
    48    61    58    1
    49    62    63    1
    50   141   144    1
    51   117   118    1
    52   117   116    1
    53    95    96    1
    54    47    45   ar
    55    97    96    1
    56    97    98    2
    57   144   145    1
    58    57    58    1
    59    96    99    1
    60   151   152    1
    61   163   165   ar
    62   163   161   ar
    63    43    45   ar
    64    43    42    1
    65    58    59    1
    66   165   166   ar
    67   160   161    1
    68   160   157    1
    69   145   146   ar
    70   145   147   ar
    71   146   148   ar
    72    26    23    1
    73    70    69    1
    74   161   162   ar
    75    42    39    1
    76    59    65   am
    77    59    60    2
    78    41    40    2
    79    39    40    1
    80    39    38    1
    81    65    66    1
    82   156   157    1
    83   156   153   am
    84   147   149   ar
    85   148   150   ar
    86   158   157    1
    87   158   159    2
    88   152   153    1
    89   152   155    1
    90    99   100    1
    91    99   101    1
    92    23    24    1
    93    23    22    1
    94   166   167    1
    95   166   164   ar
    96    40    50   am
    97    25    24    2
    98   100   102    1
    99   153   154    2
   100    69    66    1
   101   149   150   ar
   102    66    67    1
   103    24    27   am
   104   162   164   ar
   105    14    15    1
   106    14    13    1
   107    50    51    1
   108    16    15    1
   109    27    28    1
   110     9    10    1
   111    10    13    1
   112    10    11    1
   113    67    68    2
   114    52    53    2
   115    52    51    1
   116    51    54    1
   117    28    29    1
   118    28    31    1
   119    12    11    2
   120   168   169    1
   121    71    72    1
   122    72    73    1
   123    30    29    2
   124   190   188    1
   125    11    17   am
   126     1     2    1
   127    31    32    1
   128   172   169    1
   129   172   173    1
   130   169   170    1
   131   185   188    1
   132   185   184    1
   133   185   186    1
   134    54    56    1
   135    54    55    1
   136   170   171    2
   137   182   181    1
   138   188   189    1
   139    73    75   am
   140    73    74    2
   141    33    32   ar
   142    33    35   ar
   143    17    18    1
   144   187   186    2
   145    19    20    2
   146    19    18    1
   147    75    76    1
   148   175   173    1
   149    32    34   ar
   150    94    92    1
   151     2     3    1
   152     2     5    1
   153     4     3    2
   154    92    91    1
   155    35    37   ar
   156   173   174    1
   157    18    21    1
   158    85    84    1
   159    86    84    1
   160    84    81    1
   161   179   178    2
   162   181   183    1
   163   181   180    1
   164     8     6    1
   165    76    79    1
   166    76    77    1
   167   177   180    1
   168   177   178    1
   169   177   176    1
   170    34    36   ar
   171    37    36   ar
   172     5     6    1
   173     6     7    1
   174    91    93    1
   175    91    88    1
   176    81    80    1
   177    81    82    1
   178    87    88    1
   179    87    82   am
   180    77    78    2
   181    88    89    1
   182    82    83    2
   183    89    90    2
