@<TRIPOS>MOLECULE
tmp/3tgwA01.pdb
 87 81 0 0 0
SMALL
GASTEIGER

@<TRIPOS>ATOM
      1  N        -19.9100  -15.1690   25.4720 N.3   136  PHE136     -0.1241
      2  CA       -21.3130  -15.4380   25.2800 C.3   136  PHE136      0.1605
      3  C        -21.3970  -16.5320   24.2050 C.2   136  PHE136      0.2264
      4  O        -20.8010  -16.3380   23.1090 O.2   136  PHE136     -0.2867
      5  CB       -22.0070  -14.0870   24.9340 C.3   136  PHE136      0.0534
      6  CG       -23.5130  -14.1770   24.8420 C.ar  136  PHE136     -0.0203
      7  CD1      -24.2530  -14.5790   25.9600 C.ar  136  PHE136     -0.0042
      8  CD2      -24.1770  -13.9160   23.6560 C.ar  136  PHE136     -0.0042
      9  CE1      -25.6410  -14.7110   25.9000 C.ar  136  PHE136     -0.0003
     10  CE2      -25.5830  -14.0300   23.5850 C.ar  136  PHE136     -0.0003
     11  CZ       -26.3030  -14.4330   24.7130 C.ar  136  PHE136     -0.0000
     12  N        -21.3080  -17.4820   29.5120 N.3   290  LEU290     -0.1245
     13  CA       -22.7800  -17.3180   29.6130 C.3   290  LEU290      0.1561
     14  C        -23.3030  -18.0010   28.3750 C.2   290  LEU290      0.2260
     15  O        -23.1490  -17.4390   27.2640 O.2   290  LEU290     -0.2867
     16  CB       -23.2160  -15.8390   29.5610 C.3   290  LEU290      0.0270
     17  CG       -22.5050  -14.7850   30.4860 C.3   290  LEU290      0.0019
     18  CD1      -23.1670  -13.3600   30.5160 C.3   290  LEU290      0.0001
     19  CD2      -22.5350  -15.3270   31.8920 C.3   290  LEU290      0.0001
     20  N        -26.3600  -19.1140   25.9940 N.3   292  MET292     -0.1245
     21  CA       -27.7460  -18.7470   25.7740 C.3   292  MET292      0.1570
     22  C        -28.5970  -19.9730   26.0570 C.2   292  MET292      0.2261
     23  O        -28.4350  -21.0260   25.4560 O.2   292  MET292     -0.2867
     24  CB       -27.9760  -18.2790   24.3370 C.3   292  MET292      0.0387
     25  CG       -29.2470  -17.4790   24.2160 C.3   292  MET292      0.0595
     26  SD       -29.4010  -16.8060   22.5500 S.3   292  MET292     -0.1393
     27  CE       -27.9010  -15.8420   22.3840 C.3   292  MET292      0.0692
     28  N        -31.8990  -12.9650   35.2460 N.3   303  ASP303     -0.1225
     29  CA       -31.3870  -12.3470   34.0180 C.3   303  ASP303      0.1805
     30  C        -29.8990  -12.3420   34.0510 C.2   303  ASP303      0.2598
     31  O        -29.3200  -11.8770   35.0590 O.2   303  ASP303     -0.2718
     32  CB       -31.9000  -10.8820   34.0720 C.3   303  ASP303      0.1424
     33  CG       -31.6640  -10.0760   32.7620 C.2   303  ASP303      0.3668
     34  OD1      -30.9640  -10.5280   31.8300 O.co2 303  ASP303     -0.2456
     35  OD2      -32.2400   -8.9820   32.7150 O.co2 303  ASP303     -0.2456
     36  N        -29.2460  -12.7970   32.9850 N.am  304  LEU304     -0.1966
     37  CA       -27.7820  -12.8870   33.0090 C.3   304  LEU304      0.1728
     38  C        -27.1990  -11.5450   32.5590 C.2   304  LEU304      0.2616
     39  O        -25.9720  -11.3810   32.6190 O.2   304  LEU304     -0.2715
     40  CB       -27.3030  -13.9460   32.0500 C.3   304  LEU304      0.0311
     41  CG       -27.8130  -15.3450   32.5940 C.3   304  LEU304      0.0022
     42  CD1      -27.3250  -16.4030   31.6990 C.3   304  LEU304      0.0001
     43  CD2      -27.4740  -15.6470   34.0950 C.3   304  LEU304      0.0001
     44  N        -28.0470  -10.6280   32.0550 N.am  305  SER305     -0.1950
     45  CA       -27.4850   -9.4140   31.4360 C.3   305  SER305      0.1924
     46  C        -26.7150   -8.5430   32.4440 C.2   305  SER305      0.2314
     47  O        -25.8960   -7.7140   32.0400 O.2   305  SER305     -0.2863
     48  CB       -28.5280   -8.6330   30.6410 C.3   305  SER305      0.2116
     49  OG       -29.4010   -7.9660   31.5230 O.3   305  SER305     -0.2180
     50  N        -22.9720   -8.3480   32.0980 N.3   308  ILE308     -0.1245
     51  CA       -22.4630   -7.7940   30.8400 C.3   308  ILE308      0.1561
     52  C        -22.3830   -6.2410   31.0290 C.2   308  ILE308      0.2260
     53  O        -23.1620   -5.4620   30.4710 O.2   308  ILE308     -0.2867
     54  CB       -23.4230   -8.2030   29.6650 C.3   308  ILE308      0.0252
     55  CG1      -23.7070   -9.7110   29.7620 C.3   308  ILE308      0.0019
     56  CG2      -22.8250   -7.8820   28.3380 C.3   308  ILE308      0.0019
     57  CD1      -24.8050  -10.2130   28.9220 C.3   308  ILE308      0.0001
     58  N        -18.2330   -7.9870   26.0010 N.3   312  GLN312     -0.1245
     59  CA       -18.5620   -9.4020   25.7750 C.3   312  GLN312      0.1566
     60  C        -17.7290   -9.9740   24.6670 C.2   312  GLN312      0.2260
     61  O        -17.3990   -9.2490   23.7520 O.2   312  GLN312     -0.2867
     62  CB       -20.0320   -9.5830   25.3400 C.3   312  GLN312      0.0367
     63  CG       -20.4490   -8.5310   24.3390 C.3   312  GLN312      0.0905
     64  CD       -21.5390   -7.6750   24.9450 C.2   312  GLN312      0.2608
     65  OE1      -22.6820   -7.7790   24.5560 O.2   312  GLN312     -0.2717
     66  NE2      -21.1930   -6.8820   25.9560 N.am  312  GLN312     -0.0878
     67  N        -18.0950  -12.6670   21.7080 N.3   314  VAL314     -0.1231
     68  CA       -19.2250  -13.4060   21.1300 C.3   314  VAL314      0.1692
     69  C        -18.7500  -14.5690   20.2390 C.2   314  VAL314      0.2591
     70  O        -17.9820  -14.3400   19.3020 O.2   314  VAL314     -0.2718
     71  CB       -20.0840  -12.4550   20.2110 C.3   314  VAL314      0.0266
     72  CG1      -21.2290  -13.2780   19.4710 C.3   314  VAL314      0.0020
     73  CG2      -20.6010  -11.2660   21.0990 C.3   314  VAL314      0.0020
     74  N        -19.2070  -15.7620   20.6130 N.am  315  VAL315     -0.1980
     75  CA       -18.9220  -16.9980   19.8750 C.3   315  VAL315      0.1595
     76  C        -20.0160  -17.1600   18.8370 C.2   315  VAL315      0.2287
     77  O        -21.2030  -17.1360   19.1820 O.2   315  VAL315     -0.2864
     78  CB       -18.8140  -18.2120   20.8400 C.3   315  VAL315      0.0276
     79  CG1      -18.3610  -19.4520   20.0590 C.3   315  VAL315      0.0022
     80  CG2      -17.6760  -17.9450   21.8160 C.3   315  VAL315      0.0022
     81  N        -19.5900   -7.9790   16.9970 N.3   332  PRO332     -0.2116
     82  CA       -20.5140   -7.7440   18.1290 C.3   332  PRO332      0.1372
     83  C        -19.7410   -7.8110   19.4560 C.2   332  PRO332      0.2244
     84  O        -20.2980   -7.4590   20.5240 O.2   332  PRO332     -0.2868
     85  CB       -21.5200   -8.9050   18.0040 C.3   332  PRO332      0.0268
     86  CG       -20.7980   -9.9870   17.2560 C.3   332  PRO332      0.0207
     87  CD       -19.9360   -9.2270   16.2960 C.3   332  PRO332      0.0892
@<TRIPOS>BOND
     1    87    81    1
     2    87    86    1
     3    81    82    1
     4    86    85    1
     5    85    82    1
     6    82    83    1
     7    76    77    2
     8    76    75    1
     9    70    69    2
    10    83    84    2
    11    72    71    1
    12    75    74    1
    13    75    78    1
    14    79    78    1
    15    71    73    1
    16    71    68    1
    17    69    74   am
    18    69    68    1
    19    78    80    1
    20    68    67    1
    21    27    26    1
    22    26    25    1
    23     4     3    2
    24    10     8   ar
    25    10    11   ar
    26     8     6   ar
    27    61    60    2
    28     3     2    1
    29    25    24    1
    30    24    21    1
    31    63    64    1
    32    63    62    1
    33    65    64    2
    34    60    59    1
    35    11     9   ar
    36     6     5    1
    37     6     7   ar
    38     5     2    1
    39    64    66   am
    40     2     1    1
    41    62    59    1
    42    23    22    2
    43    21    20    1
    44    21    22    1
    45    59    58    1
    46     9     7   ar
    47    15    14    2
    48    56    54    1
    49    14    13    1
    50    57    55    1
    51    12    13    1
    52    16    13    1
    53    16    17    1
    54    54    55    1
    55    54    51    1
    56    53    52    2
    57    17    18    1
    58    17    19    1
    59    48    45    1
    60    48    49    1
    61    51    52    1
    62    51    50    1
    63    45    44    1
    64    45    46    1
    65    42    41    1
    66    34    33   ar
    67    47    46    2
    68    40    41    1
    69    40    37    1
    70    44    38   am
    71    38    39    2
    72    38    37    1
    73    41    43    1
    74    35    33   ar
    75    33    32    1
    76    36    37    1
    77    36    30   am
    78    29    30    1
    79    29    32    1
    80    29    28    1
    81    30    31    2
