@<TRIPOS>MOLECULE
tmp/3tgyA07.pdb
 99 98 0 0 0
SMALL
GASTEIGER

@<TRIPOS>ATOM
      1  N         15.9640    1.8750   14.6410 N.3   105  GLN105     -0.1245
      2  CA        15.0480    1.9180   15.7620 C.3   105  GLN105      0.1566
      3  C         13.6620    1.5470   15.2690 C.2   105  GLN105      0.2260
      4  O         12.9190    0.8450   15.9550 O.2   105  GLN105     -0.2867
      5  CB        15.0510    3.3060   16.4000 C.3   105  GLN105      0.0367
      6  CG        14.2910    3.3540   17.7180 C.3   105  GLN105      0.0905
      7  CD        14.1840    4.7430   18.2650 C.2   105  GLN105      0.2608
      8  OE1       14.1140    5.7040   17.5110 O.2   105  GLN105     -0.2717
      9  NE2       14.1540    4.8640   19.5840 N.am  105  GLN105     -0.0878
     10  N         11.6510   -1.7350   16.8530 N.3   109  HIS109     -0.1241
     11  CA        10.3430   -1.6850   17.4690 C.3   109  HIS109      0.1621
     12  C          9.2940   -2.4960   16.7260 C.2   109  HIS109      0.2264
     13  O          8.2240   -2.7880   17.2680 O.2   109  HIS109     -0.2867
     14  CB        10.4800   -0.1970   17.3570 C.3   109  HIS109      0.0745
     15  CG        11.0170    0.6270   18.4870 C.ar  109  HIS109      0.0817
     16  ND1       10.6320    1.9350   18.7030 N.ar  109  HIS109     -0.2268
     17  CD2       11.8700    0.3120   19.4920 C.ar  109  HIS109      0.1154
     18  CE1       11.2210    2.3840   19.7980 C.ar  109  HIS109      0.1986
     19  NE2       11.9770    1.4190   20.2960 N.ar  109  HIS109     -0.2212
     20  N          9.6890   -6.0730   21.9470 N.3   113  PHE113     -0.1241
     21  CA         9.3100   -5.1840   23.0400 C.3   113  PHE113      0.1605
     22  C          9.0910   -6.1150   24.2350 C.2   113  PHE113      0.2264
     23  O          8.4280   -7.1550   24.1190 O.2   113  PHE113     -0.2867
     24  CB         8.0970   -4.3450   22.6140 C.3   113  PHE113      0.0534
     25  CG         7.6300   -3.3570   23.6440 C.ar  113  PHE113     -0.0203
     26  CD1        8.5360   -2.7280   24.5050 C.ar  113  PHE113     -0.0042
     27  CD2        6.2880   -3.0090   23.7200 C.ar  113  PHE113     -0.0042
     28  CE1        8.1060   -1.7680   25.4150 C.ar  113  PHE113     -0.0003
     29  CE2        5.8510   -2.0560   24.6200 C.ar  113  PHE113     -0.0003
     30  CZ         6.7590   -1.4320   25.4710 C.ar  113  PHE113     -0.0000
     31  N          3.4840    1.3060   21.0480 N.3   253  PHE253     -0.1227
     32  CA         3.3490    2.2460   22.1440 C.3   253  PHE253      0.1736
     33  C          4.5470    3.1690   22.4420 C.2   253  PHE253      0.2595
     34  O          4.4210    4.0660   23.2650 O.2   253  PHE253     -0.2718
     35  CB         2.9640    1.4600   23.4010 C.3   253  PHE253      0.0547
     36  CG         1.6050    0.7940   23.3160 C.ar  253  PHE253     -0.0202
     37  CD1        0.4390    1.5560   23.3640 C.ar  253  PHE253     -0.0042
     38  CD2        1.4980   -0.5960   23.2240 C.ar  253  PHE253     -0.0042
     39  CE1       -0.8160    0.9490   23.3310 C.ar  253  PHE253     -0.0003
     40  CE2        0.2540   -1.2210   23.1880 C.ar  253  PHE253     -0.0003
     41  CZ        -0.9110   -0.4480   23.2440 C.ar  253  PHE253     -0.0000
     42  N          5.6340    3.0340   21.6950 N.am  254  ARG254     -0.1980
     43  CA         6.8590    3.7720   21.9590 C.3   254  ARG254      0.1597
     44  C          7.1490    4.9490   21.0440 C.2   254  ARG254      0.2287
     45  O          8.1030    5.6640   21.2360 O.2   254  ARG254     -0.2864
     46  CB         8.0670    2.8290   21.9190 C.3   254  ARG254      0.0334
     47  CG         8.1790    1.8480   23.0530 C.3   254  ARG254      0.0492
     48  CD         9.1310    0.7240   22.7600 C.3   254  ARG254      0.2205
     49  NE         8.7020   -0.1280   21.6790 N.pl3 254  ARG254     -0.0865
     50  CZ         9.3120   -1.2340   21.3180 C.cat 254  ARG254      0.5346
     51  NH1       10.3720   -1.6240   21.9490 N.pl3 254  ARG254      0.1354
     52  NH2        8.8650   -1.9440   20.3260 N.pl3 254  ARG254      0.1354
     53  N          8.7400    8.4030   21.9900 N.3   257  GLU257     -0.1245
     54  CA         9.9060    8.4070   22.8460 C.3   257  GLU257      0.1567
     55  C         10.8790    9.5440   22.4670 C.2   257  GLU257      0.2260
     56  O         11.4150   10.2390   23.3270 O.2   257  GLU257     -0.2867
     57  CB        10.5310    7.0240   22.7570 C.3   257  GLU257      0.0388
     58  CG        11.5790    6.7410   23.7870 C.3   257  GLU257      0.1160
     59  CD        12.9340    7.1110   23.2910 C.2   257  GLU257      0.3649
     60  OE1       13.1360    7.1100   22.0610 O.co2 257  GLU257     -0.2457
     61  OE2       13.8010    7.3950   24.1390 O.co2 257  GLU257     -0.2457
     62  N         10.0400   12.3130   24.1370 N.3   380  PHE380     -0.1241
     63  CA         8.6030   12.4270   24.3580 C.3   380  PHE380      0.1605
     64  C          8.1460   13.8400   24.0960 C.2   380  PHE380      0.2264
     65  O          7.2780   14.3730   24.7860 O.2   380  PHE380     -0.2867
     66  CB         8.2520   12.0210   25.7790 C.3   380  PHE380      0.0534
     67  CG         8.4480   10.5730   26.0370 C.ar  380  PHE380     -0.0203
     68  CD1        7.6050    9.6280   25.4570 C.ar  380  PHE380     -0.0042
     69  CD2        9.5210   10.1430   26.7960 C.ar  380  PHE380     -0.0042
     70  CE1        7.8390    8.2890   25.6300 C.ar  380  PHE380     -0.0003
     71  CE2        9.7570    8.8120   26.9700 C.ar  380  PHE380     -0.0003
     72  CZ         8.9170    7.8860   26.3860 C.ar  380  PHE380     -0.0000
     73  N         14.8800   10.7570   29.7350 N.3   421  PHE421     -0.1227
     74  CA        13.6100   11.0300   30.4110 C.3   421  PHE421      0.1736
     75  C         12.7890    9.7730   30.2850 C.2   421  PHE421      0.2595
     76  O         12.6130    9.2410   29.2010 O.2   421  PHE421     -0.2718
     77  CB        12.8290   12.1780   29.7620 C.3   421  PHE421      0.0547
     78  CG        11.5310   12.4940   30.4630 C.ar  421  PHE421     -0.0202
     79  CD1       11.5210   13.2810   31.6120 C.ar  421  PHE421     -0.0042
     80  CD2       10.3250   11.9650   30.0010 C.ar  421  PHE421     -0.0042
     81  CE1       10.3300   13.5340   32.2960 C.ar  421  PHE421     -0.0003
     82  CE2        9.1250   12.2070   30.6720 C.ar  421  PHE421     -0.0003
     83  CZ         9.1250   12.9900   31.8210 C.ar  421  PHE421     -0.0000
     84  N         12.2690    9.3190   31.3950 N.am  422  GLN422     -0.1966
     85  CA        11.4570    8.1260   31.4520 C.3   422  GLN422      0.1718
     86  C         10.0730    8.4580   31.9010 C.2   422  GLN422      0.2458
     87  O          9.8960    9.2760   32.7590 O.2   422  GLN422     -0.2730
     88  CB        12.0140    7.1960   32.5030 C.3   422  GLN422      0.0407
     89  CG        13.3330    6.6780   32.2090 C.3   422  GLN422      0.0908
     90  CD        13.2800    5.3070   31.7320 C.2   422  GLN422      0.2608
     91  OE1       13.4220    4.3980   32.4970 O.2   422  GLN422     -0.2717
     92  NE2       13.1080    5.1420   30.4620 N.am  422  GLN422     -0.0878
     93  N          9.0850    7.7860   31.3570 N.am  423  PRO423     -0.2727
     94  CA         7.7230    8.0080   31.8360 C.3   423  PRO423      0.1402
     95  C          7.4630    7.3900   33.2130 C.2   423  PRO423      0.2269
     96  O          7.9220    6.3290   33.5150 O.2   423  PRO423     -0.2865
     97  CB         6.8990    7.3290   30.7830 C.3   423  PRO423      0.0296
     98  CG         7.7080    7.3720   29.5790 C.3   423  PRO423      0.0237
     99  CD         9.1020    7.2590   29.9900 C.3   423  PRO423      0.0939
@<TRIPOS>BOND
     1     1     2    1
     2     3     2    1
     3     3     4    2
     4     2     5    1
     5     5     6    1
     6    12    13    2
     7    12    11    1
     8    10    11    1
     9    14    11    1
    10    14    15    1
    11     8     7    2
    12     6     7    1
    13     7     9   am
    14    15    16   ar
    15    15    17   ar
    16    16    18   ar
    17    17    19   ar
    18    18    19   ar
    19    52    50    1
    20    44    45    2
    21    44    43    1
    22    31    32    1
    23    50    49    2
    24    50    51    1
    25    49    48    1
    26    42    43    1
    27    42    33   am
    28    46    43    1
    29    46    47    1
    30    20    21    1
    31    53    54    1
    32    60    59   ar
    33    32    33    1
    34    32    35    1
    35    33    34    2
    36    55    54    1
    37    55    56    2
    38    24    21    1
    39    24    25    1
    40    57    54    1
    41    57    58    1
    42    48    47    1
    43    21    22    1
    44    40    38   ar
    45    40    41   ar
    46    38    36   ar
    47    41    39   ar
    48    59    58    1
    49    59    61   ar
    50    36    37   ar
    51    36    35    1
    52    39    37   ar
    53    25    27   ar
    54    25    26   ar
    55    27    29   ar
    56    64    63    1
    57    64    65    2
    58    23    22    2
    59    62    63    1
    60    63    66    1
    61    26    28   ar
    62    29    30   ar
    63    28    30   ar
    64    68    70   ar
    65    68    67   ar
    66    70    72   ar
    67    66    67    1
    68    67    69   ar
    69    72    71   ar
    70    69    71   ar
    71    76    75    2
    72    98    99    1
    73    98    97    1
    74    73    74    1
    75    77    74    1
    76    77    78    1
    77    99    93    1
    78    80    78   ar
    79    80    82   ar
    80    75    74    1
    81    75    84   am
    82    92    90   am
    83    78    79   ar
    84    82    83   ar
    85    97    94    1
    86    93    94    1
    87    93    86   am
    88    84    85    1
    89    85    86    1
    90    85    88    1
    91    79    81   ar
    92    90    89    1
    93    90    91    2
    94    83    81   ar
    95    94    95    1
    96    86    87    2
    97    89    88    1
    98    95    96    2
