@<TRIPOS>MOLECULE
tmp/3th0A00.pdb
 202 189 0 0 0
SMALL
GASTEIGER

@<TRIPOS>ATOM
      1  N         -0.3810  -15.6160   22.8530 N.3    66  ASN66      -0.1240
      2  CA         0.3870  -15.3180   21.6450 C.3    66  ASN66       0.1653
      3  C         -0.2180  -15.9200   20.3880 C.2    66  ASN66       0.2266
      4  O         -0.5200  -17.1240   20.3430 O.2    66  ASN66      -0.2867
      5  CB         1.8320  -15.8170   21.7770 C.3    66  ASN66       0.1155
      6  CG         2.6370  -15.0530   22.8260 C.2    66  ASN66       0.2627
      7  OD1        2.0950  -14.6010   23.8520 O.2    66  ASN66      -0.2716
      8  ND2        3.9390  -14.8780   22.5620 N.am   66  ASN66      -0.0877
      9  N          6.0660   -7.4860   40.0620 N.3   124  VAL124     -0.1231
     10  CA         6.9730   -7.6110   41.2070 C.3   124  VAL124      0.1692
     11  C          7.8050   -6.3630   41.4090 C.2   124  VAL124      0.2592
     12  O          8.2300   -6.0780   42.5240 O.2   124  VAL124     -0.2718
     13  CB         7.9170   -8.8180   41.0520 C.3   124  VAL124      0.0266
     14  CG1        7.0980  -10.0990   41.0560 C.3   124  VAL124      0.0020
     15  CG2        8.7760   -8.6830   39.7860 C.3   124  VAL124      0.0020
     16  N          8.0650   -5.6250   40.3280 N.am  125  SER125     -0.1952
     17  CA         8.7910   -4.3550   40.4510 C.3   125  SER125      0.1924
     18  C          7.9670   -3.2880   41.1810 C.2   125  SER125      0.2314
     19  O          8.5260   -2.4540   41.8900 O.2   125  SER125     -0.2863
     20  CB         9.2700   -3.8660   39.0850 C.3   125  SER125      0.2116
     21  OG        10.0740   -4.8740   38.4760 O.3   125  SER125     -0.2180
     22  N         -1.4790  -11.8930   34.3730 N.3   145  ASN145     -0.1240
     23  CA        -0.6010  -12.0380   33.2220 C.3   145  ASN145      0.1653
     24  C         -1.3230  -11.9040   31.8850 C.2   145  ASN145      0.2266
     25  O         -1.2460  -12.7890   31.0400 O.2   145  ASN145     -0.2867
     26  CB         0.1340  -13.3810   33.3240 C.3   145  ASN145      0.1155
     27  CG         1.2460  -13.5100   32.3110 C.2   145  ASN145      0.2627
     28  OD1        1.7850  -12.5070   31.8280 O.2   145  ASN145     -0.2716
     29  ND2        1.6010  -14.7520   31.9740 N.am  145  ASN145     -0.0877
     30  N          6.0190   -9.1790   19.6320 N.3   171  LEU171     -0.1245
     31  CA         7.2460   -9.8840   19.9460 C.3   171  LEU171      0.1561
     32  C          7.8610  -10.4110   18.6740 C.2   171  LEU171      0.2260
     33  O          7.1940  -11.0700   17.8920 O.2   171  LEU171     -0.2867
     34  CB         6.9530  -11.0610   20.8900 C.3   171  LEU171      0.0270
     35  CG         8.0750  -12.0570   21.1730 C.3   171  LEU171      0.0019
     36  CD1        9.2640  -11.4310   21.8570 C.3   171  LEU171      0.0001
     37  CD2        7.5570  -13.2430   21.9900 C.3   171  LEU171      0.0001
     38  N         10.7860  -12.8300   17.8990 N.3   173  ARG173     -0.1245
     39  CA        11.6290  -13.8400   18.5670 C.3   173  ARG173      0.1563
     40  C         12.5410  -14.5320   17.5630 C.2   173  ARG173      0.2260
     41  O         12.0610  -15.1520   16.6070 O.2   173  ARG173     -0.2867
     42  CB        10.7600  -14.8670   19.2960 C.3   173  ARG173      0.0307
     43  CG        11.5740  -15.7210   20.2480 C.3   173  ARG173      0.0489
     44  CD        10.8960  -17.0260   20.6290 C.3   173  ARG173      0.2205
     45  NE         9.5420  -16.9280   21.1640 N.pl3 173  ARG173     -0.0865
     46  CZ         9.2240  -16.7800   22.4520 C.cat 173  ARG173      0.5346
     47  NH1       10.1620  -16.6220   23.3810 N.pl3 173  ARG173      0.1354
     48  NH2        7.9500  -16.7670   22.8160 N.pl3 173  ARG173      0.1354
     49  N          0.6950   -6.9890   30.0240 N.3   190  LYS190     -0.1231
     50  CA         1.6440   -7.3590   31.0830 C.3   190  LYS190      0.1693
     51  C          3.0760   -7.4010   30.5790 C.2   190  LYS190      0.2592
     52  O          4.0070   -7.0410   31.3030 O.2   190  LYS190     -0.2718
     53  CB         1.3110   -8.7380   31.6700 C.3   190  LYS190      0.0285
     54  CG         2.1800   -9.1270   32.8830 C.3   190  LYS190      0.0035
     55  CD         1.7770   -8.3610   34.1320 C.3   190  LYS190      0.0206
     56  CE         2.6880   -8.6540   35.3340 C.3   190  LYS190      0.1093
     57  NZ         2.7010  -10.0970   35.7330 N.3   190  LYS190     -0.1314
     58  N          3.2570   -7.8660   29.3500 N.am  191  ASP191     -0.1974
     59  CA         4.5880   -7.9770   28.7770 C.3   191  ASP191      0.1709
     60  C          5.0100   -6.6760   28.0730 C.2   191  ASP191      0.2293
     61  O          4.2050   -5.7470   27.9300 O.2   191  ASP191     -0.2864
     62  CB         4.6150   -9.1440   27.8160 C.3   191  ASP191      0.1436
     63  CG         4.4810  -10.4880   28.5190 C.2   191  ASP191      0.3671
     64  OD1        4.8760  -10.6240   29.7100 O.co2 191  ASP191     -0.2456
     65  OD2        3.9780  -11.4160   27.8570 O.co2 191  ASP191     -0.2456
     66  N          5.4350   -3.2910   31.8690 N.3   219  VAL219     -0.1231
     67  CA         6.8880   -3.2360   31.8650 C.3   219  VAL219      0.1692
     68  C          7.3490   -2.2440   30.7850 C.2   219  VAL219      0.2592
     69  O          6.7250   -1.1720   30.6460 O.2   219  VAL219     -0.2718
     70  CB         7.5040   -4.6720   31.8180 C.3   219  VAL219      0.0266
     71  CG1        7.0620   -5.4780   33.0670 C.3   219  VAL219      0.0020
     72  CG2        7.1120   -5.4390   30.5450 C.3   219  VAL219      0.0020
     73  N          8.4320   -2.5370   30.0610 N.am  220  SER220     -0.1952
     74  CA         9.0180   -1.5310   29.1620 C.3   220  SER220      0.1924
     75  C          8.3140   -1.4560   27.8100 C.2   220  SER220      0.2314
     76  O          7.7900   -2.4410   27.3120 O.2   220  SER220     -0.2863
     77  CB        10.5270   -1.7220   28.9890 C.3   220  SER220      0.2116
     78  OG        11.1950   -1.6690   30.2390 O.3   220  SER220     -0.2180
     79  N         11.9740   -2.9090   23.9820 N.3   223  GLN223     -0.1245
     80  CA        13.0840   -3.5750   24.6590 C.3   223  GLN223      0.1566
     81  C         13.8000   -4.5730   23.7680 C.2   223  GLN223      0.2260
     82  O         13.2040   -5.1580   22.8350 O.2   223  GLN223     -0.2867
     83  CB        12.5920   -4.2700   25.9330 C.3   223  GLN223      0.0367
     84  CG        11.6020   -5.3920   25.6970 C.3   223  GLN223      0.0905
     85  CD        11.0260   -5.9430   26.9870 C.2   223  GLN223      0.2608
     86  OE1       11.4420   -5.5390   28.0790 O.2   223  GLN223     -0.2717
     87  NE2       10.0880   -6.8980   26.8740 N.am  223  GLN223     -0.0878
     88  N         16.7720   -7.8700   23.6640 N.3   225  LEU225     -0.1245
     89  CA        17.5850   -8.9160   24.3050 C.3   225  LEU225      0.1561
     90  C         18.5160   -9.5590   23.2700 C.2   225  LEU225      0.2260
     91  O         18.0540  -10.0680   22.2320 O.2   225  LEU225     -0.2867
     92  CB        16.7110   -9.9940   24.9500 C.3   225  LEU225      0.0270
     93  CG        15.7570   -9.5720   26.0560 C.3   225  LEU225      0.0019
     94  CD1       14.4700   -9.0190   25.5130 C.3   225  LEU225      0.0001
     95  CD2       15.5160  -10.8290   26.9550 C.3   225  LEU225      0.0001
     96  N          7.4500   -0.0030   33.4150 N.3   247  GLU247     -0.1231
     97  CA         8.8670    0.0150   33.7220 C.3   247  GLU247      0.1699
     98  C          9.5200    1.1800   32.9580 C.2   247  GLU247      0.2592
     99  O          9.3910    2.3380   33.3970 O.2   247  GLU247     -0.2718
    100  CB         9.5410   -1.3480   33.4830 C.3   247  GLU247      0.0402
    101  CG        10.9740   -1.4120   34.0270 C.3   247  GLU247      0.1161
    102  CD        11.6210   -2.7580   33.8070 C.2   247  GLU247      0.3649
    103  OE1       11.0070   -3.7840   34.1580 O.co2 247  GLU247     -0.2457
    104  OE2       12.7320   -2.7880   33.2410 O.co2 247  GLU247     -0.2457
    105  N         10.1750    0.9250   31.8210 N.am  248  SER248     -0.1952
    106  CA        10.9440    1.9670   31.1550 C.3   248  SER248      0.1924
    107  C         10.4810    2.1970   29.7170 C.2   248  SER248      0.2314
    108  O          9.8540    1.3260   29.1030 O.2   248  SER248     -0.2863
    109  CB        12.4480    1.6360   31.1980 C.3   248  SER248      0.2116
    110  OG        12.8960    1.4720   32.5540 O.3   248  SER248     -0.2180
    111  N         14.4180    0.0000   26.7630 N.3   251  LYS251     -0.1245
    112  CA        15.3050   -0.8180   27.6020 C.3   251  LYS251      0.1561
    113  C         16.2300   -1.7370   26.7960 C.2   251  LYS251      0.2260
    114  O         15.7710   -2.4970   25.9490 O.2   251  LYS251     -0.2867
    115  CB        14.4720   -1.6610   28.5780 C.3   251  LYS251      0.0271
    116  CG        15.2770   -2.6180   29.4510 C.3   251  LYS251      0.0035
    117  CD        14.3730   -3.4290   30.3950 C.3   251  LYS251      0.0206
    118  CE        15.2050   -4.3080   31.3090 C.3   251  LYS251      0.1093
    119  NZ        14.4280   -4.8900   32.4510 N.3   251  LYS251     -0.1314
    120  N         18.2600   -4.9340   27.8100 N.3   253  TRP253     -0.1227
    121  CA        18.2300   -5.8090   28.9630 C.3   253  TRP253      0.1737
    122  C         19.5920   -5.9990   29.6090 C.2   253  TRP253      0.2595
    123  O         20.6520   -5.8550   28.9660 O.2   253  TRP253     -0.2718
    124  CB        17.6170   -7.1700   28.6130 C.3   253  TRP253      0.0564
    125  CG        16.1580   -7.2050   28.8000 C.ar  253  TRP253      0.0003
    126  CD1       15.2190   -6.5080   28.1150 C.ar  253  TRP253      0.0946
    127  CD2       15.4580   -7.9900   29.7640 C.ar  253  TRP253      0.0152
    128  NE1       13.9610   -6.8150   28.5940 N.ar  253  TRP253     -0.2442
    129  CE2       14.0880   -7.7170   29.6100 C.ar  253  TRP253      0.0810
    130  CE3       15.8650   -8.8940   30.7420 C.ar  253  TRP253      0.0012
    131  CZ2       13.1140   -8.3240   30.4030 C.ar  253  TRP253      0.0191
    132  CZ3       14.8960   -9.4990   31.5310 C.ar  253  TRP253      0.0001
    133  CH2       13.5430   -9.2110   31.3500 C.ar  253  TRP253      0.0015
    134  N         19.5610   -6.3250   30.8970 N.am  254  GLN254     -0.1979
    135  CA        20.7630   -6.6540   31.6460 C.3   254  GLN254      0.1601
    136  C         20.7560   -8.1100   32.1200 C.2   254  GLN254      0.2287
    137  O         19.7120   -8.6980   32.3740 O.2   254  GLN254     -0.2864
    138  CB        20.9070   -5.7790   32.8840 C.3   254  GLN254      0.0394
    139  CG        20.8800   -4.2700   32.6140 C.3   254  GLN254      0.0908
    140  CD        19.5010   -3.6460   32.7760 C.2   254  GLN254      0.2608
    141  OE1       18.7880   -3.9370   33.7310 O.2   254  GLN254     -0.2717
    142  NE2       19.1270   -2.7680   31.8410 N.am  254  GLN254     -0.0878
    143  N         19.4880  -14.2310   30.9550 N.3   257  VAL257     -0.1245
    144  CA        18.0920  -14.6430   30.8190 C.3   257  VAL257      0.1561
    145  C         18.0950  -16.0630   30.2610 C.2   257  VAL257      0.2260
    146  O         18.6230  -16.3170   29.1760 O.2   257  VAL257     -0.2867
    147  CB        17.2740  -13.7060   29.9220 C.3   257  VAL257      0.0252
    148  CG1       15.8820  -14.2640   29.6940 C.3   257  VAL257      0.0019
    149  CG2       17.1790  -12.3340   30.5420 C.3   257  VAL257      0.0019
    150  N          9.4980    3.7090   35.9410 N.3   279  TRP279     -0.1227
    151  CA        10.9220    3.5600   36.2380 C.3   279  TRP279      0.1737
    152  C         11.7250    4.5100   35.3430 C.2   279  TRP279      0.2595
    153  O         11.7380    5.7190   35.6170 O.2   279  TRP279     -0.2718
    154  CB        11.3620    2.0930   36.1460 C.3   279  TRP279      0.0564
    155  CG        10.7910    1.2390   37.2550 C.ar  279  TRP279      0.0003
    156  CD1        9.5150    0.7410   37.3530 C.ar  279  TRP279      0.0946
    157  CD2       11.4780    0.8020   38.4380 C.ar  279  TRP279      0.0152
    158  NE1        9.3720    0.0280   38.5240 N.ar  279  TRP279     -0.2442
    159  CE2       10.5610    0.0480   39.2050 C.ar  279  TRP279      0.0810
    160  CE3       12.7840    0.9700   38.9180 C.ar  279  TRP279      0.0012
    161  CZ2       10.9220   -0.5610   40.4180 C.ar  279  TRP279      0.0191
    162  CZ3       13.1300    0.3940   40.1330 C.ar  279  TRP279      0.0001
    163  CH2       12.1990   -0.3740   40.8620 C.ar  279  TRP279      0.0015
    164  N         12.3730    4.0340   34.2800 N.am  280  ASP280     -0.1974
    165  CA        13.2970    4.9120   33.5670 C.3   280  ASP280      0.1709
    166  C         12.7460    5.4270   32.2370 C.2   280  ASP280      0.2293
    167  O         11.9330    4.7750   31.5900 O.2   280  ASP280     -0.2864
    168  CB        14.6110    4.2020   33.2520 C.3   280  ASP280      0.1436
    169  CG        15.3700    3.7240   34.4740 C.2   280  ASP280      0.3671
    170  OD1       14.9230    3.8910   35.6290 O.co2 280  ASP280     -0.2456
    171  OD2       16.4880    3.1870   34.2440 O.co2 280  ASP280     -0.2456
    172  N         16.7580    3.1380   29.6210 N.3   283  ASP283     -0.1239
    173  CA        17.6170    2.2700   30.4270 C.3   283  ASP283      0.1674
    174  C         18.5340    1.5400   29.4570 C.2   283  ASP283      0.2266
    175  O         18.1730    0.5100   28.8780 O.2   283  ASP283     -0.2867
    176  CB        16.7910    1.2850   31.2430 C.3   283  ASP283      0.1410
    177  CG        17.6530    0.2590   31.9900 C.2   283  ASP283      0.3668
    178  OD1       18.8890    0.4500   32.0940 O.co2 283  ASP283     -0.2456
    179  OD2       17.0650   -0.7420   32.4830 O.co2 283  ASP283     -0.2456
    180  N         23.1550   -5.1650   35.7150 N.3   288  THR288     -0.1218
    181  CA        22.2170   -4.5480   36.6630 C.3   288  THR288      0.1862
    182  C         22.5430   -4.8240   38.1290 C.2   288  THR288      0.2287
    183  O         22.8120   -5.9750   38.5040 O.2   288  THR288     -0.2866
    184  CB        20.7300   -4.9420   36.4180 C.3   288  THR288      0.1770
    185  OG1       19.8950   -4.2530   37.3770 O.3   288  THR288     -0.2211
    186  CG2       20.5090   -6.4780   36.5040 C.3   288  THR288      0.0375
    187  N         20.3010   -4.5480   40.3520 N.3   290  MET290     -0.1230
    188  CA        19.0430   -5.1220   40.8700 C.3   290  MET290      0.1702
    189  C         19.1090   -6.6390   41.0590 C.2   290  MET290      0.2592
    190  O         18.3380   -7.2140   41.8380 O.2   290  MET290     -0.2718
    191  CB        17.8700   -4.7930   39.9380 C.3   290  MET290      0.0401
    192  CG        17.5790   -3.3010   39.7940 C.3   290  MET290      0.0596
    193  SD        16.9270   -2.5910   41.3110 S.3   290  MET290     -0.1393
    194  CE        15.2070   -3.0860   41.2250 C.3   290  MET290      0.0692
    195  N         20.0120   -7.2870   40.3330 N.am  291  ASN291     -0.1974
    196  CA        20.1780   -8.7420   40.4100 C.3   291  ASN291      0.1688
    197  C         21.6160   -9.0830   40.0490 C.2   291  ASN291      0.2292
    198  O         21.8870   -9.5580   38.9500 O.2   291  ASN291     -0.2864
    199  CB        19.2010   -9.4510   39.4640 C.3   291  ASN291      0.1181
    200  CG        19.2710  -10.9710   39.5770 C.2   291  ASN291      0.2629
    201  OD1       19.5290  -11.5060   40.6560 O.2   291  ASN291     -0.2716
    202  ND2       19.0410  -11.6690   38.4640 N.am  291  ASN291     -0.0877
@<TRIPOS>BOND
     1    41    40    2
     2    40    39    1
     3    33    32    2
     4    38    39    1
     5    39    42    1
     6    32    31    1
     7    42    43    1
     8    30    31    1
     9    31    34    1
    10    43    44    1
    11     4     3    2
    12     3     2    1
    13    44    45    1
    14    34    35    1
    15    45    46    2
    16    35    36    1
    17    35    37    1
    18     2     5    1
    19     2     1    1
    20     5     6    1
    21    91    90    2
    22    46    48    1
    23    46    47    1
    24     8     6   am
    25     6     7    2
    26    82    81    2
    27    90    89    1
    28    88    89    1
    29    81    80    1
    30    79    80    1
    31    89    92    1
    32    80    83    1
    33    92    93    1
    34    94    93    1
    35    84    83    1
    36    84    85    1
    37   114   113    2
    38    93    95    1
    39   111   112    1
    40   113   112    1
    41    87    85   am
    42    85    86    2
    43    76    75    2
    44   112   115    1
    45   120   121    1
    46    75    74    1
    47    62    63    1
    48    62    59    1
    49    65    63   ar
    50    61    60    2
    51    60    59    1
    52   126   128   ar
    53   126   125   ar
    54    63    64   ar
    55   115   116    1
    56   128   129   ar
    57   124   125    1
    58   124   121    1
    59    59    58    1
    60   125   127   ar
    61   175   174    2
    62   121   122    1
    63   123   122    2
    64    77    74    1
    65    77    78    1
    66   108   107    2
    67    74    73    1
    68   146   145    2
    69    58    51   am
    70   116   117    1
    71   174   173    1
    72   122   134   am
    73   129   127   ar
    74   129   131   ar
    75   172   173    1
    76   148   147    1
    77   107   106    1
    78   127   130   ar
    79   147   149    1
    80   147   144    1
    81    49    50    1
    82    73    68   am
    83   145   144    1
    84   117   118    1
    85   131   133   ar
    86   173   176    1
    87    72    70    1
    88    51    50    1
    89    51    52    2
    90    69    68    2
    91   130   132   ar
    92    68    67    1
    93   144   143    1
    94   134   135    1
    95    25    24    2
    96    50    53    1
    97   106   109    1
    98   106   105    1
    99   109   110    1
   100   176   177    1
   101   118   119    1
   102   133   132   ar
   103   167   166    2
   104   135   136    1
   105   135   138    1
   106    53    54    1
   107    70    67    1
   108    70    71    1
   109   105    98   am
   110    28    27    2
   111   142   140   am
   112    67    66    1
   113    24    23    1
   114    29    27   am
   115   177   178   ar
   116   177   179   ar
   117   136   137    2
   118   166   165    1
   119    27    26    1
   120   139   140    1
   121   139   138    1
   122   140   141    2
   123    54    55    1
   124    98    99    2
   125    98    97    1
   126    23    26    1
   127    23    22    1
   128   104   102   ar
   129   168   165    1
   130   168   169    1
   131    96    97    1
   132   100    97    1
   133   100   101    1
   134   165   164    1
   135   102   101    1
   136   102   103   ar
   137    55    56    1
   138   171   169   ar
   139   164   152   am
   140   169   170   ar
   141    56    57    1
   142   152   153    2
   143   152   151    1
   144   180   181    1
   145   150   151    1
   146   154   151    1
   147   154   155    1
   148   184   186    1
   149   184   181    1
   150   184   185    1
   151   181   182    1
   152   155   156   ar
   153   155   157   ar
   154   156   158   ar
   155   182   183    2
   156   157   160   ar
   157   157   159   ar
   158   202   200   am
   159    21    20    1
   160   158   159   ar
   161   160   162   ar
   162   198   197    2
   163    20    17    1
   164   159   161   ar
   165   199   200    1
   166   199   196    1
   167   200   201    2
   168    15    13    1
   169   192   191    1
   170   192   193    1
   171   191   188    1
   172   197   196    1
   173     9    10    1
   174   162   163   ar
   175    16    17    1
   176    16    11   am
   177   195   196    1
   178   195   189   am
   179   187   188    1
   180   161   163   ar
   181    17    18    1
   182   188   189    1
   183    13    14    1
   184    13    10    1
   185   189   190    2
   186    18    19    2
   187    10    11    1
   188   194   193    1
   189    11    12    2
