@<TRIPOS>MOLECULE
tmp/3th0A01.pdb
 93 85 0 0 0
SMALL
GASTEIGER

@<TRIPOS>ATOM
      1  N          6.0190   -9.1790   19.6320 N.3   171  LEU171     -0.1245
      2  CA         7.2460   -9.8840   19.9460 C.3   171  LEU171      0.1561
      3  C          7.8610  -10.4110   18.6740 C.2   171  LEU171      0.2260
      4  O          7.1940  -11.0700   17.8920 O.2   171  LEU171     -0.2867
      5  CB         6.9530  -11.0610   20.8900 C.3   171  LEU171      0.0270
      6  CG         8.0750  -12.0570   21.1730 C.3   171  LEU171      0.0019
      7  CD1        9.2640  -11.4310   21.8570 C.3   171  LEU171      0.0001
      8  CD2        7.5570  -13.2430   21.9900 C.3   171  LEU171      0.0001
      9  N         10.7860  -12.8300   17.8990 N.3   173  ARG173     -0.1245
     10  CA        11.6290  -13.8400   18.5670 C.3   173  ARG173      0.1563
     11  C         12.5410  -14.5320   17.5630 C.2   173  ARG173      0.2260
     12  O         12.0610  -15.1520   16.6070 O.2   173  ARG173     -0.2867
     13  CB        10.7600  -14.8670   19.2960 C.3   173  ARG173      0.0307
     14  CG        11.5740  -15.7210   20.2480 C.3   173  ARG173      0.0489
     15  CD        10.8960  -17.0260   20.6290 C.3   173  ARG173      0.2205
     16  NE         9.5420  -16.9280   21.1640 N.pl3 173  ARG173     -0.0865
     17  CZ         9.2240  -16.7800   22.4520 C.cat 173  ARG173      0.5346
     18  NH1       10.1620  -16.6220   23.3810 N.pl3 173  ARG173      0.1354
     19  NH2        7.9500  -16.7670   22.8160 N.pl3 173  ARG173      0.1354
     20  N          3.2570   -7.8660   29.3500 N.3   191  ASP191     -0.1225
     21  CA         4.5880   -7.9770   28.7770 C.3   191  ASP191      0.1805
     22  C          5.0100   -6.6760   28.0730 C.2   191  ASP191      0.2598
     23  O          4.2050   -5.7470   27.9300 O.2   191  ASP191     -0.2718
     24  CB         4.6150   -9.1440   27.8160 C.3   191  ASP191      0.1424
     25  CG         4.4810  -10.4880   28.5190 C.2   191  ASP191      0.3668
     26  OD1        4.8760  -10.6240   29.7100 O.co2 191  ASP191     -0.2456
     27  OD2        3.9780  -11.4160   27.8570 O.co2 191  ASP191     -0.2456
     28  N          6.2850   -6.5910   27.6910 N.am  192  GLY192     -0.1957
     29  CA         6.7700   -5.4300   26.9400 C.3   192  GLY192      0.1869
     30  C          5.8990   -5.1720   25.7310 C.2   192  GLY192      0.2309
     31  O          5.3490   -6.1140   25.1480 O.2   192  GLY192     -0.2863
     32  N          9.0860   -6.0000   21.6150 N.3   195  THR195     -0.1218
     33  CA        10.2520   -6.7600   22.0610 C.3   195  THR195      0.1862
     34  C         10.9890   -7.4300   20.8990 C.2   195  THR195      0.2287
     35  O         10.3750   -8.1050   20.0780 O.2   195  THR195     -0.2866
     36  CB         9.8560   -7.8720   23.0560 C.3   195  THR195      0.1770
     37  OG1        9.2230   -7.3000   24.1980 O.3   195  THR195     -0.2211
     38  CG2       11.0890   -8.6740   23.4960 C.3   195  THR195      0.0375
     39  N         13.7460  -10.1810   20.8020 N.3   197  GLU197     -0.1245
     40  CA        14.4370  -11.1260   21.6730 C.3   197  GLU197      0.1567
     41  C         15.1670  -12.1560   20.8250 C.2   197  GLU197      0.2260
     42  O         14.5470  -12.8230   19.9920 O.2   197  GLU197     -0.2867
     43  CB        13.4710  -11.8050   22.6220 C.3   197  GLU197      0.0388
     44  CG        14.1420  -12.8120   23.5530 C.3   197  GLU197      0.1160
     45  CD        13.9370  -14.2500   23.1070 C.2   197  GLU197      0.3649
     46  OE1       12.8480  -14.8040   23.3710 O.co2 197  GLU197     -0.2457
     47  OE2       14.8640  -14.8450   22.5070 O.co2 197  GLU197     -0.2457
     48  N         17.6170  -14.6200   22.1370 N.3   199  LEU199     -0.1245
     49  CA        18.3800  -15.4390   23.0900 C.3   199  LEU199      0.1561
     50  C         18.9080  -16.7250   22.4660 C.2   199  LEU199      0.2260
     51  O         19.9370  -17.2580   22.9060 O.2   199  LEU199     -0.2867
     52  CB        17.5390  -15.7520   24.3260 C.3   199  LEU199      0.0270
     53  CG        17.1650  -14.5540   25.1960 C.3   199  LEU199      0.0019
     54  CD1       16.0480  -14.9100   26.2030 C.3   199  LEU199      0.0001
     55  CD2       18.3770  -14.0140   25.9200 C.3   199  LEU199      0.0001
     56  N         11.9740   -2.9090   23.9820 N.3   223  GLN223     -0.1245
     57  CA        13.0840   -3.5750   24.6590 C.3   223  GLN223      0.1566
     58  C         13.8000   -4.5730   23.7680 C.2   223  GLN223      0.2260
     59  O         13.2040   -5.1580   22.8350 O.2   223  GLN223     -0.2867
     60  CB        12.5920   -4.2700   25.9330 C.3   223  GLN223      0.0367
     61  CG        11.6020   -5.3920   25.6970 C.3   223  GLN223      0.0905
     62  CD        11.0260   -5.9430   26.9870 C.2   223  GLN223      0.2608
     63  OE1       11.4420   -5.5390   28.0790 O.2   223  GLN223     -0.2717
     64  NE2       10.0880   -6.8980   26.8740 N.am  223  GLN223     -0.0878
     65  N         16.7720   -7.8700   23.6640 N.3   225  LEU225     -0.1245
     66  CA        17.5850   -8.9160   24.3050 C.3   225  LEU225      0.1561
     67  C         18.5160   -9.5590   23.2700 C.2   225  LEU225      0.2260
     68  O         18.0540  -10.0680   22.2320 O.2   225  LEU225     -0.2867
     69  CB        16.7110   -9.9940   24.9500 C.3   225  LEU225      0.0270
     70  CG        15.7570   -9.5720   26.0560 C.3   225  LEU225      0.0019
     71  CD1       14.4700   -9.0190   25.5130 C.3   225  LEU225      0.0001
     72  CD2       15.5160  -10.8290   26.9550 C.3   225  LEU225      0.0001
     73  N         18.2600   -4.9340   27.8100 N.3   253  TRP253     -0.1241
     74  CA        18.2300   -5.8090   28.9630 C.3   253  TRP253      0.1605
     75  C         19.5920   -5.9990   29.6090 C.2   253  TRP253      0.2264
     76  O         20.6520   -5.8550   28.9660 O.2   253  TRP253     -0.2867
     77  CB        17.6170   -7.1700   28.6130 C.3   253  TRP253      0.0550
     78  CG        16.1580   -7.2050   28.8000 C.ar  253  TRP253      0.0003
     79  CD1       15.2190   -6.5080   28.1150 C.ar  253  TRP253      0.0946
     80  CD2       15.4580   -7.9900   29.7640 C.ar  253  TRP253      0.0152
     81  NE1       13.9610   -6.8150   28.5940 N.ar  253  TRP253     -0.2442
     82  CE2       14.0880   -7.7170   29.6100 C.ar  253  TRP253      0.0810
     83  CE3       15.8650   -8.8940   30.7420 C.ar  253  TRP253      0.0012
     84  CZ2       13.1140   -8.3240   30.4030 C.ar  253  TRP253      0.0191
     85  CZ3       14.8960   -9.4990   31.5310 C.ar  253  TRP253      0.0001
     86  CH2       13.5430   -9.2110   31.3500 C.ar  253  TRP253      0.0015
     87  N         19.4880  -14.2310   30.9550 N.3   257  VAL257     -0.1245
     88  CA        18.0920  -14.6430   30.8190 C.3   257  VAL257      0.1561
     89  C         18.0950  -16.0630   30.2610 C.2   257  VAL257      0.2260
     90  O         18.6230  -16.3170   29.1760 O.2   257  VAL257     -0.2867
     91  CB        17.2740  -13.7060   29.9220 C.3   257  VAL257      0.0252
     92  CG1       15.8820  -14.2640   29.6940 C.3   257  VAL257      0.0019
     93  CG2       17.1790  -12.3340   30.5420 C.3   257  VAL257      0.0019
@<TRIPOS>BOND
     1    12    11    2
     2    11    10    1
     3     4     3    2
     4     9    10    1
     5    10    13    1
     6     3     2    1
     7    13    14    1
     8     1     2    1
     9     2     5    1
    10    42    41    2
    11    35    34    2
    12    14    15    1
    13    15    16    1
    14    39    40    1
    15    41    40    1
    16     5     6    1
    17    34    33    1
    18    16    17    2
    19     6     7    1
    20     6     8    1
    21    32    33    1
    22    40    43    1
    23    33    36    1
    24    48    49    1
    25    68    67    2
    26    17    19    1
    27    17    18    1
    28    50    51    2
    29    50    49    1
    30    47    45   ar
    31    43    44    1
    32    59    58    2
    33    36    38    1
    34    36    37    1
    35    49    52    1
    36    45    46   ar
    37    45    44    1
    38    67    66    1
    39    65    66    1
    40    58    57    1
    41    56    57    1
    42    66    69    1
    43    52    53    1
    44    57    60    1
    45    69    70    1
    46    31    30    2
    47    53    55    1
    48    53    54    1
    49    71    70    1
    50    61    60    1
    51    61    62    1
    52    30    29    1
    53    70    72    1
    54    64    62   am
    55    29    28    1
    56    62    63    2
    57    28    22   am
    58    73    74    1
    59    24    25    1
    60    24    21    1
    61    27    25   ar
    62    23    22    2
    63    22    21    1
    64    79    81   ar
    65    79    78   ar
    66    25    26   ar
    67    81    82   ar
    68    77    78    1
    69    77    74    1
    70    21    20    1
    71    78    80   ar
    72    74    75    1
    73    76    75    2
    74    90    89    2
    75    82    80   ar
    76    82    84   ar
    77    92    91    1
    78    80    83   ar
    79    91    93    1
    80    91    88    1
    81    89    88    1
    82    84    86   ar
    83    83    85   ar
    84    88    87    1
    85    86    85   ar
