@<TRIPOS>MOLECULE
tmp/3th1A01.pdb
 175 166 0 0 0
SMALL
GASTEIGER

@<TRIPOS>ATOM
      1  N         57.1150    4.9250    3.2300 N.3    12  ILE12      -0.1245
      2  CA        56.4570    3.9570    2.3610 C.3    12  ILE12       0.1561
      3  C         56.2690    4.4940    0.9440 C.2    12  ILE12       0.2260
      4  O         56.6300    3.8350   -0.0320 O.2    12  ILE12      -0.2867
      5  CB        55.0960    3.5240    2.9280 C.3    12  ILE12       0.0252
      6  CG1       55.2950    2.6500    4.1650 C.3    12  ILE12       0.0019
      7  CG2       54.3010    2.7750    1.8710 C.3    12  ILE12       0.0019
      8  CD1       54.0160    2.1100    4.7390 C.3    12  ILE12       0.0001
      9  N         57.7860    2.7780   -2.3600 N.3    16  VAL16      -0.1245
     10  CA        56.9910    2.1220   -3.3980 C.3    16  VAL16       0.1561
     11  C         57.2770    2.7180   -4.7720 C.2    16  VAL16       0.2260
     12  O         57.2970    2.0080   -5.7760 O.2    16  VAL16      -0.2867
     13  CB        55.4780    2.1890   -3.0890 C.3    16  VAL16       0.0252
     14  CG1       54.6510    2.1350   -4.3650 C.3    16  VAL16       0.0019
     15  CG2       55.0780    1.0670   -2.1420 C.3    16  VAL16       0.0019
     16  N         58.1490    1.0430   -8.4340 N.3    20  LEU20      -0.1245
     17  CA        57.4000    1.4320   -9.6240 C.3    20  LEU20       0.1561
     18  C         58.3310    1.7760  -10.7740 C.2    20  LEU20       0.2260
     19  O         58.0280    1.5170  -11.9370 O.2    20  LEU20      -0.2867
     20  CB        56.4710    2.6050   -9.3140 C.3    20  LEU20       0.0270
     21  CG        55.2530    2.1400   -8.5220 C.3    20  LEU20       0.0019
     22  CD1       54.2310    3.2530   -8.3500 C.3    20  LEU20       0.0001
     23  CD2       54.6410    0.9430   -9.2260 C.3    20  LEU20       0.0001
     24  N         57.1750   -0.5650  -14.0070 N.3    25  VAL25      -0.1245
     25  CA        55.7400   -0.7580  -14.1160 C.3    25  VAL25       0.1561
     26  C         55.1420    0.2010  -15.1370 C.2    25  VAL25       0.2260
     27  O         55.3180    1.4190  -15.0570 O.2    25  VAL25      -0.2867
     28  CB        55.0480   -0.5530  -12.7590 C.3    25  VAL25       0.0252
     29  CG1       53.5330   -0.6270  -12.9120 C.3    25  VAL25       0.0019
     30  CG2       55.5430   -1.5770  -11.7480 C.3    25  VAL25       0.0019
     31  N         49.9380   -1.5870  -16.3870 N.3    29  GLU29      -0.1231
     32  CA        50.0730   -2.3740  -15.1650 C.3    29  GLU29       0.1699
     33  C         49.5340   -1.5870  -13.9770 C.2    29  GLU29       0.2592
     34  O         48.7420   -2.1040  -13.1950 O.2    29  GLU29      -0.2718
     35  CB        51.5310   -2.7740  -14.9390 C.3    29  GLU29       0.0402
     36  CG        51.9780   -3.9810  -15.7470 C.3    29  GLU29       0.1161
     37  CD        53.4870   -4.0600  -15.8820 C.2    29  GLU29       0.3649
     38  OE1       54.1700   -3.0770  -15.5210 O.co2  29  GLU29      -0.2457
     39  OE2       53.9870   -5.1040  -16.3540 O.co2  29  GLU29      -0.2457
     40  N         49.9520   -0.3290  -13.8610 N.am   30  TYR30      -0.1976
     41  CA        49.5140    0.5200  -12.7580 C.3    30  TYR30       0.1639
     42  C         48.0020    0.5220  -12.6130 C.2    30  TYR30       0.2290
     43  O         47.4830    0.4140  -11.5070 O.2    30  TYR30      -0.2864
     44  CB        50.0080    1.9510  -12.9430 C.3    30  TYR30       0.0560
     45  CG        49.5170    2.9080  -11.8730 C.ar   30  TYR30      -0.0198
     46  CD1       50.0420    2.8670  -10.5840 C.ar   30  TYR30      -0.0009
     47  CD2       48.5320    3.8490  -12.1520 C.ar   30  TYR30      -0.0009
     48  CE1       49.5960    3.7360   -9.6000 C.ar   30  TYR30       0.0417
     49  CE2       48.0800    4.7180  -11.1760 C.ar   30  TYR30       0.0417
     50  CZ        48.6130    4.6590   -9.9030 C.ar   30  TYR30       0.1957
     51  OH        48.1650    5.5250   -8.9340 O.3    30  TYR30      -0.2866
     52  N         45.9560   -1.8250  -13.7340 N.3    32  ALA32      -0.1231
     53  CA        45.6250   -3.1820  -13.3150 C.3    32  ALA32       0.1694
     54  C         45.7820   -3.3210  -11.8070 C.2    32  ALA32       0.2593
     55  O         44.9330   -3.9130  -11.1340 O.2    32  ALA32      -0.2718
     56  CB        46.4920   -4.1980  -14.0380 C.3    32  ALA32       0.0304
     57  N         46.8640   -2.7530  -11.2830 N.am   33  GLY33      -0.1942
     58  CA        47.1230   -2.7660   -9.8530 C.3    33  GLY33       0.2014
     59  C         46.0960   -1.9650   -9.0770 C.2    33  GLY33       0.2638
     60  O         45.4910   -2.4750   -8.1380 O.2    33  GLY33      -0.2714
     61  N         45.8990   -0.7080   -9.4660 N.am   34  VAL34      -0.1977
     62  CA        44.9090    0.1410   -8.8170 C.3    34  VAL34       0.1596
     63  C         43.5250   -0.4700   -8.9450 C.2    34  VAL34       0.2287
     64  O         42.7500   -0.4720   -7.9900 O.2    34  VAL34      -0.2864
     65  CB        44.8830    1.5700   -9.4010 C.3    34  VAL34       0.0276
     66  CG1       43.5790    2.2680   -9.0480 C.3    34  VAL34       0.0022
     67  CG2       46.0850    2.3700   -8.9110 C.3    34  VAL34       0.0022
     68  N         42.8700   -3.4920   -9.0500 N.3    36  TYR36      -0.1227
     69  CA        42.8530   -4.6000   -8.0990 C.3    36  TYR36       0.1736
     70  C         42.4750   -4.1270   -6.7010 C.2    36  TYR36       0.2595
     71  O         41.5780   -4.6750   -6.0660 O.2    36  TYR36      -0.2718
     72  CB        44.2200   -5.2890   -8.0530 C.3    36  TYR36       0.0548
     73  CG        44.3830   -6.2360   -6.8830 C.ar   36  TYR36      -0.0200
     74  CD1       43.7440   -7.4700   -6.8720 C.ar   36  TYR36      -0.0009
     75  CD2       45.1740   -5.9000   -5.7900 C.ar   36  TYR36      -0.0009
     76  CE1       43.8850   -8.3460   -5.8060 C.ar   36  TYR36       0.0417
     77  CE2       45.3190   -6.7650   -4.7260 C.ar   36  TYR36       0.0417
     78  CZ        44.6710   -7.9880   -4.7380 C.ar   36  TYR36       0.1957
     79  OH        44.8030   -8.8630   -3.6880 O.3    36  TYR36      -0.2866
     80  N         43.1670   -3.0960   -6.2340 N.am   37  LEU37      -0.1980
     81  CA        43.0170   -2.6220   -4.8630 C.3    37  LEU37       0.1596
     82  C         41.6590   -1.9730   -4.5950 C.2    37  LEU37       0.2287
     83  O         41.2380   -1.8680   -3.4440 O.2    37  LEU37      -0.2864
     84  CB        44.1600   -1.6780   -4.5080 C.3    37  LEU37       0.0297
     85  CG        45.5060   -2.3940   -4.3830 C.3    37  LEU37       0.0022
     86  CD1       46.6580   -1.4030   -4.3180 C.3    37  LEU37       0.0001
     87  CD2       45.5050   -3.3200   -3.1770 C.3    37  LEU37       0.0001
     88  N         39.0130   -3.3330   -5.9800 N.3    39  GLU39      -0.1245
     89  CA        38.2780   -4.5650   -5.7410 C.3    39  GLU39       0.1567
     90  C         38.4820   -4.9210   -4.2760 C.2    39  GLU39       0.2260
     91  O         37.5220   -5.1380   -3.5400 O.2    39  GLU39      -0.2867
     92  CB        38.7620   -5.7000   -6.6480 C.3    39  GLU39       0.0388
     93  CG        37.7980   -6.8860   -6.7020 C.3    39  GLU39       0.1160
     94  CD        38.2620   -7.9950   -7.6260 C.2    39  GLU39       0.3649
     95  OE1       39.1660   -7.7440   -8.4520 O.co2  39  GLU39      -0.2457
     96  OE2       37.7190   -9.1180   -7.5230 O.co2  39  GLU39      -0.2457
     97  N         40.0560   -4.8100    2.4690 N.3    46  THR46      -0.1218
     98  CA        41.1690   -3.8740    2.6490 C.3    46  THR46       0.1862
     99  C         42.0420   -4.2090    3.8510 C.2    46  THR46       0.2287
    100  O         43.2610   -4.3270    3.7160 O.2    46  THR46      -0.2866
    101  CB        40.6720   -2.4170    2.7520 C.3    46  THR46       0.1770
    102  OG1       39.2520   -2.4080    2.9560 O.3    46  THR46      -0.2211
    103  CG2       41.0070   -1.6630    1.4770 C.3    46  THR46       0.0375
    104  N         43.6920   -7.9660    3.5350 N.3    49  LEU49      -0.1231
    105  CA        44.8350   -7.9680    2.6350 C.3    49  LEU49       0.1693
    106  C         46.0920   -7.4640    3.3390 C.2    49  LEU49       0.2591
    107  O         47.1730   -8.0380    3.1780 O.2    49  LEU49      -0.2718
    108  CB        44.5400   -7.0960    1.4100 C.3    49  LEU49       0.0284
    109  CG        45.6880   -6.8240    0.4330 C.3    49  LEU49       0.0019
    110  CD1       46.3620   -8.1120   -0.0140 C.3    49  LEU49       0.0001
    111  CD2       45.1890   -6.0350   -0.7640 C.3    49  LEU49       0.0001
    112  N         45.9460   -6.4030    4.1280 N.am   50  LEU50      -0.1980
    113  CA        47.0520   -5.8590    4.9070 C.3    50  LEU50       0.1596
    114  C         47.5220   -6.8380    5.9770 C.2    50  LEU50       0.2287
    115  O         48.7170   -7.0850    6.1280 O.2    50  LEU50      -0.2864
    116  CB        46.6290   -4.5540    5.5890 C.3    50  LEU50       0.0297
    117  CG        46.2460   -3.3890    4.6830 C.3    50  LEU50       0.0022
    118  CD1       45.0640   -2.6180    5.2500 C.3    50  LEU50       0.0001
    119  CD2       47.4360   -2.4790    4.4610 C.3    50  LEU50       0.0001
    120  N         50.1400   -9.8550    4.7860 N.3    53  PHE53      -0.1227
    121  CA        51.5510   -9.6400    4.4700 C.3    53  PHE53       0.1736
    122  C         52.3070   -8.7750    5.4880 C.2    53  PHE53       0.2595
    123  O         53.5310   -8.6630    5.4290 O.2    53  PHE53      -0.2718
    124  CB        51.6910   -9.0470    3.0620 C.3    53  PHE53       0.0547
    125  CG        51.0670   -9.8920    1.9850 C.ar   53  PHE53      -0.0202
    126  CD1       51.8320  -10.7760    1.2510 C.ar   53  PHE53      -0.0042
    127  CD2       49.7120   -9.8060    1.7180 C.ar   53  PHE53      -0.0042
    128  CE1       51.2570  -11.5580    0.2680 C.ar   53  PHE53      -0.0003
    129  CE2       49.1290  -10.5830    0.7350 C.ar   53  PHE53      -0.0003
    130  CZ        49.9030  -11.4620    0.0090 C.ar   53  PHE53      -0.0000
    131  N         51.5770   -8.1830    6.4270 N.am   54  LEU54      -0.1980
    132  CA        52.1280   -7.1710    7.3370 C.3    54  LEU54       0.1596
    133  C         52.0600   -7.5170    8.8310 C.2    54  LEU54       0.2287
    134  O         53.0830   -7.5850    9.5140 O.2    54  LEU54      -0.2864
    135  CB        51.5290   -5.7920    7.0430 C.3    54  LEU54       0.0297
    136  CG        51.9240   -5.2900    5.6520 C.3    54  LEU54       0.0022
    137  CD1       51.4690   -3.8570    5.4060 C.3    54  LEU54       0.0001
    138  CD2       53.4280   -5.4240    5.4420 C.3    54  LEU54       0.0001
    139  N         43.1660  -15.0000   -4.4840 N.3   174  ARG174     -0.1231
    140  CA        43.8900  -15.1850   -5.7330 C.3   174  ARG174      0.1694
    141  C         45.2570  -14.5190   -5.6880 C.2   174  ARG174      0.2591
    142  O         46.2340  -15.0580   -6.2000 O.2   174  ARG174     -0.2718
    143  CB        43.0820  -14.6260   -6.9020 C.3   174  ARG174      0.0321
    144  CG        43.6670  -13.3580   -7.4980 C.3   174  ARG174      0.0489
    145  CD        42.8920  -12.9190   -8.7280 C.3   174  ARG174      0.2205
    146  NE        41.4640  -12.7950   -8.4590 N.pl3 174  ARG174     -0.0865
    147  CZ        40.7930  -11.6510   -8.5140 C.cat 174  ARG174      0.5346
    148  NH1       41.4200  -10.5270   -8.8280 N.pl3 174  ARG174      0.1354
    149  NH2       39.4940  -11.6300   -8.2550 N.pl3 174  ARG174      0.1354
    150  N         45.3280  -13.3440   -5.0740 N.am  175  LEU175     -0.1980
    151  CA        46.5790  -12.6000   -5.0330 C.3   175  LEU175      0.1596
    152  C         47.6100  -13.4440   -4.3150 C.2   175  LEU175      0.2287
    153  O         48.7700  -13.4940   -4.7120 O.2   175  LEU175     -0.2864
    154  CB        46.4050  -11.2710   -4.3050 C.3   175  LEU175      0.0297
    155  CG        47.6980  -10.6950   -3.7250 C.3   175  LEU175      0.0022
    156  CD1       48.7980  -10.6910   -4.7730 C.3   175  LEU175      0.0001
    157  CD2       47.4710   -9.2950   -3.1770 C.3   175  LEU175      0.0001
    158  N         48.7110  -15.9890   -6.7990 N.3   178  HIS178     -0.1226
    159  CA        49.7980  -15.5560   -7.6700 C.3   178  HIS178      0.1752
    160  C         51.1330  -15.5470   -6.9370 C.2   178  HIS178      0.2595
    161  O         52.1890  -15.6960   -7.5500 O.2   178  HIS178     -0.2718
    162  CB        49.5250  -14.1530   -8.2100 C.3   178  HIS178      0.0759
    163  CG        48.2000  -14.0170   -8.8960 C.ar  178  HIS178      0.0818
    164  ND1       47.5010  -12.8330   -8.9370 N.ar  178  HIS178     -0.2268
    165  CD2       47.4540  -14.9210   -9.5700 C.ar  178  HIS178      0.1154
    166  CE1       46.3750  -13.0130   -9.6030 C.ar  178  HIS178      0.1986
    167  NE2       46.3230  -14.2730  -10.0010 N.ar  178  HIS178     -0.2212
    168  N         51.0730  -15.3690   -5.6230 N.am  179  LEU179     -0.1980
    169  CA        52.2700  -15.2770   -4.7960 C.3   179  LEU179      0.1596
    170  C         52.7130  -16.6510   -4.2880 C.2   179  LEU179      0.2287
    171  O         53.6590  -16.7580   -3.5060 O.2   179  LEU179     -0.2864
    172  CB        52.0440  -14.2830   -3.6500 C.3   179  LEU179      0.0297
    173  CG        51.9270  -12.8270   -4.1170 C.3   179  LEU179      0.0022
    174  CD1       51.6650  -11.8950   -2.9530 C.3   179  LEU179      0.0001
    175  CD2       53.1820  -12.4030   -4.8700 C.3   179  LEU179      0.0001
@<TRIPOS>BOND
     1    31    32    1
     2    39    37   ar
     3    37    36    1
     4    37    38   ar
     5    36    35    1
     6    32    35    1
     7    32    33    1
     8    26    27    2
     9    26    25    1
    10    25    24    1
    11    25    28    1
    12    56    53    1
    13    33    40   am
    14    33    34    2
    15    40    41    1
    16    52    53    1
    17    53    54    1
    18    44    41    1
    19    44    45    1
    20    29    28    1
    21    28    30    1
    22    41    42    1
    23    42    43    2
    24    47    45   ar
    25    47    49   ar
    26    19    18    2
    27    45    46   ar
    28    54    57   am
    29    54    55    2
    30    57    58    1
    31    49    50   ar
    32    18    17    1
    33    46    48   ar
    34   167   166   ar
    35   167   165   ar
    36    50    48   ar
    37    50    51    1
    38    58    59    1
    39    17    20    1
    40    17    16    1
    41   166   164   ar
    42   165   163   ar
    43    61    59   am
    44    61    62    1
    45    65    66    1
    46    65    67    1
    47    65    62    1
    48    20    21    1
    49    23    21    1
    50    59    60    2
    51    68    69    1
    52    63    62    1
    53    63    64    2
    54   164   163   ar
    55   163   162    1
    56   148   147    1
    57   145   146    1
    58   145   144    1
    59    21    22    1
    60   147   146    2
    61   147   149    1
    62    95    94   ar
    63   162   159    1
    64    69    72    1
    65    69    70    1
    66    72    73    1
    67   159   160    1
    68   159   158    1
    69    94    96   ar
    70    94    93    1
    71   161   160    2
    72   144   143    1
    73   160   168   am
    74   143   140    1
    75    73    74   ar
    76    73    75   ar
    77    74    76   ar
    78    93    92    1
    79    70    80   am
    80    70    71    2
    81    92    89    1
    82    80    81    1
    83   142   141    2
    84    88    89    1
    85    76    78   ar
    86    75    77   ar
    87    12    11    2
    88    89    90    1
    89   140   141    1
    90   140   139    1
    91   141   150   am
    92   168   169    1
    93   150   151    1
    94   151   152    1
    95   151   154    1
    96   175   173    1
    97    81    82    1
    98    81    84    1
    99   169   170    1
   100   169   172    1
   101   156   155    1
   102    11    10    1
   103    78    77   ar
   104    78    79    1
   105   153   152    2
   106    82    83    2
   107    84    85    1
   108    85    86    1
   109    85    87    1
   110    14    13    1
   111   154   155    1
   112   170   171    2
   113    90    91    2
   114   173   172    1
   115   173   174    1
   116   155   157    1
   117    10    13    1
   118    10     9    1
   119    13    15    1
   120   111   109    1
   121     4     3    2
   122   110   109    1
   123   130   128   ar
   124   130   129   ar
   125   128   126   ar
   126   109   108    1
   127   129   127   ar
   128     3     2    1
   129   126   125   ar
   130   108   105    1
   131   103   101    1
   132   127   125   ar
   133     7     5    1
   134   125   124    1
   135     2     5    1
   136     2     1    1
   137    97    98    1
   138   105   106    1
   139   105   104    1
   140    98   101    1
   141    98    99    1
   142   101   102    1
   143     5     6    1
   144   124   121    1
   145   107   106    2
   146   106   112   am
   147   100    99    2
   148   112   113    1
   149     6     8    1
   150   119   117    1
   151   121   120    1
   152   121   122    1
   153   117   118    1
   154   117   116    1
   155   113   116    1
   156   113   114    1
   157   137   136    1
   158   123   122    2
   159   138   136    1
   160   122   131   am
   161   136   135    1
   162   114   115    2
   163   131   132    1
   164   135   132    1
   165   132   133    1
   166   133   134    2
