@<TRIPOS>MOLECULE
tmp/3th1A00.pdb
 135 129 0 0 0
SMALL
GASTEIGER

@<TRIPOS>ATOM
      1  N         41.9880   -7.0710    5.7310 N.3    48  LEU48      -0.1245
      2  CA        42.4560   -8.4410    5.5480 C.3    48  LEU48       0.1561
      3  C         43.7590   -8.4540    4.7680 C.2    48  LEU48       0.2260
      4  O         44.7930   -8.8990    5.2690 O.2    48  LEU48      -0.2867
      5  CB        41.4060   -9.2900    4.8310 C.3    48  LEU48       0.0270
      6  CG        41.9600  -10.5270    4.1140 C.3    48  LEU48       0.0019
      7  CD1       42.8340  -11.3730    5.0270 C.3    48  LEU48       0.0001
      8  CD2       40.8250  -11.3510    3.5320 C.3    48  LEU48       0.0001
      9  N         46.5660   -7.3780    6.7270 N.3    51  ASP51      -0.1225
     10  CA        46.8670   -8.2780    7.8360 C.3    51  ASP51       0.1805
     11  C         47.7440   -9.4490    7.4120 C.2    51  ASP51       0.2597
     12  O         48.5530   -9.9490    8.1930 O.2    51  ASP51      -0.2718
     13  CB        45.5750   -8.8090    8.4820 C.3    51  ASP51       0.1424
     14  CG        45.0030   -7.8530    9.5130 C.2    51  ASP51       0.3668
     15  OD1       45.3150   -6.6450    9.4330 O.co2  51  ASP51      -0.2456
     16  OD2       44.2460   -8.3100   10.4010 O.co2  51  ASP51      -0.2456
     17  N         47.5730   -9.8830    6.1680 N.am   52  VAL52      -0.1980
     18  CA        48.2350  -11.0850    5.6750 C.3    52  VAL52       0.1595
     19  C         49.7450  -10.9130    5.4840 C.2    52  VAL52       0.2287
     20  O         50.5350  -11.7300    5.9540 O.2    52  VAL52      -0.2864
     21  CB        47.6030  -11.5710    4.3500 C.3    52  VAL52       0.0276
     22  CG1       48.4480  -12.6700    3.7270 C.3    52  VAL52       0.0022
     23  CG2       46.1800  -12.0520    4.5920 C.3    52  VAL52       0.0022
     24  N         50.8430   -7.7070    9.3290 N.3    55  ASN55      -0.1240
     25  CA        50.5820   -7.8760   10.7540 C.3    55  ASN55       0.1653
     26  C         51.5710   -8.8290   11.4250 C.2    55  ASN55       0.2266
     27  O         52.0140   -8.5810   12.5440 O.2    55  ASN55      -0.2867
     28  CB        49.1580   -8.4170   10.9240 C.3    55  ASN55       0.1155
     29  CG        48.6910   -8.4260   12.3610 C.2    55  ASN55       0.2627
     30  OD1       49.4680   -8.2030   13.2850 O.2    55  ASN55      -0.2716
     31  ND2       47.4050   -8.7020   12.5570 N.am   55  ASN55      -0.0877
     32  N         49.6340  -12.3570   16.2950 N.3    73  ILE73      -0.1245
     33  CA        48.7060  -11.4700   15.6000 C.3    73  ILE73       0.1561
     34  C         47.3290  -11.5710   16.2440 C.2    73  ILE73       0.2260
     35  O         46.9350  -12.6400   16.7160 O.2    73  ILE73      -0.2867
     36  CB        48.6120  -11.8210   14.1010 C.3    73  ILE73       0.0252
     37  CG1       47.9610  -13.1940   13.9080 C.3    73  ILE73       0.0019
     38  CG2       49.9870  -11.7930   13.4610 C.3    73  ILE73       0.0019
     39  CD1       47.6590  -13.5280   12.4700 C.3    73  ILE73       0.0001
     40  N         43.9890  -10.7170   14.8760 N.3    75  GLY75      -0.1210
     41  CA        42.9110  -11.2480   14.0620 C.3    75  GLY75       0.1940
     42  C         41.6340  -10.4320   14.1670 C.2    75  GLY75       0.2454
     43  O         41.3900   -9.7810   15.1810 O.2    75  GLY75      -0.2732
     44  N         40.8100  -10.4600   13.1130 N.am   76  PRO76      -0.2717
     45  CA        39.5600   -9.7010   12.9880 C.3    76  PRO76       0.1535
     46  C         38.4300  -10.1160   13.9380 C.2    76  PRO76       0.2598
     47  O         37.4950   -9.3360   14.1020 O.2    76  PRO76      -0.2715
     48  CB        39.1380   -9.9520   11.5330 C.3    76  PRO76       0.0310
     49  CG        39.8290  -11.2100   11.1490 C.3    76  PRO76       0.0237
     50  CD        41.1350  -11.1810   11.8700 C.3    76  PRO76       0.0939
     51  N         38.5050  -11.2960   14.5460 N.am   77  TYR77      -0.1974
     52  CA        37.3370  -11.8730   15.2180 C.3    77  TYR77       0.1639
     53  C         37.1770  -11.5840   16.7170 C.2    77  TYR77       0.2290
     54  O         36.2530  -12.0950   17.3530 O.2    77  TYR77      -0.2864
     55  CB        37.2100  -13.3680   14.8910 C.3    77  TYR77       0.0560
     56  CG        37.1030  -13.5830   13.4060 C.ar   77  TYR77      -0.0198
     57  CD1       36.0970  -12.9710   12.6820 C.ar   77  TYR77      -0.0009
     58  CD2       38.0170  -14.3640   12.7180 C.ar   77  TYR77      -0.0009
     59  CE1       35.9930  -13.1370   11.3200 C.ar   77  TYR77       0.0417
     60  CE2       37.9220  -14.5420   11.3430 C.ar   77  TYR77       0.0417
     61  CZ        36.9080  -13.9240   10.6520 C.ar   77  TYR77       0.1957
     62  OH        36.8110  -14.0970    9.2870 O.3    77  TYR77      -0.2866
     63  N         40.9210  -22.7070    9.7610 N.3   164  TYR164     -0.1241
     64  CA        39.9750  -22.0640    8.8670 C.3   164  TYR164      0.1605
     65  C         40.7440  -21.2300    7.8640 C.2   164  TYR164      0.2264
     66  O         41.8640  -20.7930    8.1310 O.2   164  TYR164     -0.2867
     67  CB        38.9710  -21.2030    9.6370 C.3   164  TYR164      0.0534
     68  CG        39.6000  -20.1540   10.5170 C.ar  164  TYR164     -0.0201
     69  CD1       40.3640  -19.1400    9.9760 C.ar  164  TYR164     -0.0009
     70  CD2       39.4020  -20.1580   11.8870 C.ar  164  TYR164     -0.0009
     71  CE1       40.9390  -18.1690   10.7770 C.ar  164  TYR164      0.0417
     72  CE2       39.9680  -19.1960   12.6930 C.ar  164  TYR164      0.0417
     73  CZ        40.7340  -18.1980   12.1380 C.ar  164  TYR164      0.1957
     74  OH        41.2990  -17.2310   12.9520 O.3   164  TYR164     -0.2866
     75  N         41.0810  -17.8440    5.3890 N.3   166  ILE166     -0.1231
     76  CA        40.6660  -16.4640    5.2040 C.3   166  ILE166      0.1678
     77  C         39.8350  -16.4240    3.9200 C.2   166  ILE166      0.2434
     78  O         39.8830  -17.3710    3.1300 O.2   166  ILE166     -0.2733
     79  CB        41.8870  -15.5310    5.1460 C.3   166  ILE166      0.0265
     80  CG1       42.5550  -15.6050    3.7750 C.3   166  ILE166      0.0019
     81  CG2       42.8730  -15.9020    6.2430 C.3   166  ILE166      0.0020
     82  CD1       43.9140  -14.9800    3.7420 C.3   166  ILE166      0.0001
     83  N         39.0490  -15.3520    3.7080 N.am  167  PRO167     -0.2729
     84  CA        38.0590  -15.5050    2.6390 C.3   167  PRO167      0.1401
     85  C         38.7810  -15.7660    1.3220 C.2   167  PRO167      0.2269
     86  O         39.6290  -14.9760    0.9060 O.2   167  PRO167     -0.2865
     87  CB        37.3710  -14.1330    2.5960 C.3   167  PRO167      0.0296
     88  CG        37.8070  -13.4190    3.8290 C.3   167  PRO167      0.0237
     89  CD        39.1250  -13.9750    4.2080 C.3   167  PRO167      0.0939
     90  N         44.8830  -21.2050    7.5490 N.3   185  ARG185     -0.1245
     91  CA        45.5790  -20.9970    8.8210 C.3   185  ARG185      0.1563
     92  C         45.4230  -22.2290    9.7080 C.2   185  ARG185      0.2260
     93  O         44.3980  -22.9080    9.6530 O.2   185  ARG185     -0.2867
     94  CB        45.0280  -19.7630    9.5470 C.3   185  ARG185      0.0307
     95  CG        45.0360  -18.4920    8.7240 C.3   185  ARG185      0.0489
     96  CD        45.1990  -17.2630    9.6040 C.3   185  ARG185      0.2205
     97  NE        46.4620  -17.2790   10.3380 N.pl3 185  ARG185     -0.0865
     98  CZ        46.5650  -17.4740   11.6510 C.cat 185  ARG185      0.5346
     99  NH1       45.4780  -17.6600   12.3830 N.pl3 185  ARG185      0.1354
    100  NH2       47.7540  -17.4750   12.2390 N.pl3 185  ARG185      0.1354
    101  N         43.8750  -22.4700   16.1490 N.3   188  HIS188     -0.1241
    102  CA        44.4720  -21.6630   17.2070 C.3   188  HIS188      0.1621
    103  C         43.4080  -21.1740   18.1780 C.2   188  HIS188      0.2264
    104  O         42.2280  -21.0990   17.8330 O.2   188  HIS188     -0.2867
    105  CB        45.2030  -20.4570   16.6060 C.3   188  HIS188      0.0745
    106  CG        44.3160  -19.5460   15.8090 C.ar  188  HIS188      0.0817
    107  ND1       43.7730  -19.9110   14.5970 N.ar  188  HIS188     -0.2268
    108  CD2       43.8890  -18.2840   16.0490 C.ar  188  HIS188      0.1154
    109  CE1       43.0420  -18.9170   14.1270 C.ar  188  HIS188      0.1986
    110  NE2       43.0940  -17.9150   14.9900 N.ar  188  HIS188     -0.2212
    111  N         42.5210  -17.8580   20.8200 N.3   190  HIS190     -0.1241
    112  CA        42.8390  -16.4390   20.9950 C.3   190  HIS190      0.1621
    113  C         42.8140  -15.9600   22.4470 C.2   190  HIS190      0.2264
    114  O         41.7920  -16.0620   23.1270 O.2   190  HIS190     -0.2867
    115  CB        41.8450  -15.5830   20.1990 C.3   190  HIS190      0.0745
    116  CG        42.1480  -15.4800   18.7350 C.ar  190  HIS190      0.0817
    117  ND1       42.8560  -14.4280   18.1980 N.ar  190  HIS190     -0.2268
    118  CD2       41.8060  -16.2760   17.6950 C.ar  190  HIS190      0.1154
    119  CE1       42.9580  -14.5890   16.8920 C.ar  190  HIS190      0.1986
    120  NE2       42.3290  -15.7040   16.5590 N.ar  190  HIS190     -0.2212
    121  N         47.7580  -15.6590   20.1610 N.3   204  GLN204     -0.1245
    122  CA        47.0390  -16.8940   19.8850 C.3   204  GLN204      0.1566
    123  C         48.0160  -18.0620   19.9690 C.2   204  GLN204      0.2260
    124  O         49.2190  -17.8790   19.8110 O.2   204  GLN204     -0.2867
    125  CB        46.3870  -16.8400   18.5080 C.3   204  GLN204      0.0367
    126  CG        47.3600  -16.5650   17.3800 C.3   204  GLN204      0.0905
    127  CD        46.6830  -16.4620   16.0240 C.2   204  GLN204      0.2608
    128  OE1       46.0430  -15.4570   15.7110 O.2   204  GLN204     -0.2717
    129  NE2       46.8340  -17.4990   15.2060 N.am  204  GLN204     -0.0878
    130  N         48.9450  -16.3170    6.5090 N.3   218  CYS218     -0.1235
    131  CA        49.5830  -15.2620    7.2820 C.3   218  CYS218      0.1677
    132  C         50.7760  -15.9620    7.9110 C.2   218  CYS218      0.2270
    133  O         50.7590  -17.1730    8.0500 O.2   218  CYS218     -0.2867
    134  CB        48.6480  -14.7160    8.3620 C.3   218  CYS218      0.0956
    135  SG        46.8820  -14.7960    7.9710 S.3   218  CYS218     -0.0801
@<TRIPOS>BOND
     1    86    85    2
     2    85    84    1
     3    87    84    1
     4    87    88    1
     5    84    83    1
     6    78    77    2
     7     8     6    1
     8    83    77   am
     9    83    89    1
    10    22    21    1
    11    82    80    1
    12    80    79    1
    13    88    89    1
    14    77    76    1
    15     6     5    1
    16     6     7    1
    17    21    23    1
    18    21    18    1
    19     3     4    2
    20     3     2    1
    21     5     2    1
    22    79    76    1
    23    79    81    1
    24    76    75    1
    25    19    18    1
    26    19    20    2
    27     2     1    1
    28    18    17    1
    29    17    11   am
    30   130   131    1
    31     9    10    1
    32   131   132    1
    33   131   134    1
    34    11    10    1
    35    11    12    2
    36    90    91    1
    37    10    13    1
    38    65    66    2
    39    65    64    1
    40   132   133    2
    41   135   134    1
    42    13    14    1
    43    95    94    1
    44    95    96    1
    45    91    94    1
    46    91    92    1
    47    64    67    1
    48    64    63    1
    49    62    61    1
    50    24    25    1
    51    15    14   ar
    52    14    16   ar
    53    96    97    1
    54    67    68    1
    55    93    92    2
    56    69    68   ar
    57    69    71   ar
    58    97    98    2
    59    68    70   ar
    60    61    59   ar
    61    61    60   ar
    62    25    28    1
    63    25    26    1
    64    71    73   ar
    65    28    29    1
    66    49    48    1
    67    49    50    1
    68    59    57   ar
    69    60    58   ar
    70    26    27    2
    71    48    45    1
    72    98   100    1
    73    98    99    1
    74    50    44    1
    75    70    72   ar
    76    73    72   ar
    77    73    74    1
    78    29    31   am
    79    29    30    2
    80    39    37    1
    81    57    56   ar
    82    58    56   ar
    83    45    44    1
    84    45    46    1
    85    44    42   am
    86    56    55    1
    87    38    36    1
    88    37    36    1
    89    46    47    2
    90    46    51   am
    91    41    42    1
    92    41    40    1
    93    36    33    1
    94   109   107   ar
    95   109   110   ar
    96    42    43    2
    97    51    52    1
    98   107   106   ar
    99    55    52    1
   100   110   108   ar
   101   129   127   am
   102    52    53    1
   103    33    34    1
   104    33    32    1
   105   128   127    2
   106   106   108   ar
   107   106   105    1
   108   127   126    1
   109   101   102    1
   110    34    35    2
   111   120   119   ar
   112   120   118   ar
   113   105   102    1
   114    53    54    2
   115   119   117   ar
   116   102   103    1
   117   126   125    1
   118   118   116   ar
   119   104   103    2
   120   117   116   ar
   121   125   122    1
   122   116   115    1
   123   124   123    2
   124   122   123    1
   125   122   121    1
   126   115   112    1
   127   111   112    1
   128   112   113    1
   129   113   114    2
