@<TRIPOS>MOLECULE
tmp/3th3B00.pdb
 203 201 0 0 0
SMALL
GASTEIGER

@<TRIPOS>ATOM
      1  N         38.1790    1.2750  -11.4710 N.3    25  LEU25      -0.1231
      2  CA        37.0590    1.1610  -12.3930 C.3    25  LEU25       0.1693
      3  C         35.7140    1.2950  -11.6770 C.2    25  LEU25       0.2592
      4  O         35.0150    2.2900  -11.8430 O.2    25  LEU25      -0.2718
      5  CB        37.1270   -0.1480  -13.2110 C.3    25  LEU25       0.0284
      6  CG        36.0060   -0.3270  -14.2540 C.3    25  LEU25       0.0019
      7  CD1       35.8860    0.9040  -15.1800 C.3    25  LEU25       0.0001
      8  CD2       36.1130   -1.6170  -15.0940 C.3    25  LEU25       0.0001
      9  N         35.3590    0.2890  -10.8840 N.am   26  CYS26      -0.1970
     10  CA        34.1070    0.2800  -10.1590 C.3    26  CYS26       0.1712
     11  C         34.3040   -0.4850   -8.8830 C.2    26  CYS26       0.2296
     12  O         35.3880   -0.9550   -8.6300 O.2    26  CYS26      -0.2864
     13  CB        33.0450   -0.3960  -11.0310 C.3    26  CYS26       0.0983
     14  SG        32.2350    0.8070  -12.1360 S.3    26  CYS26      -0.0798
     15  N         27.0830   -0.7840  -16.3870 N.3    41  HIS41      -0.1226
     16  CA        27.5210    0.3640  -17.1820 C.3    41  HIS41       0.1752
     17  C         28.9500    0.6630  -16.8970 C.2    41  HIS41       0.2596
     18  O         29.5290    1.5260  -17.5250 O.2    41  HIS41      -0.2718
     19  CB        26.6890    1.5930  -16.8730 C.3    41  HIS41       0.0759
     20  CG        27.0200    2.2080  -15.5610 C.ar   41  HIS41       0.0818
     21  ND1       26.2890    1.9540  -14.4320 N.ar   41  HIS41      -0.2268
     22  CD2       28.0190    3.0470  -15.1910 C.ar   41  HIS41       0.1154
     23  CE1       26.8090    2.6290  -13.4190 C.ar   41  HIS41       0.1986
     24  NE2       27.8650    3.2970  -13.8540 N.ar   41  HIS41      -0.2212
     25  N         29.5060   -0.0200  -15.9060 N.am   42  CYS42      -0.1970
     26  CA        30.9320    0.0430  -15.6780 C.3    42  CYS42       0.1712
     27  C         31.6740   -0.4310  -16.9410 C.2    42  CYS42       0.2296
     28  O         32.8510   -0.1520  -17.1070 O.2    42  CYS42      -0.2864
     29  CB        31.3080   -0.8190  -14.4930 C.3    42  CYS42       0.0983
     30  SG        30.6590   -0.2340  -12.8780 S.3    42  CYS42      -0.0798
     31  N         24.8620    3.0040  -21.9390 N.3    85  GLY85      -0.1210
     32  CA        24.7230    4.4490  -21.7970 C.3    85  GLY85       0.1956
     33  C         23.3800    4.8760  -21.2540 C.2    85  GLY85       0.2613
     34  O         23.0680    6.0430  -21.2540 O.2    85  GLY85      -0.2717
     35  N         22.5830    3.9200  -20.7940 N.am   86  THR86      -0.1938
     36  CA        21.2960    4.1800  -20.1330 C.3    86  THR86       0.2028
     37  C         21.3810    3.5110  -18.7570 C.2    86  THR86       0.2642
     38  O         22.3490    2.7790  -18.5040 O.2    86  THR86      -0.2714
     39  CB        20.1070    3.6600  -20.9990 C.3    86  THR86       0.1808
     40  OG1       20.1280    2.2170  -21.0930 O.3    86  THR86      -0.2208
     41  CG2       20.1870    4.2700  -22.4280 C.3    86  THR86       0.0379
     42  N         20.4200    3.7490  -17.8610 N.am   87  THR87      -0.1950
     43  CA        20.5870    3.2630  -16.4660 C.3    87  THR87       0.1897
     44  C         19.6700    2.1270  -16.0690 C.2    87  THR87       0.2313
     45  O         19.6790    1.6590  -14.9140 O.2    87  THR87      -0.2863
     46  CB        20.4790    4.3680  -15.4110 C.3    87  THR87       0.1794
     47  OG1       19.1920    4.9840  -15.4820 O.3    87  THR87      -0.2208
     48  CG2       21.5830    5.4070  -15.5800 C.3    87  THR87       0.0378
     49  N         30.9720   15.1040   -5.3480 N.3   137  ASP137     -0.1239
     50  CA        30.8040   15.2200   -6.8040 C.3   137  ASP137      0.1674
     51  C         32.0080   15.9850   -7.3470 C.2   137  ASP137      0.2266
     52  O         32.2910   17.1450   -6.9330 O.2   137  ASP137     -0.2867
     53  CB        29.5020   15.9630   -7.1990 C.3   137  ASP137      0.1410
     54  CG        29.1940   15.8920   -8.7410 C.2   137  ASP137      0.3668
     55  OD1       29.8500   15.0910   -9.4880 O.co2 137  ASP137     -0.2456
     56  OD2       28.2710   16.6380   -9.1960 O.co2 137  ASP137     -0.2456
     57  N         13.3240   17.1980  -13.1950 N.3   165  VAL165     -0.1245
     58  CA        14.3910   17.7710  -14.0300 C.3   165  VAL165      0.1561
     59  C         14.2240   17.2730  -15.4700 C.2   165  VAL165      0.2260
     60  O         14.0280   16.0680  -15.7180 O.2   165  VAL165     -0.2867
     61  CB        15.8300   17.4910  -13.4540 C.3   165  VAL165      0.0252
     62  CG1       16.9240   17.6510  -14.5290 C.3   165  VAL165      0.0019
     63  CG2       16.1120   18.4000  -12.2500 C.3   165  VAL165      0.0019
     64  N         14.3670   15.7870  -18.9030 N.3   167  ASP167     -0.1225
     65  CA        15.0410   14.6270  -19.5170 C.3   167  ASP167      0.1805
     66  C         15.9320   13.7890  -18.5540 C.2   167  ASP167      0.2598
     67  O         16.9580   13.2320  -18.9610 O.2   167  ASP167     -0.2718
     68  CB        15.8120   15.0710  -20.7830 C.3   167  ASP167      0.1424
     69  CG        15.9570   13.9460  -21.8180 C.2   167  ASP167      0.3668
     70  OD1       14.9420   13.6030  -22.4750 O.co2 167  ASP167     -0.2456
     71  OD2       17.0910   13.4120  -21.9820 O.co2 167  ASP167     -0.2456
     72  N         15.5370   13.7030  -17.2800 N.am  168  SER168     -0.1938
     73  CA        16.1950   12.7670  -16.3340 C.3   168  SER168      0.2040
     74  C         15.7070   11.3320  -16.5930 C.2   168  SER168      0.2485
     75  O         14.6530   11.1410  -17.2300 O.2   168  SER168     -0.2729
     76  CB        15.9830   13.1700  -14.8620 C.3   168  SER168      0.2129
     77  OG        14.6910   13.7150  -14.6360 O.3   168  SER168     -0.2179
     78  N         16.4810   10.3190  -16.1410 N.am  169  PRO169     -0.2726
     79  CA        16.0040    8.9300  -16.3170 C.3   169  PRO169      0.1402
     80  C         14.7260    8.6240  -15.4990 C.2   169  PRO169      0.2269
     81  O         14.3760    9.3790  -14.5860 O.2   169  PRO169     -0.2865
     82  CB        17.2020    8.0830  -15.8600 C.3   169  PRO169      0.0296
     83  CG        18.4050    9.0240  -15.9370 C.3   169  PRO169      0.0237
     84  CD        17.8810   10.3860  -15.6640 C.3   169  PRO169      0.0939
     85  N         25.4910   10.6390    0.1260 N.3   186  ASP186     -0.1225
     86  CA        25.0660    9.8730   -1.0180 C.3   186  ASP186      0.1805
     87  C         26.2110    8.9690   -1.4240 C.2   186  ASP186      0.2598
     88  O         27.2970    9.0620   -0.8830 O.2   186  ASP186     -0.2718
     89  CB        24.7320   10.8310   -2.1390 C.3   186  ASP186      0.1424
     90  CG        23.9880   10.1800   -3.2400 C.2   186  ASP186      0.3668
     91  OD1       23.4490    9.0920   -2.9910 O.co2 186  ASP186     -0.2456
     92  OD2       23.9520   10.7500   -4.3530 O.co2 186  ASP186     -0.2456
     93  N         25.9760    8.0630   -2.3460 N.am  187  SER187     -0.1938
     94  CA        27.1050    7.4330   -2.9900 C.3   187  SER187      0.2055
     95  C         27.4420    8.3290   -4.1840 C.2   187  SER187      0.2643
     96  O         26.7380    9.3160   -4.4330 O.2   187  SER187     -0.2714
     97  CB        26.7690    6.0190   -3.4090 C.3   187  SER187      0.2130
     98  OG        25.4500    5.9880   -3.9080 O.3   187  SER187     -0.2179
     99  N         28.5070    7.9920   -4.9140 N.am  188  CYS188     -0.1953
    100  CA        28.9980    8.8820   -5.9460 C.3   188  CYS188      0.1843
    101  C         29.6880    8.1140   -7.1010 C.2   188  CYS188      0.2625
    102  O         29.6050    6.8850   -7.1290 O.2   188  CYS188     -0.2714
    103  CB        29.8890    9.8900   -5.2480 C.3   188  CYS188      0.0997
    104  SG        30.0630   11.5170   -5.9690 S.3   188  CYS188     -0.0797
    105  N         30.3450    8.8110   -8.0500 N.am  189  LYS189     -0.1977
    106  CA        31.0140    8.1360   -9.2080 C.3   189  LYS189      0.1596
    107  C         31.9920    6.9550   -8.9570 C.2   189  LYS189      0.2287
    108  O         31.9770    5.8940   -9.6560 O.2   189  LYS189     -0.2864
    109  CB        31.6760    9.1220  -10.1420 C.3   189  LYS189      0.0298
    110  CG        30.7540    9.6010  -11.3100 C.3   189  LYS189      0.0038
    111  CD        31.5190    9.7710  -12.6610 C.3   189  LYS189      0.0206
    112  CE        33.0650    9.7000  -12.5110 C.3   189  LYS189      0.1093
    113  NZ        33.7650   10.7640  -13.3080 N.3   189  LYS189     -0.1314
    114  N         29.7780    2.9300   -8.3230 N.3   192  SER192     -0.1217
    115  CA        28.9840    2.0500   -9.1700 C.3   192  SER192      0.1889
    116  C         29.4380    0.5970   -9.0690 C.2   192  SER192      0.2288
    117  O         30.6260    0.2940   -9.1790 O.2   192  SER192     -0.2866
    118  CB        29.0390    2.5170  -10.6260 C.3   192  SER192      0.2089
    119  OG        28.1210    3.5710  -10.8590 O.3   192  SER192     -0.2183
    120  N         25.0000    0.2280   -6.3190 N.3   210  VAL210     -0.1231
    121  CA        25.2480    1.6260   -6.6310 C.3   210  VAL210      0.1692
    122  C         25.1730    1.8090   -8.1450 C.2   210  VAL210      0.2593
    123  O         25.8020    1.0950   -8.9190 O.2   210  VAL210     -0.2718
    124  CB        26.5990    2.0520   -6.0530 C.3   210  VAL210      0.0266
    125  CG1       26.7730    3.5660   -6.1250 C.3   210  VAL210      0.0020
    126  CG2       26.6630    1.6290   -4.6170 C.3   210  VAL210      0.0020
    127  N         24.3460    2.7450   -8.5700 N.am  211  SER211     -0.1938
    128  CA        23.9870    2.7910   -9.9460 C.3   211  SER211      0.2055
    129  C         24.0990    4.1750  -10.5360 C.2   211  SER211      0.2643
    130  O         24.9380    4.4240  -11.4370 O.2   211  SER211     -0.2714
    131  CB        22.5830    2.2910  -10.1170 C.3   211  SER211      0.2130
    132  OG        22.3650    2.0320  -11.4890 O.3   211  SER211     -0.2179
    133  N         23.2260    5.0750  -10.0920 N.am  212  TRP212     -0.1959
    134  CA        23.1900    6.4340  -10.6910 C.3   212  TRP212      0.1771
    135  C         22.4940    7.4030   -9.7410 C.2   212  TRP212      0.2620
    136  O         21.8520    6.9700   -8.8040 O.2   212  TRP212     -0.2715
    137  CB        22.5940    6.4470  -12.1260 C.3   212  TRP212      0.0590
    138  CG        21.1190    6.1440  -12.2150 C.ar  212  TRP212      0.0006
    139  CD1       20.5180    4.8950  -12.2900 C.ar  212  TRP212      0.0946
    140  CD2       20.0440    7.1010  -12.2330 C.ar  212  TRP212      0.0152
    141  NE1       19.1380    5.0370  -12.2990 N.ar  212  TRP212     -0.2442
    142  CE2       18.8340    6.3800  -12.2880 C.ar  212  TRP212      0.0810
    143  CE3       19.9950    8.4890  -12.1890 C.ar  212  TRP212      0.0012
    144  CZ2       17.5920    7.0160  -12.3100 C.ar  212  TRP212      0.0191
    145  CZ3       18.7670    9.1190  -12.1930 C.ar  212  TRP212      0.0001
    146  CH2       17.5790    8.3860  -12.2560 C.ar  212  TRP212      0.0015
    147  N         22.7160    8.6920   -9.9740 N.am  213  GLY213     -0.1940
    148  CA        21.9350    9.7830   -9.4290 C.3   213  GLY213      0.2014
    149  C         22.2260   11.0620  -10.2120 C.2   213  GLY213      0.2639
    150  O         22.9890   11.0600  -11.1810 O.2   213  GLY213     -0.2714
    151  N         21.5910   12.1570   -9.8040 N.am  214  GLN214     -0.1963
    152  CA        21.8680   13.4770  -10.3390 C.3   214  GLN214      0.1733
    153  C         23.0210   14.0640   -9.5600 C.2   214  GLN214      0.2617
    154  O         22.7720   14.6830   -8.5130 O.2   214  GLN214     -0.2715
    155  CB        20.6800   14.3700  -10.0690 C.3   214  GLN214      0.0408
    156  CG        20.7140   15.6540  -10.8720 C.3   214  GLN214      0.0908
    157  CD        20.4870   15.3620  -12.3630 C.2   214  GLN214      0.2608
    158  OE1       19.7340   14.4250  -12.7200 O.2   214  GLN214     -0.2717
    159  NE2       21.1400   16.1480  -13.2390 N.am  214  GLN214     -0.0878
    160  N         24.2610   13.8650  -10.0340 N.am  215  GLY215     -0.1940
    161  CA        25.4380   14.2770   -9.2540 C.3   215  GLY215      0.2014
    162  C         25.4510   13.5590   -7.9020 C.2   215  GLY215      0.2639
    163  O         24.9380   12.4480   -7.8250 O.2   215  GLY215     -0.2714
    164  N         26.0180   14.1380   -6.8400 N.am  216  CYS216     -0.1967
    165  CA        26.0760   13.3710   -5.5770 C.3   216  CYS216      0.1712
    166  C         25.7360   14.1960   -4.3710 C.2   216  CYS216      0.2296
    167  O         26.3090   15.2720   -4.1560 O.2   216  CYS216     -0.2864
    168  CB        27.4380   12.7310   -5.3340 C.3   216  CYS216      0.0983
    169  SG        28.2710   12.1220   -6.7470 S.3   216  CYS216     -0.0798
    170  N         17.8650   11.7130   -4.5060 N.3   222  PHE222     -0.1227
    171  CA        18.3930   10.5650   -3.8390 C.3   222  PHE222      0.1736
    172  C         19.3480    9.7450   -4.6990 C.2   222  PHE222      0.2596
    173  O         19.4860    9.9440   -5.9170 O.2   222  PHE222     -0.2718
    174  CB        17.2320    9.6840   -3.4500 C.3   222  PHE222      0.0547
    175  CG        16.2450   10.3570   -2.6060 C.ar  222  PHE222     -0.0202
    176  CD1       16.3040   10.2140   -1.2210 C.ar  222  PHE222     -0.0042
    177  CD2       15.2750   11.1480   -3.1760 C.ar  222  PHE222     -0.0042
    178  CE1       15.3960   10.8560   -0.4140 C.ar  222  PHE222     -0.0003
    179  CE2       14.3380   11.8190   -2.3540 C.ar  222  PHE222     -0.0003
    180  CZ        14.4130   11.6680   -0.9620 C.ar  222  PHE222     -0.0000
    181  N         19.9930    8.7850   -4.0820 N.am  223  GLY223     -0.1942
    182  CA        20.7270    7.8380   -4.8690 C.3   223  GLY223      0.2014
    183  C         19.8080    6.6940   -5.2330 C.2   223  GLY223      0.2639
    184  O         19.0600    6.1730   -4.3650 O.2   223  GLY223     -0.2714
    185  N         19.9050    6.3140   -6.5150 N.am  224  VAL224     -0.1963
    186  CA        19.2060    5.2090   -7.1460 C.3   224  VAL224      0.1727
    187  C         20.1080    3.9720   -7.0860 C.2   224  VAL224      0.2616
    188  O         21.3360    4.0930   -7.1830 O.2   224  VAL224     -0.2715
    189  CB        18.8740    5.5410   -8.6700 C.3   224  VAL224      0.0290
    190  CG1       17.6920    4.7150   -9.2050 C.3   224  VAL224      0.0023
    191  CG2       18.5910    7.0220   -8.8790 C.3   224  VAL224      0.0023
    192  N         19.4940    2.7880   -6.9670 N.am  225  TYR225     -0.1974
    193  CA        20.1860    1.5100   -6.7700 C.3   225  TYR225      0.1639
    194  C         19.5780    0.5050   -7.7370 C.2   225  TYR225      0.2290
    195  O         18.4100    0.6090   -8.0840 O.2   225  TYR225     -0.2864
    196  CB        20.0780    1.0680   -5.2810 C.3   225  TYR225      0.0560
    197  CG        20.9600    2.0140   -4.5330 C.ar  225  TYR225     -0.0198
    198  CD1       20.5280    3.3110   -4.2390 C.ar  225  TYR225     -0.0009
    199  CD2       22.3070    1.6980   -4.2850 C.ar  225  TYR225     -0.0009
    200  CE1       21.3750    4.2280   -3.6900 C.ar  225  TYR225      0.0417
    201  CE2       23.1490    2.6130   -3.7440 C.ar  225  TYR225      0.0417
    202  CZ        22.6650    3.8710   -3.4720 C.ar  225  TYR225      0.1957
    203  OH        23.4830    4.7920   -2.9490 O.3   225  TYR225     -0.2866
@<TRIPOS>BOND
     1    70    69   ar
     2    41    39    1
     3    71    69   ar
     4    31    32    1
     5    69    68    1
     6    32    33    1
     7    33    34    2
     8    33    35   am
     9    40    39    1
    10    39    36    1
    11    35    36    1
    12    68    65    1
    13    36    37    1
    14    65    64    1
    15    65    66    1
    16    67    66    2
    17    37    38    2
    18    37    42   am
    19    66    72   am
    20    42    43    1
    21    18    17    2
    22    72    73    1
    23    75    74    2
    24    16    17    1
    25    16    19    1
    26    16    15    1
    27    28    27    2
    28    27    26    1
    29    17    25   am
    30    19    20    1
    31    74    73    1
    32    74    78   am
    33    43    44    1
    34    43    46    1
    35    73    76    1
    36    79    78    1
    37    79    82    1
    38    79    80    1
    39    78    84    1
    40    44    45    2
    41    83    82    1
    42    83    84    1
    43    25    26    1
    44    60    59    2
    45    26    29    1
    46    48    46    1
    47    20    22   ar
    48    20    21   ar
    49    80    81    2
    50    47    46    1
    51    59    58    1
    52    22    24   ar
    53     7     6    1
    54     8     6    1
    55    76    77    1
    56    62    61    1
    57    29    30    1
    58    21    23   ar
    59     6     5    1
    60    58    61    1
    61    58    57    1
    62    24    23   ar
    63    61    63    1
    64   113   112    1
    65   159   157   am
    66     5     2    1
    67    30    14    1
    68   158   157    2
    69   111   112    1
    70   111   110    1
    71     2     3    1
    72     2     1    1
    73   157   156    1
    74   144   142   ar
    75   144   146   ar
    76   141   139   ar
    77   141   142   ar
    78   139   138   ar
    79   142   140   ar
    80   146   145   ar
    81   140   138   ar
    82   140   143   ar
    83   138   137    1
    84   145   143   ar
    85    14    13    1
    86   137   134    1
    87     4     3    2
    88     3     9   am
    89   132   131    1
    90   130   129    2
    91   110   109    1
    92   150   149    2
    93    13    10    1
    94     9    10    1
    95   156   155    1
    96   119   118    1
    97   134   133    1
    98   134   135    1
    99   118   115    1
   100   129   133   am
   101   129   128    1
   102   152   155    1
   103   152   151    1
   104   152   153    1
   105   149   151   am
   106   149   148    1
   107    10    11    1
   108   109   106    1
   109   131   128    1
   110   160   153   am
   111   160   161    1
   112   147   135   am
   113   147   148    1
   114   128   127    1
   115   135   136    2
   116   108   107    2
   117   153   154    2
   118    55    54   ar
   119   161   162    1
   120   106   107    1
   121   106   105    1
   122   190   189    1
   123    56    54   ar
   124   117   116    2
   125   115   116    1
   126   115   114    1
   127   123   122    2
   128    11    12    2
   129   191   189    1
   130    54    53    1
   131   189   186    1
   132   127   122   am
   133   122   121    1
   134   195   194    2
   135   105   101   am
   136   162   163    2
   137   162   164   am
   138   194   193    1
   139    51    52    2
   140    51    50    1
   141    53    50    1
   142   188   187    2
   143   186   187    1
   144   186   185    1
   145   102   101    2
   146   101   100    1
   147   187   192   am
   148   192   193    1
   149   164   165    1
   150    50    49    1
   151   193   196    1
   152   169   104    1
   153   169   168    1
   154   121   120    1
   155   121   124    1
   156   185   183   am
   157   125   124    1
   158   124   126    1
   159   104   103    1
   160   100   103    1
   161   100    99    1
   162   173   172    2
   163   165   168    1
   164   165   166    1
   165   196   197    1
   166   183   182    1
   167   183   184    2
   168    99    95   am
   169   182   181    1
   170   172   181   am
   171   172   171    1
   172   197   199   ar
   173   197   198   ar
   174   170   171    1
   175    96    95    2
   176   166   167    2
   177    92    90   ar
   178   199   201   ar
   179   198   200   ar
   180    95    94    1
   181    98    97    1
   182   171   174    1
   183   201   202   ar
   184   200   202   ar
   185   202   203    1
   186   174   175    1
   187    97    94    1
   188    90    91   ar
   189    90    89    1
   190   177   175   ar
   191   177   179   ar
   192    94    93    1
   193   175   176   ar
   194   179   180   ar
   195    93    87   am
   196    89    86    1
   197    87    86    1
   198    87    88    2
   199   176   178   ar
   200    86    85    1
   201   180   178   ar
