@<TRIPOS>MOLECULE
tmp/3th8A00.pdb
 202 191 0 0 0
SMALL
GASTEIGER

@<TRIPOS>ATOM
      1  N         -2.5980    1.6610    2.3190 N.3    12  MET12      -0.1230
      2  CA        -2.7090    1.7600    0.8520 C.3    12  MET12       0.1702
      3  C         -2.6300    3.1800    0.3140 C.2    12  MET12       0.2592
      4  O         -3.6150    3.6820   -0.2020 O.2    12  MET12      -0.2718
      5  CB        -4.0160    1.1240    0.3560 C.3    12  MET12       0.0401
      6  CG        -4.1690   -0.3860    0.7810 C.3    12  MET12       0.0596
      7  SD        -5.7750   -1.0600    0.3040 S.3    12  MET12      -0.1393
      8  CE        -6.9020   -0.0450    1.2720 C.3    12  MET12       0.0692
      9  N         -1.4590    3.7870    0.3800 N.am   13  ASP13      -0.1960
     10  CA        -1.2540    5.2130    0.0390 C.3    13  ASP13       0.1840
     11  C         -0.6210    5.3800   -1.3310 C.2    13  ASP13       0.2623
     12  O          0.0780    4.5020   -1.7950 O.2    13  ASP13      -0.2715
     13  CB        -0.2920    5.8310    1.0870 C.3    13  ASP13       0.1450
     14  CG        -0.2540    7.3610    1.0750 C.2    13  ASP13       0.3671
     15  OD1       -1.1380    7.9960    0.4810 O.co2  13  ASP13      -0.2456
     16  OD2        0.6850    7.9550    1.7190 O.co2  13  ASP13      -0.2456
     17  N         -0.7800    6.5570   -1.9380 N.am   14  GLY14      -0.1940
     18  CA        -0.0870    6.8740   -3.2040 C.3    14  GLY14       0.2014
     19  C         -1.0630    6.9560   -4.3800 C.2    14  GLY14       0.2639
     20  O         -0.6590    7.2120   -5.5200 O.2    14  GLY14      -0.2714
     21  N         -2.3420    6.8060   -4.0920 N.am   15  ASN15      -0.1958
     22  CA        -3.4320    6.9130   -5.1020 C.3    15  ASN15       0.1819
     23  C         -3.6410    8.3370   -5.6430 C.2    15  ASN15       0.2622
     24  O         -3.7120    8.5710   -6.8700 O.2    15  ASN15      -0.2715
     25  CB        -4.7230    6.4310   -4.4690 C.3    15  ASN15       0.1195
     26  CG        -4.6700    4.9370   -4.0930 C.2    15  ASN15       0.2630
     27  OD1       -4.6810    4.1010   -4.9750 O.2    15  ASN15      -0.2716
     28  ND2       -4.6280    4.6140   -2.7630 N.am   15  ASN15      -0.0877
     29  N         -3.7510    9.2810   -4.7230 N.am   16  GLY16      -0.1940
     30  CA        -3.7150   10.7100   -5.0710 C.3    16  GLY16       0.2014
     31  C         -2.5110   11.0830   -5.9330 C.2    16  GLY16       0.2638
     32  O         -2.6620   11.7240   -6.9970 O.2    16  GLY16      -0.2714
     33  N         -1.3220   10.6670   -5.4900 N.am   17  ARG17      -0.1977
     34  CA        -0.1110   11.0220   -6.2120 C.3    17  ARG17       0.1597
     35  C         -0.0360   10.3080   -7.5730 C.2    17  ARG17       0.2287
     36  O          0.4550   10.9040   -8.5380 O.2    17  ARG17      -0.2864
     37  CB         1.1180   10.7380   -5.3280 C.3    17  ARG17       0.0334
     38  CG         2.5500   11.0390   -5.9130 C.3    17  ARG17       0.0492
     39  CD         3.6760   10.7930   -4.8140 C.3    17  ARG17       0.2205
     40  NE         3.1750    9.8310   -3.8280 N.pl3  17  ARG17      -0.0865
     41  CZ         2.9000   10.1190   -2.5590 C.cat  17  ARG17       0.5346
     42  NH1        3.1500   11.3580   -2.0940 N.pl3  17  ARG17       0.1354
     43  NH2        2.4020    9.1730   -1.7580 N.pl3  17  ARG17       0.1354
     44  N         -8.5990   12.8920   -9.0550 N.3    26  ARG26      -0.1245
     45  CA        -8.5370   11.9130   -7.9970 C.3    26  ARG26       0.1563
     46  C         -9.3410   10.6420   -8.2330 C.2    26  ARG26       0.2260
     47  O         -8.8480    9.5260   -7.9100 O.2    26  ARG26      -0.2867
     48  CB        -8.9160   12.5520   -6.6670 C.3    26  ARG26       0.0307
     49  CG        -8.0250   11.9890   -5.6010 C.3    26  ARG26       0.0489
     50  CD        -8.1100   12.6350   -4.2520 C.3    26  ARG26       0.2205
     51  NE        -7.8390   11.5320   -3.3370 N.pl3  26  ARG26      -0.0865
     52  CZ        -6.7250   11.3370   -2.6500 C.cat  26  ARG26       0.5346
     53  NH1       -5.7480   12.2390   -2.6700 N.pl3  26  ARG26       0.1354
     54  NH2       -6.6310   10.2500   -1.8910 N.pl3  26  ARG26       0.1354
     55  N         -8.6400    6.5820   -7.2980 N.3    30  HIS30      -0.1241
     56  CA        -9.5770    5.6980   -6.5860 C.3    30  HIS30       0.1621
     57  C         -9.9710    4.4530   -7.4040 C.2    30  HIS30       0.2264
     58  O         -9.8820    3.3420   -6.8760 O.2    30  HIS30      -0.2867
     59  CB       -10.8420    6.4570   -6.1260 C.3    30  HIS30       0.0745
     60  CG       -10.5990    7.5610   -5.1430 C.ar   30  HIS30       0.0817
     61  ND1      -11.4860    8.6120   -4.9800 N.ar   30  HIS30      -0.2268
     62  CD2       -9.5800    7.7980   -4.2750 C.ar   30  HIS30       0.1154
     63  CE1      -11.0420    9.4340   -4.0470 C.ar   30  HIS30       0.1986
     64  NE2       -9.8860    8.9690   -3.6020 N.ar   30  HIS30      -0.2212
     65  N         -6.7660    2.4020   -7.6750 N.3    33  GLY33      -0.1210
     66  CA        -6.5790    1.8850   -6.3000 C.3    33  GLY33       0.1956
     67  C         -7.5250    0.7400   -5.9440 C.2    33  GLY33       0.2611
     68  O         -7.1120   -0.2460   -5.3440 O.2    33  GLY33      -0.2717
     69  N         -8.7830    0.8500   -6.3560 N.am   34  ALA34      -0.1979
     70  CA        -9.7390   -0.2160   -6.1510 C.3    34  ALA34       0.1597
     71  C         -9.3390   -1.4850   -6.9050 C.2    34  ALA34       0.2287
     72  O         -9.4790   -2.5610   -6.3520 O.2    34  ALA34      -0.2864
     73  CB       -11.1950    0.2290   -6.5550 C.3    34  ALA34       0.0319
     74  N         -6.5730   -3.0160   -4.9130 N.3    37  VAL37      -0.1245
     75  CA        -7.2140   -3.7630   -3.8030 C.3    37  VAL37       0.1561
     76  C         -7.6220   -5.1750   -4.2670 C.2    37  VAL37       0.2260
     77  O         -7.3170   -6.1820   -3.5890 O.2    37  VAL37      -0.2867
     78  CB        -8.4390   -2.9970   -3.1730 C.3    37  VAL37       0.0252
     79  CG1       -9.2700   -3.9130   -2.1830 C.3    37  VAL37       0.0019
     80  CG2       -7.9740   -1.7490   -2.4560 C.3    37  VAL37       0.0019
     81  N         -6.0550   -8.6590   -2.6000 N.3    41  VAL41      -0.1245
     82  CA        -6.9480   -9.6450   -1.9560 C.3    41  VAL41       0.1561
     83  C         -6.8260  -11.0730   -2.5580 C.2    41  VAL41       0.2260
     84  O         -6.6930  -12.0440   -1.7870 O.2    41  VAL41      -0.2867
     85  CB        -8.4460   -9.1460   -1.9230 C.3    41  VAL41       0.0252
     86  CG1       -9.4190  -10.2430   -1.4620 C.3    41  VAL41       0.0019
     87  CG2       -8.5930   -7.9430   -1.0270 C.3    41  VAL41       0.0019
     88  N         -6.6910   -3.9060    5.7670 N.3    54  LEU54      -0.1245
     89  CA        -6.4310   -2.8040    4.8740 C.3    54  LEU54       0.1561
     90  C         -6.8180   -1.4950    5.4870 C.2    54  LEU54       0.2260
     91  O         -7.9450   -1.3490    5.9900 O.2    54  LEU54      -0.2867
     92  CB        -7.1560   -3.0190    3.4940 C.3    54  LEU54       0.0270
     93  CG        -6.7980   -4.3160    2.7650 C.3    54  LEU54       0.0019
     94  CD1       -7.6140   -4.5690    1.5190 C.3    54  LEU54       0.0001
     95  CD2       -5.2310   -4.3790    2.4050 C.3    54  LEU54       0.0001
     96  N         -7.4790    2.2200    4.2730 N.3    56  ALA56      -0.1231
     97  CA        -7.7490    2.9760    3.0450 C.3    56  ALA56       0.1694
     98  C         -7.6150    4.4610    3.3580 C.2    56  ALA56       0.2588
     99  O         -8.2460    4.9710    4.3090 O.2    56  ALA56      -0.2718
    100  CB        -9.1390    2.6540    2.5420 C.3    56  ALA56       0.0304
    101  N         -6.8190    5.1670    2.5800 N.am   57  PHE57      -0.2029
    102  CA        -5.9550    6.2090    3.2590 C.3    57  PHE57       0.1325
    103  C         -6.0580    7.7210    2.8310 C.3    57  PHE57       0.2039
    104  O         -6.3850    8.7060    3.5960 O.3    57  PHE57      -0.2185
    105  CB        -4.4540    5.6610    3.3550 C.3    57  PHE57       0.0507
    106  CG        -3.5850    6.5050    4.1620 C.ar   57  PHE57      -0.0204
    107  CD1       -3.6230    6.4350    5.4980 C.ar   57  PHE57      -0.0042
    108  CD2       -2.8150    7.4820    3.5620 C.ar   57  PHE57      -0.0042
    109  CE1       -2.8410    7.2840    6.2750 C.ar   57  PHE57      -0.0003
    110  CE2       -2.0520    8.3380    4.2800 C.ar   57  PHE57      -0.0003
    111  CZ        -2.0500    8.2420    5.6640 C.ar   57  PHE57      -0.0000
    112  N        -18.1690    6.6140   -0.9640 N.3    61  PHE61      -0.1227
    113  CA       -17.2590    5.8120   -1.7810 C.3    61  PHE61       0.1736
    114  C        -17.1740    4.4350   -1.1270 C.2    61  PHE61       0.2595
    115  O        -17.0310    3.4320   -1.8200 O.2    61  PHE61      -0.2718
    116  CB       -15.8540    6.4490   -1.8740 C.3    61  PHE61       0.0547
    117  CG       -15.8620    7.9370   -2.2350 C.ar   61  PHE61      -0.0202
    118  CD1      -16.4440    8.3890   -3.4370 C.ar   61  PHE61      -0.0042
    119  CD2      -15.2950    8.8850   -1.3730 C.ar   61  PHE61      -0.0042
    120  CE1      -16.4600    9.7640   -3.7710 C.ar   61  PHE61      -0.0003
    121  CE2      -15.2980   10.2620   -1.7030 C.ar   61  PHE61      -0.0003
    122  CZ       -15.8820   10.6980   -2.9050 C.ar   61  PHE61      -0.0000
    123  N        -17.2840    4.4180    0.2090 N.am   62  VAL62      -0.1980
    124  CA       -17.2740    3.2070    1.0300 C.3    62  VAL62       0.1595
    125  C        -18.4030    2.2200    0.6620 C.2    62  VAL62       0.2287
    126  O        -18.2070    1.0220    0.7430 O.2    62  VAL62      -0.2864
    127  CB       -17.2630    3.5440    2.5360 C.3    62  VAL62       0.0276
    128  CG1      -18.5560    4.2770    2.9470 C.3    62  VAL62       0.0022
    129  CG2      -17.0190    2.2920    3.3830 C.3    62  VAL62       0.0022
    130  N        -18.5940    0.7430   -1.6160 N.3    64  ALA64      -0.1231
    131  CA       -17.7840    0.0050   -2.5570 C.3    64  ALA64       0.1694
    132  C        -17.8330   -1.4280   -2.0170 C.2    64  ALA64       0.2591
    133  O        -17.1830   -2.3370   -2.5410 O.2    64  ALA64      -0.2718
    134  CB       -16.3740    0.5080   -2.5210 C.3    64  ALA64       0.0304
    135  N        -18.6010   -1.5970   -0.9470 N.am   65  LEU65      -0.1980
    136  CA       -18.9530   -2.9000   -0.4390 C.3    65  LEU65       0.1596
    137  C        -19.8180   -3.5580   -1.4840 C.2    65  LEU65       0.2287
    138  O        -19.5570   -4.6820   -1.9370 O.2    65  LEU65      -0.2864
    139  CB       -19.7680   -2.7810    0.8470 C.3    65  LEU65       0.0297
    140  CG       -19.2570   -1.9710    2.0380 C.3    65  LEU65       0.0022
    141  CD1      -20.3870   -1.7760    3.0620 C.3    65  LEU65       0.0001
    142  CD2      -18.0160   -2.6160    2.6780 C.3    65  LEU65       0.0001
    143  N        -18.1490   -5.0820   -4.2570 N.3    68  GLU68      -0.1245
    144  CA       -17.1850   -6.1290   -4.0510 C.3    68  GLU68       0.1567
    145  C        -17.6880   -7.3100   -3.2390 C.2    68  GLU68       0.2260
    146  O        -17.1130   -8.3860   -3.3350 O.2    68  GLU68      -0.2867
    147  CB       -15.8970   -5.5800   -3.4130 C.3    68  GLU68       0.0388
    148  CG       -15.2520   -4.3860   -4.1400 C.3    68  GLU68       0.1160
    149  CD       -14.8570   -4.6490   -5.5920 C.2    68  GLU68       0.3649
    150  OE1      -14.4370   -5.7690   -5.9590 O.co2  68  GLU68      -0.2457
    151  OE2      -14.9450   -3.6880   -6.3710 O.co2  68  GLU68      -0.2457
    152  N        -16.0910  -11.0950   -3.2100 N.3    72  LEU72      -0.1245
    153  CA       -15.3860  -11.6440   -2.0400 C.3    72  LEU72       0.1561
    154  C        -16.0040  -13.0040   -1.6470 C.2    72  LEU72       0.2260
    155  O        -15.2920  -13.9960   -1.4120 O.2    72  LEU72      -0.2867
    156  CB       -15.4820  -10.6550   -0.8630 C.3    72  LEU72       0.0270
    157  CG       -14.7900   -9.2810   -1.0440 C.3    72  LEU72       0.0019
    158  CD1      -15.2690   -8.2640    0.0180 C.3    72  LEU72       0.0001
    159  CD2      -13.3020   -9.3440   -1.0120 C.3    72  LEU72       0.0001
    160  N        -15.4350  -11.2860    5.3640 N.3    79  LEU79      -0.1245
    161  CA       -15.2850   -9.8530    5.4500 C.3    79  LEU79       0.1561
    162  C        -15.6140   -9.3410    6.8440 C.2    79  LEU79       0.2260
    163  O        -16.5500   -9.7950    7.4440 O.2    79  LEU79      -0.2867
    164  CB       -16.2380   -9.2040    4.4350 C.3    79  LEU79       0.0270
    165  CG       -16.3010   -7.6770    4.3270 C.3    79  LEU79       0.0019
    166  CD1      -14.8920   -6.9980    4.0890 C.3    79  LEU79       0.0001
    167  CD2      -17.2950   -7.2180    3.2380 C.3    79  LEU79       0.0001
    168  N        -10.6140  -10.9350    5.6840 N.3   111  LEU111     -0.1245
    169  CA       -10.2900   -9.6060    5.1910 C.3   111  LEU111      0.1561
    170  C        -10.8680   -8.5220    6.0680 C.2   111  LEU111      0.2260
    171  O        -12.0680   -8.3200    6.0850 O.2   111  LEU111     -0.2867
    172  CB       -10.8020   -9.4250    3.7490 C.3   111  LEU111      0.0270
    173  CG       -10.7080   -8.0280    3.1530 C.3   111  LEU111      0.0019
    174  CD1       -9.2010   -7.6000    2.9870 C.3   111  LEU111      0.0001
    175  CD2      -11.4490   -7.9810    1.8210 C.3   111  LEU111      0.0001
    176  N        -11.3850   -4.5680    6.8850 N.3   113  ILE113     -0.1231
    177  CA       -11.4400   -3.2250    6.2820 C.3   113  ILE113      0.1692
    178  C        -11.5690   -2.1780    7.3890 C.2   113  ILE113      0.2591
    179  O        -12.5340   -2.2160    8.1590 O.2   113  ILE113     -0.2718
    180  CB       -12.6250   -3.0950    5.2810 C.3   113  ILE113      0.0266
    181  CG1      -12.5780   -4.2330    4.2750 C.3   113  ILE113      0.0019
    182  CG2      -12.5120   -1.8070    4.4250 C.3   113  ILE113      0.0020
    183  CD1      -11.3720   -4.2250    3.4280 C.3   113  ILE113      0.0001
    184  N        -10.5520   -1.3140    7.5110 N.am  114  ALA114     -0.1980
    185  CA       -10.5820   -0.1910    8.4120 C.3   114  ALA114      0.1597
    186  C        -11.4950    0.9080    7.8700 C.2   114  ALA114      0.2287
    187  O        -11.3340    1.4170    6.7430 O.2   114  ALA114     -0.2864
    188  CB        -9.1910    0.3500    8.6280 C.3   114  ALA114      0.0319
    189  N          0.2580    2.9050   -4.4710 N.3   193  TRP193     -0.1241
    190  CA        -0.7140    1.7890   -4.3300 C.3   193  TRP193      0.1605
    191  C         -1.3330    1.2090   -5.6380 C.2   193  TRP193      0.2264
    192  O         -1.4420   -0.0230   -5.7530 O.2   193  TRP193     -0.2867
    193  CB        -1.8560    2.1090   -3.3140 C.3   193  TRP193      0.0550
    194  CG        -2.8780    0.9380   -3.2100 C.ar  193  TRP193      0.0003
    195  CD1       -4.1970    0.9130   -3.6290 C.ar  193  TRP193      0.0946
    196  CD2       -2.5780   -0.3770   -2.7320 C.ar  193  TRP193      0.0152
    197  NE1       -4.7430   -0.3710   -3.4140 N.ar  193  TRP193     -0.2442
    198  CE2       -3.7710   -1.1570   -2.8370 C.ar  193  TRP193      0.0810
    199  CE3       -1.4070   -0.9690   -2.2120 C.ar  193  TRP193      0.0012
    200  CZ2       -3.8200   -2.5030   -2.4700 C.ar  193  TRP193      0.0191
    201  CZ3       -1.4570   -2.3170   -1.8000 C.ar  193  TRP193      0.0001
    202  CH2       -2.6590   -3.0760   -1.9720 C.ar  193  TRP193      0.0015
@<TRIPOS>BOND
     1    44    45    1
     2    36    35    2
     3    46    45    1
     4    46    47    2
     5    45    48    1
     6    65    66    1
     7    35    34    1
     8    57    58    2
     9    57    56    1
    10    55    56    1
    11    32    31    2
    12    71    72    2
    13    71    70    1
    14    24    23    2
    15    48    49    1
    16    56    59    1
    17    73    70    1
    18   151   149   ar
    19    69    70    1
    20    69    67   am
    21    66    67    1
    22    34    33    1
    23    34    37    1
    24    59    60    1
    25   150   149   ar
    26    67    68    2
    27    31    33   am
    28    31    30    1
    29    38    37    1
    30    38    39    1
    31   192   191    2
    32    23    22    1
    33    23    29   am
    34   191   190    1
    35    49    50    1
    36   149   148    1
    37    20    19    2
    38    60    61   ar
    39    60    62   ar
    40    22    25    1
    41    22    21    1
    42    30    29    1
    43    61    63   ar
    44    27    26    2
    45    74    75    1
    46    39    40    1
    47   189   190    1
    48    25    26    1
    49    19    21   am
    50    19    18    1
    51   190   193    1
    52    62    64   ar
    53    76    75    1
    54    76    77    2
    55   143   144    1
    56    50    51    1
    57   148   147    1
    58    26    28   am
    59   144   147    1
    60   144   145    1
    61    63    64   ar
    62    40    41    2
    63    75    78    1
    64   120   118   ar
    65   120   122   ar
    66   195   197   ar
    67   195   194   ar
    68   118   117   ar
    69   197   198   ar
    70    51    52    2
    71   146   145    2
    72   193   194    1
    73   152   153    1
    74   194   196   ar
    75    18    17    1
    76    78    80    1
    77    78    79    1
    78   122   121   ar
    79   198   196   ar
    80   198   200   ar
    81   196   199   ar
    82    53    52    1
    83    52    54    1
    84    81    82    1
    85    41    42    1
    86    41    43    1
    87    83    82    1
    88    83    84    2
    89   131   134    1
    90   131   132    1
    91   131   130    1
    92   133   132    2
    93   200   202   ar
    94   117   116    1
    95   117   119   ar
    96   199   201   ar
    97   153   154    1
    98   153   156    1
    99   132   135   am
   100   202   201   ar
   101    82    85    1
   102    17    11   am
   103   138   137    2
   104    85    86    1
   105    85    87    1
   106   116   113    1
   107   115   114    2
   108    12    11    2
   109   113   114    1
   110   113   112    1
   111   121   119   ar
   112   154   155    2
   113   137   136    1
   114    11    10    1
   115   114   123   am
   116   157   159    1
   117   157   156    1
   118   157   158    1
   119   135   136    1
   120   136   139    1
   121     4     3    2
   122    10     9    1
   123    10    13    1
   124   123   124    1
   125     7     6    1
   126     7     8    1
   127     3     9   am
   128     3     2    1
   129     5     6    1
   130     5     2    1
   131    15    14   ar
   132   125   126    2
   133   125   124    1
   134   139   140    1
   135     2     1    1
   136   124   127    1
   137    14    13    1
   138    14    16   ar
   139    94    93    1
   140   175   173    1
   141   140   142    1
   142   140   141    1
   143    95    93    1
   144   127   128    1
   145   127   129    1
   146   100    97    1
   147   101   102    1
   148   101    98   am
   149    93    92    1
   150   103   102    1
   151   103   104    1
   152   174   173    1
   153    97    98    1
   154    97    96    1
   155   173   172    1
   156   167   165    1
   157   102   105    1
   158   105   106    1
   159    98    99    2
   160   183   181    1
   161    92    89    1
   162   108   106   ar
   163   108   110   ar
   164   172   169    1
   165   166   165    1
   166   106   107   ar
   167   181   180    1
   168   110   111   ar
   169   165   164    1
   170   182   180    1
   171   164   161    1
   172    89    90    1
   173    89    88    1
   174   169   168    1
   175   169   170    1
   176   180   177    1
   177   160   161    1
   178   161   162    1
   179    90    91    2
   180   107   109   ar
   181   111   109   ar
   182   170   171    2
   183   177   176    1
   184   177   178    1
   185   187   186    2
   186   162   163    2
   187   178   184   am
   188   178   179    2
   189   184   185    1
   190   186   185    1
   191   185   188    1
