@<TRIPOS>MOLECULE
tmp/3th9B00.pdb
 105 98 0 0 0
SMALL
GASTEIGER

@<TRIPOS>ATOM
      1  N          8.8040   34.1240   -1.3200 N.3     8  ARG8       -0.1245
      2  CA         9.5500   32.8750   -1.4320 C.3     8  ARG8        0.1563
      3  C         10.4540   32.9270   -2.6600 C.2     8  ARG8        0.2260
      4  O         10.0080   33.3770   -3.7270 O.2     8  ARG8       -0.2867
      5  CB         8.6130   31.6690   -1.5790 C.3     8  ARG8        0.0307
      6  CG         7.8150   31.3780   -0.3430 C.3     8  ARG8        0.0489
      7  CD         6.9480   30.1600   -0.5540 C.3     8  ARG8        0.2205
      8  NE         6.1690   29.9280    0.6600 N.pl3   8  ARG8       -0.0865
      9  CZ         5.1390   29.0940    0.7490 C.cat   8  ARG8        0.5346
     10  NH1        4.7560   28.3840   -0.3080 N.pl3   8  ARG8        0.1354
     11  NH2        4.4840   28.9600    1.8950 N.pl3   8  ARG8        0.1354
     12  N         11.9590   25.9150   -5.0430 N.3    23  LEU23      -0.1245
     13  CA        12.3760   26.8590   -4.0310 C.3    23  LEU23       0.1561
     14  C         13.8900   26.8200   -3.8270 C.2    23  LEU23       0.2260
     15  O         14.4170   25.7310   -3.5520 O.2    23  LEU23      -0.2867
     16  CB        11.6070   26.4360   -2.7550 C.3    23  LEU23       0.0270
     17  CG        11.7360   27.2390   -1.4950 C.3    23  LEU23       0.0019
     18  CD1       11.1180   28.6120   -1.6670 C.3    23  LEU23       0.0001
     19  CD2       11.0200   26.4890   -0.3610 C.3    23  LEU23       0.0001
     20  N         16.6510   26.8360   -1.5530 N.3    25  ASP25      -0.1239
     21  CA        16.5810   26.5400   -0.1460 C.3    25  ASP25       0.1674
     22  C         17.9190   26.3020    0.5320 C.2    25  ASP25       0.2266
     23  O         18.4010   25.1610    0.5460 O.2    25  ASP25      -0.2867
     24  CB        15.6420   25.3180    0.0290 C.3    25  ASP25       0.1410
     25  CG        15.2570   25.0160    1.4430 C.2    25  ASP25       0.3668
     26  OD1       15.8220   25.6530    2.3600 O.co2  25  ASP25      -0.2456
     27  OD2       14.3150   24.2470    1.6370 O.co2  25  ASP25      -0.2456
     28  N         18.4980   26.0640    3.5980 N.3    27  GLY27      -0.1210
     29  CA        18.3100   25.1790    4.7330 C.3    27  GLY27       0.1956
     30  C         18.2570   23.7150    4.3560 C.2    27  GLY27       0.2612
     31  O         18.1000   22.8620    5.2400 O.2    27  GLY27      -0.2717
     32  N         18.3120   23.3950    3.0550 N.am   28  ALA28      -0.1965
     33  CA        18.2310   22.0150    2.5890 C.3    28  ALA28       0.1728
     34  C         19.6090   21.5480    2.1600 C.2    28  ALA28       0.2616
     35  O         20.2210   22.1780    1.2900 O.2    28  ALA28      -0.2715
     36  CB        17.2640   21.9400    1.4160 C.3    28  ALA28       0.0334
     37  N         20.0900   20.4170    2.7220 N.am   29  ASP29      -0.1957
     38  CA        21.3770   19.8950    2.2610 C.3    29  ASP29       0.1840
     39  C         21.2650   19.3850    0.8140 C.2    29  ASP29       0.2622
     40  O         22.2240   19.4760    0.0440 O.2    29  ASP29      -0.2715
     41  CB        21.7890   18.6870    3.1210 C.3    29  ASP29       0.1450
     42  CG        21.9450   18.8960    4.6100 C.2    29  ASP29       0.3671
     43  OD1       22.2700   20.0280    5.0270 O.co2  29  ASP29      -0.2456
     44  OD2       21.8700   17.8940    5.3570 O.co2  29  ASP29      -0.2456
     45  N         20.0960   18.8360    0.4820 N.am   30  ASP30      -0.1971
     46  CA        19.8600   18.1200   -0.7550 C.3    30  ASP30       0.1709
     47  C         18.7220   18.7130   -1.5360 C.2    30  ASP30       0.2293
     48  O         17.9210   19.4770   -1.0070 O.2    30  ASP30      -0.2864
     49  CB        19.5220   16.6440   -0.4390 C.3    30  ASP30       0.1436
     50  CG        20.4560   15.9760    0.5450 C.2    30  ASP30       0.3671
     51  OD1       21.6530   15.9740    0.2910 O.co2  30  ASP30      -0.2456
     52  OD2       19.9800   15.6000    1.6480 O.co2  30  ASP30      -0.2456
     53  N         15.2860   18.0340   -3.5350 N.3    32  VAL32      -0.1245
     54  CA        14.1890   17.0940   -3.4600 C.3    32  VAL32       0.1561
     55  C         13.0790   17.5750   -4.3550 C.2    32  VAL32       0.2260
     56  O         12.5740   18.7000   -4.1810 O.2    32  VAL32      -0.2867
     57  CB        13.6730   16.8960   -2.0120 C.3    32  VAL32       0.0252
     58  CG1       12.7900   15.6460   -1.9580 C.3    32  VAL32       0.0019
     59  CG2       14.8250   16.8020   -1.0000 C.3    32  VAL32       0.0019
     60  N         15.5380   11.3420    4.5210 N.3    47  ILE47      -0.1231
     61  CA        15.7680   12.7650    4.7830 C.3    47  ILE47       0.1692
     62  C         14.8720   13.2540    5.9080 C.2    47  ILE47       0.2593
     63  O         13.7090   12.8600    5.9760 O.2    47  ILE47      -0.2718
     64  CB        15.7530   13.6380    3.5280 C.3    47  ILE47       0.0266
     65  CG1       14.3600   13.6750    2.8830 C.3    47  ILE47       0.0019
     66  CG2       16.8870   13.2040    2.5480 C.3    47  ILE47       0.0020
     67  CD1       14.2160   14.4980    1.6580 C.3    47  ILE47       0.0001
     68  N         15.4430   14.0630    6.7820 N.am   48  GLY48      -0.1942
     69  CA        14.7470   14.5850    7.9590 C.3    48  GLY48       0.2014
     70  C         14.4300   16.0440    7.8140 C.2    48  GLY48       0.2639
     71  O         15.3230   16.8530    7.5670 O.2    48  GLY48      -0.2714
     72  N         13.1610   16.3700    8.0240 N.am   49  GLY49      -0.1939
     73  CA        12.6700   17.7340    7.9360 C.3    49  GLY49       0.2014
     74  C         11.9600   18.1510    9.2000 C.2    49  GLY49       0.2638
     75  O         12.0470   17.4840   10.2330 O.2    49  GLY49      -0.2714
     76  N         11.2310   19.2660    9.1070 N.am   50  ILE50      -0.1977
     77  CA        10.5320   19.8170   10.2450 C.3    50  ILE50       0.1596
     78  C          9.6130   18.8970   10.9410 C.2    50  ILE50       0.2287
     79  O          9.6320   18.8820   12.1610 O.2    50  ILE50      -0.2864
     80  CB         9.8820   21.1820    9.9510 C.3    50  ILE50       0.0276
     81  CG1        9.7910   22.0460   11.2240 C.3    50  ILE50       0.0022
     82  CG2        8.5670   21.0610    9.2120 C.3    50  ILE50       0.0022
     83  CD1       10.8580   22.9260   11.3980 C.3    50  ILE50       0.0001
     84  N          6.5580   18.5350    0.0190 N.3    81  PRO81      -0.2102
     85  CA         5.4780   19.5190   -0.2020 C.3    81  PRO81       0.1504
     86  C          5.7030   20.5390   -1.3250 C.2    81  PRO81       0.2575
     87  O          4.7490   21.0390   -1.9150 O.2    81  PRO81      -0.2718
     88  CB         5.3430   20.2020    1.1610 C.3    81  PRO81       0.0282
     89  CG         5.9560   19.2240    2.1400 C.3    81  PRO81       0.0208
     90  CD         7.1280   18.6910    1.3730 C.3    81  PRO81       0.0893
     91  N          6.9760   20.8080   -1.6590 N.am   82  VAL82      -0.1980
     92  CA         7.3610   21.7710   -2.6910 C.3    82  VAL82       0.1595
     93  C          8.6800   21.2550   -3.2850 C.2    82  VAL82       0.2287
     94  O          9.4450   20.5880   -2.5980 O.2    82  VAL82      -0.2864
     95  CB         7.5050   23.1900   -2.0430 C.3    82  VAL82       0.0276
     96  CG1        8.5500   23.2230   -0.9440 C.3    82  VAL82       0.0022
     97  CG2        7.7420   24.2980   -3.0570 C.3    82  VAL82       0.0022
     98  N         12.4140   21.5340   -3.9850 N.3    84  ILE84      -0.1245
     99  CA        13.4500   22.2300   -3.2310 C.3    84  ILE84       0.1561
    100  C         14.7910   22.0600   -3.9010 C.2    84  ILE84       0.2260
    101  O         15.1940   20.9130   -4.1800 O.2    84  ILE84      -0.2867
    102  CB        13.4450   21.5750   -1.8020 C.3    84  ILE84       0.0252
    103  CG1       12.1470   21.9790   -1.0310 C.3    84  ILE84       0.0019
    104  CG2       14.7180   21.8680   -1.0050 C.3    84  ILE84       0.0019
    105  CD1       11.8550   21.1050    0.2380 C.3    84  ILE84       0.0001
@<TRIPOS>BOND
     1    12    13    1
     2    55    56    2
     3    55    54    1
     4   101   100    2
     5    13    14    1
     6    13    16    1
     7    98    99    1
     8   100    99    1
     9    14    15    2
    10     4     3    2
    11    53    54    1
    12    54    57    1
    13    93    92    1
    14    93    94    2
    15    99   102    1
    16    97    95    1
    17    16    17    1
    18    92    95    1
    19    92    91    1
    20     3     2    1
    21    95    96    1
    22    57    58    1
    23    57    59    1
    24    87    86    2
    25   102   103    1
    26   102   104    1
    27    18    17    1
    28    91    86   am
    29     5     2    1
    30     5     6    1
    31    20    21    1
    32    47    48    2
    33    47    46    1
    34    17    19    1
    35     2     1    1
    36    86    85    1
    37   103   105    1
    38    46    49    1
    39    46    45    1
    40     7     6    1
    41     7     8    1
    42    49    50    1
    43    10     9    1
    44    85    84    1
    45    85    88    1
    46    21    24    1
    47    21    22    1
    48    84    90    1
    49    24    25    1
    50    40    39    2
    51    51    50   ar
    52    45    39   am
    53    22    23    2
    54    50    52   ar
    55     8     9    2
    56     9    11    1
    57    39    38    1
    58    88    89    1
    59    35    34    2
    60    90    89    1
    61    36    33    1
    62    25    27   ar
    63    25    26   ar
    64    67    65    1
    65    34    33    1
    66    34    37   am
    67    38    37    1
    68    38    41    1
    69    66    64    1
    70    33    32    1
    71    65    64    1
    72    32    30   am
    73    41    42    1
    74    64    61    1
    75    28    29    1
    76    30    29    1
    77    30    31    2
    78    60    61    1
    79    42    43   ar
    80    42    44   ar
    81    61    62    1
    82    62    63    2
    83    62    68   am
    84    68    69    1
    85    71    70    2
    86    70    69    1
    87    70    72   am
    88    73    72    1
    89    73    74    1
    90    76    74   am
    91    76    77    1
    92    74    75    2
    93    82    80    1
    94    80    77    1
    95    80    81    1
    96    77    78    1
    97    78    79    2
    98    81    83    1
