@<TRIPOS>MOLECULE
tmp/3thbA00.pdb
 181 169 0 0 0
SMALL
GASTEIGER

@<TRIPOS>ATOM
      1  N        -55.7040   12.3830   10.7980 N.3    16  ARG16      -0.1245
      2  CA       -55.2630   10.9850   10.8170 C.3    16  ARG16       0.1563
      3  C        -53.9280   10.7780   11.5450 C.2    16  ARG16       0.2260
      4  O        -53.0640   11.6580   11.5630 O.2    16  ARG16      -0.2867
      5  CB       -55.2310   10.3840    9.4030 C.3    16  ARG16       0.0307
      6  CG       -54.5670   11.2620    8.3650 C.3    16  ARG16       0.0489
      7  CD       -54.8060   10.7600    6.9520 C.3    16  ARG16       0.2205
      8  NE       -54.0280   11.5480    5.9970 N.pl3  16  ARG16      -0.0865
      9  CZ       -52.8020   11.2330    5.5660 C.cat  16  ARG16       0.5346
     10  NH1      -52.1910   10.1270    5.9870 N.pl3  16  ARG16       0.1354
     11  NH2      -52.1820   12.0270    4.7010 N.pl3  16  ARG16       0.1354
     12  N        -50.3140    9.3340   12.0590 N.3    18  LEU18      -0.1231
     13  CA       -49.1800    9.0880   11.1770 C.3    18  LEU18       0.1693
     14  C        -48.1990    8.0650   11.7570 C.2    18  LEU18       0.2593
     15  O        -47.7560    7.1410   11.0700 O.2    18  LEU18      -0.2718
     16  CB       -48.4630   10.4040   10.8760 C.3    18  LEU18       0.0284
     17  CG       -49.2300   11.5680   10.2370 C.3    18  LEU18       0.0019
     18  CD1      -48.2610   12.6560    9.8240 C.3    18  LEU18       0.0001
     19  CD2      -50.0300   11.1280    9.0180 C.3    18  LEU18       0.0001
     20  N        -47.8770    8.2280   13.0350 N.am   19  GLY19      -0.1942
     21  CA       -46.9770    7.3060   13.7160 C.3    19  GLY19       0.2014
     22  C        -46.5610    7.7790   15.0930 C.2    19  GLY19       0.2639
     23  O        -46.9690    8.8510   15.5470 O.2    19  GLY19      -0.2714
     24  N        -45.7410    6.9600   15.7470 N.am   20  LYS20      -0.1963
     25  CA       -45.2380    7.2390   17.0840 C.3    20  LYS20       0.1728
     26  C        -43.7280    7.0470   17.1660 C.2    20  LYS20       0.2616
     27  O        -43.1630    6.1600   16.5200 O.2    20  LYS20      -0.2715
     28  CB       -45.9850    6.3850   18.1170 C.3    20  LYS20       0.0311
     29  CG       -45.1460    5.8270   19.2830 C.3    20  LYS20       0.0038
     30  CD       -44.8000    4.3310   19.0820 C.3    20  LYS20       0.0206
     31  CE       -45.9020    3.4020   19.6200 C.3    20  LYS20       0.1093
     32  NZ       -47.2580    3.6970   19.0500 N.3    20  LYS20      -0.1314
     33  N        -43.0880    7.8990   17.9600 N.am   21  GLY21      -0.1955
     34  CA       -41.6450    7.8440   18.1850 C.3    21  GLY21       0.1869
     35  C        -41.3440    8.4680   19.5330 C.2    21  GLY21       0.2309
     36  O        -41.7130    9.6150   19.7960 O.2    21  GLY21      -0.2863
     37  N        -44.0160   10.5180   21.7710 N.3    24  ALA24      -0.1245
     38  CA       -44.8820   11.2970   20.8900 C.3    24  ALA24       0.1562
     39  C        -45.7890   10.4480   20.0110 C.2    24  ALA24       0.2260
     40  O        -45.3950    9.4040   19.5010 O.2    24  ALA24      -0.2867
     41  CB       -44.0600   12.2380   20.0380 C.3    24  ALA24       0.0290
     42  N        -47.9750   11.2630   16.6490 N.3    26  CYS26      -0.1235
     43  CA       -47.9620   12.3060   15.6350 C.3    26  CYS26       0.1677
     44  C        -49.1610   12.2100   14.6930 C.2    26  CYS26       0.2270
     45  O        -49.4330   11.1430   14.1210 O.2    26  CYS26      -0.2867
     46  CB       -46.6630   12.2410   14.8490 C.3    26  CYS26       0.0956
     47  SG       -46.5430   13.5030   13.6070 S.3    26  CYS26      -0.0801
     48  N        -48.0700   19.0090   10.5320 N.3    39  ALA39      -0.1245
     49  CA       -47.7530   17.8010   11.2870 C.3    39  ALA39       0.1562
     50  C        -47.6740   18.1070   12.7820 C.2    39  ALA39       0.2260
     51  O        -46.8650   18.9540   13.2220 O.2    39  ALA39      -0.2867
     52  CB       -46.4520   17.2080   10.8060 C.3    39  ALA39       0.0290
     53  N        -46.9790   16.7490   16.5690 N.3    41  LYS41      -0.1245
     54  CA       -46.5020   15.8430   17.6050 C.3    41  LYS41       0.1561
     55  C        -47.1690   16.1850   18.9240 C.2    41  LYS41       0.2260
     56  O        -47.1120   17.3330   19.3730 O.2    41  LYS41      -0.2867
     57  CB       -44.9820   15.8900   17.7380 C.3    41  LYS41       0.0271
     58  CG       -44.2420   15.0200   16.7100 C.3    41  LYS41       0.0035
     59  CD       -42.7890   15.4870   16.5640 C.3    41  LYS41       0.0206
     60  CE       -41.8390   14.3540   16.2140 C.3    41  LYS41       0.1093
     61  NZ       -40.5070   14.8940   15.9030 N.3    41  LYS41      -0.1314
     62  N        -34.8440   22.3130   17.4380 N.3    64  HIS64      -0.1241
     63  CA       -35.7090   22.3580   16.2520 C.3    64  HIS64       0.1621
     64  C        -36.1150   23.7580   15.8200 C.2    64  HIS64       0.2264
     65  O        -36.0070   24.1010   14.6380 O.2    64  HIS64      -0.2867
     66  CB       -36.9620   21.5190   16.4570 C.3    64  HIS64       0.0745
     67  CG       -37.4800   20.8990   15.2020 C.ar   64  HIS64       0.0817
     68  ND1      -38.2140   19.7340   15.2010 N.ar   64  HIS64      -0.2268
     69  CD2      -37.3510   21.2670   13.9040 C.ar   64  HIS64       0.1154
     70  CE1      -38.5260   19.4130   13.9560 C.ar   64  HIS64       0.1986
     71  NE2      -38.0180   20.3300   13.1500 N.ar   64  HIS64      -0.2212
     72  N        -37.1500   19.6050    8.3620 N.3    73  VAL73      -0.1245
     73  CA       -38.5920   19.7790    8.5740 C.3    73  VAL73       0.1561
     74  C        -38.8780   21.1280    9.2500 C.2    73  VAL73       0.2260
     75  O        -38.4170   21.3980   10.3660 O.2    73  VAL73      -0.2867
     76  CB       -39.2170   18.6210    9.3980 C.3    73  VAL73       0.0252
     77  CG1      -40.7050   18.8460    9.5910 C.3    73  VAL73       0.0019
     78  CG2      -38.9840   17.2840    8.7350 C.3    73  VAL73       0.0019
     79  N        -45.3030   21.1160   13.1830 N.3    89  LEU89      -0.1231
     80  CA       -44.2360   21.0460   12.1930 C.3    89  LEU89       0.1693
     81  C        -44.7480   20.9280   10.7710 C.2    89  LEU89       0.2592
     82  O        -45.9420   20.7030   10.5480 O.2    89  LEU89      -0.2718
     83  CB       -43.3220   19.8750   12.5050 C.3    89  LEU89       0.0284
     84  CG       -42.8810   19.7800   13.9610 C.3    89  LEU89       0.0019
     85  CD1      -42.6930   18.3400   14.3440 C.3    89  LEU89       0.0001
     86  CD2      -41.6200   20.5920   14.1900 C.3    89  LEU89       0.0001
     87  N        -43.8330   21.0930    9.8130 N.am   90  GLU90      -0.1966
     88  CA       -44.1370   20.9440    8.3930 C.3    90  GLU90       0.1733
     89  C        -44.6880   19.5490    8.1320 C.2    90  GLU90       0.2616
     90  O        -44.1430   18.5730    8.6320 O.2    90  GLU90      -0.2715
     91  CB       -42.8650   21.1610    7.5860 C.3    90  GLU90       0.0429
     92  CG       -43.0170   21.0530    6.0700 C.3    90  GLU90       0.1163
     93  CD       -41.7020   21.3260    5.3450 C.2    90  GLU90       0.3649
     94  OE1      -40.7520   21.8380    5.9840 O.co2  90  GLU90      -0.2457
     95  OE2      -41.6100   21.0320    4.1360 O.co2  90  GLU90      -0.2457
     96  N        -45.7800   19.4460    7.3880 N.am   91  LEU91      -0.1963
     97  CA       -46.2530   18.1280    7.0100 C.3    91  LEU91       0.1728
     98  C        -45.5950   17.6830    5.7040 C.2    91  LEU91       0.2616
     99  O        -45.6620   18.3790    4.6860 O.2    91  LEU91      -0.2715
    100  CB       -47.7820   18.0580    6.9150 C.3    91  LEU91       0.0311
    101  CG       -48.2630   16.6280    6.6230 C.3    91  LEU91       0.0022
    102  CD1      -47.9730   15.7040    7.7810 C.3    91  LEU91       0.0001
    103  CD2      -49.7200   16.5900    6.3130 C.3    91  LEU91       0.0001
    104  N        -44.9550   16.5190    5.7470 N.am   92  CYS92      -0.1954
    105  CA       -44.2770   15.9720    4.5840 C.3    92  CYS92       0.1843
    106  C        -45.1360   14.9000    3.9320 C.2    92  CYS92       0.2625
    107  O        -45.1660   13.7490    4.3900 O.2    92  CYS92      -0.2714
    108  CB       -42.9050   15.4600    4.9860 C.3    92  CYS92       0.0997
    109  SG       -41.8870   16.8070    5.5940 S.3    92  CYS92      -0.0797
    110  N        -45.8260   15.2970    2.8550 N.am   93  ARG93      -0.1977
    111  CA       -46.9830   14.5580    2.3580 C.3    93  ARG93       0.1597
    112  C        -46.5850   13.2290    1.7550 C.2    93  ARG93       0.2287
    113  O        -47.3950   12.3060    1.6700 O.2    93  ARG93      -0.2864
    114  CB       -47.8010   15.3960    1.3680 C.3    93  ARG93       0.0334
    115  CG       -48.1790   16.7730    1.8620 C.3    93  ARG93       0.0492
    116  CD       -49.2530   16.7040    2.9020 C.3    93  ARG93       0.2205
    117  NE       -50.4410   16.0410    2.3730 N.pl3  93  ARG93      -0.0865
    118  CZ       -51.6270   16.6220    2.2340 C.cat  93  ARG93       0.5346
    119  NH1      -51.7420   17.9380    2.3610 N.pl3  93  ARG93       0.1354
    120  NH2      -52.6780   15.8940    1.8680 N.pl3  93  ARG93       0.1354
    121  N        -44.3120   11.1700    2.9200 N.3    95  ARG95      -0.1231
    122  CA       -43.8110   10.2760    3.9930 C.3    95  ARG95       0.1694
    123  C        -42.2750   10.2850    4.1530 C.2    95  ARG95       0.2592
    124  O        -41.6680   11.3430    4.1590 O.2    95  ARG95      -0.2718
    125  CB       -44.4110    8.8560    3.8640 C.3    95  ARG95       0.0321
    126  CG       -45.9100    8.8760    3.4790 C.3    95  ARG95       0.0489
    127  CD       -46.5860    7.5020    3.4010 C.3    95  ARG95       0.2205
    128  NE       -46.2130    6.7570    2.1960 N.pl3  95  ARG95      -0.0865
    129  CZ       -46.5470    5.4880    1.9540 C.cat  95  ARG95       0.5346
    130  NH1      -47.2840    4.8050    2.8240 N.pl3  95  ARG95       0.1354
    131  NH2      -46.1370    4.8950    0.8350 N.pl3  95  ARG95       0.1354
    132  N        -41.6530    9.1200    4.2810 N.am   96  SER96      -0.1952
    133  CA       -40.2170    9.0490    4.5370 C.3    96  SER96       0.1924
    134  C        -39.5210    8.0520    3.6600 C.2    96  SER96       0.2314
    135  O        -40.1360    7.1330    3.1290 O.2    96  SER96      -0.2863
    136  CB       -39.9620    8.5630    5.9600 C.3    96  SER96       0.2116
    137  OG       -39.9590    7.1410    5.9470 O.3    96  SER96      -0.2180
    138  N        -38.1830    5.6460    4.6050 N.3    98  LEU98      -0.1231
    139  CA       -38.3710    4.3060    5.0950 C.3    98  LEU98       0.1693
    140  C        -39.4790    3.5820    4.3480 C.2    98  LEU98       0.2591
    141  O        -39.3530    2.3860    4.0430 O.2    98  LEU98      -0.2718
    142  CB       -38.5890    4.2620    6.6030 C.3    98  LEU98       0.0284
    143  CG       -38.6850    2.8390    7.2060 C.3    98  LEU98       0.0019
    144  CD1      -37.5610    1.8760    6.7790 C.3    98  LEU98       0.0001
    145  CD2      -38.7350    2.9430    8.7230 C.3    98  LEU98       0.0001
    146  N        -40.5480    4.3020    4.0280 N.am   99  GLU99      -0.1979
    147  CA       -41.6620    3.6740    3.3250 C.3    99  GLU99       0.1602
    148  C        -41.2610    3.3610    1.8980 C.2    99  GLU99       0.2287
    149  O        -41.6190    2.3050    1.3450 O.2    99  GLU99      -0.2864
    150  CB       -42.9050    4.5670    3.3530 C.3    99  GLU99       0.0415
    151  CG       -43.6130    4.5870    4.6910 C.3    99  GLU99       0.1163
    152  CD       -42.9050    5.4630    5.6990 C.2    99  GLU99       0.3649
    153  OE1      -42.6210    6.6460    5.3780 O.co2  99  GLU99      -0.2457
    154  OE2      -42.6420    4.9640    6.8120 O.co2  99  GLU99      -0.2457
    155  N        -36.3580    6.3110    8.4110 N.3   139  GLY139     -0.1225
    156  CA       -37.6040    6.8150    8.9990 C.3   139  GLY139      0.1811
    157  C        -37.6040    8.2900    9.3770 C.2   139  GLY139      0.2280
    158  O        -38.6210    8.8300    9.7490 O.2   139  GLY139     -0.2866
    159  N        -37.6930   12.7150    5.5940 N.3   142  PHE142     -0.1241
    160  CA       -39.0530   12.8910    5.1140 C.3   142  PHE142      0.1605
    161  C        -39.1010   13.4620    3.6910 C.2   142  PHE142      0.2264
    162  O        -38.1340   14.0700    3.2140 O.2   142  PHE142     -0.2867
    163  CB       -39.8670   13.7410    6.1020 C.3   142  PHE142      0.0534
    164  CG       -40.1260   13.0600    7.4360 C.ar  142  PHE142     -0.0203
    165  CD1      -39.3640   13.3700    8.5490 C.ar  142  PHE142     -0.0042
    166  CD2      -41.1380   12.1030    7.5740 C.ar  142  PHE142     -0.0042
    167  CE1      -39.6040   12.7450    9.7680 C.ar  142  PHE142     -0.0003
    168  CE2      -41.3720   11.4700    8.8160 C.ar  142  PHE142     -0.0003
    169  CZ       -40.6160   11.8030    9.8930 C.ar  142  PHE142     -0.0000
    170  N        -35.9600   15.2130   10.0050 N.3   152  GLY152     -0.1210
    171  CA       -36.8430   15.4500   11.1580 C.3   152  GLY152      0.1956
    172  C        -36.4760   14.6750   12.4170 C.2   152  GLY152      0.2611
    173  O        -35.4190   14.0420   12.4920 O.2   152  GLY152     -0.2717
    174  N        -37.3590   14.7110   13.4120 N.am  153  ASP153     -0.1973
    175  CA       -37.1580   14.0030   14.6930 C.3   153  ASP153      0.1709
    176  C        -35.8320   14.3760   15.3860 C.2   153  ASP153      0.2293
    177  O        -34.8590   13.6020   15.3780 O.2   153  ASP153     -0.2864
    178  CB       -37.2520   12.4920   14.4990 C.3   153  ASP153      0.1436
    179  CG       -38.6110   12.0440   14.0250 C.2   153  ASP153      0.3671
    180  OD1      -39.5050   12.9060   13.8660 O.co2 153  ASP153     -0.2456
    181  OD2      -38.7930   10.8180   13.8200 O.co2 153  ASP153     -0.2456
@<TRIPOS>BOND
     1   131   129    1
     2   149   148    2
     3   114   115    1
     4   114   111    1
     5   113   112    2
     6   112   111    1
     7   115   116    1
     8   120   118    1
     9   148   147    1
    10   129   128    2
    11   129   130    1
    12   128   127    1
    13   118   119    1
    14   118   117    2
    15   111   110    1
    16   117   116    1
    17   110   106   am
    18   121   122    1
    19   135   134    2
    20   162   161    2
    21   147   150    1
    22   147   146    1
    23   150   151    1
    24   127   126    1
    25   126   125    1
    26   134   133    1
    27   161   160    1
    28   125   122    1
    29   106   107    2
    30   106   105    1
    31   122   123    1
    32   146   140   am
    33   141   140    2
    34    95    93   ar
    35   123   124    2
    36   123   132   am
    37   132   133    1
    38   140   139    1
    39   133   136    1
    40   105   108    1
    41   105   104    1
    42   138   139    1
    43    99    98    2
    44   151   152    1
    45    11     9    1
    46   108   109    1
    47   139   142    1
    48   160   159    1
    49   160   163    1
    50    93    94   ar
    51    93    92    1
    52   153   152   ar
    53     9    10    1
    54     9     8    2
    55   152   154   ar
    56    98   104   am
    57    98    97    1
    58   137   136    1
    59     8     7    1
    60    92    91    1
    61   163   164    1
    62   103   101    1
    63   142   143    1
    64   101   100    1
    65   101   102    1
    66   144   143    1
    67   100    97    1
    68     7     6    1
    69    97    96    1
    70   143   145    1
    71    96    89   am
    72   164   166   ar
    73   164   165   ar
    74   166   168   ar
    75    91    88    1
    76    89    88    1
    77    89    90    2
    78    72    73    1
    79     6     5    1
    80    88    87    1
    81   155   156    1
    82   165   167   ar
    83    73    74    1
    84    73    76    1
    85    78    76    1
    86   168   169   ar
    87   156   157    1
    88    19    17    1
    89    74    75    2
    90   157   158    2
    91    76    77    1
    92     5     2    1
    93   167   169   ar
    94    87    81   am
    95    18    17    1
    96   170   171    1
    97    17    16    1
    98    48    49    1
    99    82    81    2
   100    81    80    1
   101     1     2    1
   102    52    49    1
   103     2     3    1
   104    16    13    1
   105    15    14    2
   106   171   172    1
   107    13    14    1
   108    13    12    1
   109    49    50    1
   110     3     4    2
   111    14    20   am
   112    80    83    1
   113    80    79    1
   114   172   173    2
   115   172   174   am
   116    83    84    1
   117    50    51    2
   118    20    21    1
   119    71    69   ar
   120    71    70   ar
   121   174   175    1
   122    47    46    1
   123    21    22    1
   124   181   179   ar
   125   180   179   ar
   126    69    67   ar
   127    70    68   ar
   128    84    86    1
   129    84    85    1
   130   179   178    1
   131    45    44    2
   132   178   175    1
   133    65    64    2
   134    44    43    1
   135   175   176    1
   136    46    43    1
   137    22    23    2
   138    22    24   am
   139    68    67   ar
   140    67    66    1
   141   177   176    2
   142    43    42    1
   143    24    25    1
   144    64    63    1
   145    61    60    1
   146    60    59    1
   147    63    66    1
   148    63    62    1
   149    27    26    2
   150    59    58    1
   151    53    54    1
   152    58    57    1
   153    25    26    1
   154    25    28    1
   155    26    33   am
   156    54    57    1
   157    54    55    1
   158    33    34    1
   159    28    29    1
   160    34    35    1
   161    55    56    2
   162    32    31    1
   163    30    29    1
   164    30    31    1
   165    40    39    2
   166    35    36    2
   167    39    38    1
   168    41    38    1
   169    38    37    1
