@<TRIPOS>MOLECULE
tmp/3thdD04.pdb
 136 134 0 0 0
SMALL
GASTEIGER

@<TRIPOS>ATOM
      1  N         34.1230  -14.4640   56.9710 N.3    55  TYR55      -0.1241
      2  CA        35.4730  -14.8940   57.3120 C.3    55  TYR55       0.1605
      3  C         36.4900  -14.2160   56.3910 C.2    55  TYR55       0.2264
      4  O         36.2240  -13.9990   55.2180 O.2    55  TYR55      -0.2867
      5  CB        35.6050  -16.3810   57.0390 C.3    55  TYR55       0.0534
      6  CG        35.1280  -17.3220   58.1460 C.ar   55  TYR55      -0.0201
      7  CD1       35.5340  -17.1540   59.4810 C.ar   55  TYR55      -0.0009
      8  CD2       34.3280  -18.4120   57.8310 C.ar   55  TYR55      -0.0009
      9  CE1       35.1330  -18.0460   60.4520 C.ar   55  TYR55       0.0417
     10  CE2       33.9010  -19.2910   58.7960 C.ar   55  TYR55       0.0417
     11  CZ        34.3160  -19.1100   60.1010 C.ar   55  TYR55       0.1957
     12  OH        33.9330  -20.0190   61.0630 O.3    55  TYR55      -0.2866
     13  N         40.1690  -19.9980   60.2270 N.3    98  ILE98      -0.1231
     14  CA        38.7120  -19.8630   60.0770 C.3    98  ILE98       0.1692
     15  C         37.8910  -21.1690   59.9580 C.2    98  ILE98       0.2592
     16  O         36.6740  -21.1000   59.9990 O.2    98  ILE98      -0.2718
     17  CB        38.3590  -18.9210   58.8880 C.3    98  ILE98       0.0266
     18  CG1       39.0480  -19.3980   57.6050 C.3    98  ILE98       0.0019
     19  CG2       38.7670  -17.4950   59.1680 C.3    98  ILE98       0.0020
     20  CD1       38.3640  -18.9530   56.3420 C.3    98  ILE98       0.0001
     21  N         38.5380  -22.3270   59.7660 N.am   99  CYS99      -0.1956
     22  CA        37.8590  -23.6270   59.5730 C.3    99  CYS99       0.1843
     23  C         37.0970  -23.6270   58.2220 C.2    99  CYS99       0.2625
     24  O         37.7390  -23.7120   57.1490 O.2    99  CYS99      -0.2714
     25  CB        36.9730  -23.9950   60.7910 C.3    99  CYS99       0.0997
     26  SG        36.4490  -25.7290   60.8170 S.3    99  CYS99      -0.0797
     27  N         35.7680  -23.5260   58.2650 N.am  100  ALA100     -0.1963
     28  CA        34.9880  -23.0100   57.1390 C.3   100  ALA100      0.1728
     29  C         34.9640  -23.9190   55.9090 C.2   100  ALA100      0.2616
     30  O         34.6200  -23.4580   54.7970 O.2   100  ALA100     -0.2715
     31  CB        35.5260  -21.6320   56.7460 C.3   100  ALA100      0.0334
     32  N         35.2740  -25.2050   56.0850 N.am  101  GLU101     -0.1977
     33  CA        35.3220  -26.1180   54.9170 C.3   101  GLU101      0.1602
     34  C         36.1740  -25.4800   53.7950 C.2   101  GLU101      0.2287
     35  O         35.8770  -25.5860   52.6050 O.2   101  GLU101     -0.2864
     36  CB        33.9040  -26.4160   54.4170 C.3   101  GLU101      0.0415
     37  CG        33.1090  -27.3820   55.2910 C.3   101  GLU101      0.1163
     38  CD        32.6520  -26.7490   56.6120 C.2   101  GLU101      0.3649
     39  OE1       31.7200  -25.8880   56.6050 O.co2 101  GLU101     -0.2457
     40  OE2       33.2530  -27.1020   57.6620 O.co2 101  GLU101     -0.2457
     41  N         38.8790  -19.1990   65.9580 N.3   159  ASN159     -0.1225
     42  CA        37.6110  -19.8270   65.5630 C.3   159  ASN159      0.1785
     43  C         37.5210  -21.2200   66.2080 C.2   159  ASN159      0.2597
     44  O         38.2860  -22.1170   65.8420 O.2   159  ASN159     -0.2718
     45  CB        37.5350  -19.9470   64.0340 C.3   159  ASN159      0.1169
     46  CG        36.1830  -20.4930   63.5890 C.2   159  ASN159      0.2627
     47  OD1       35.2790  -19.7260   63.3330 O.2   159  ASN159     -0.2716
     48  ND2       36.0330  -21.8200   63.5530 N.am  159  ASN159     -0.0877
     49  N         36.6020  -21.3850   67.1690 N.am  160  GLU160     -0.1979
     50  CA        36.3990  -22.6320   67.8880 C.3   160  GLU160      0.1602
     51  C         37.7380  -23.1920   68.3690 C.2   160  GLU160      0.2287
     52  O         38.0470  -24.3740   68.1510 O.2   160  GLU160     -0.2864
     53  CB        35.6710  -23.6790   67.0280 C.3   160  GLU160      0.0415
     54  CG        34.2610  -23.2980   66.5500 C.3   160  GLU160      0.1163
     55  CD        33.4980  -24.5230   66.0650 C.2   160  GLU160      0.3649
     56  OE1       34.0980  -25.4020   65.4310 O.co2 160  GLU160     -0.2457
     57  OE2       32.2820  -24.6200   66.2920 O.co2 160  GLU160     -0.2457
     58  N         26.8930  -19.1850   65.0800 N.3   240  GLU240     -0.1245
     59  CA        26.6410  -19.9600   63.8510 C.3   240  GLU240      0.1567
     60  C         25.4250  -20.8680   64.0560 C.2   240  GLU240      0.2260
     61  O         25.5320  -21.9840   64.5400 O.2   240  GLU240     -0.2867
     62  CB        27.8550  -20.8090   63.4510 C.3   240  GLU240      0.0388
     63  CG        29.2030  -20.1080   63.4270 C.3   240  GLU240      0.1160
     64  CD        30.3190  -21.0510   63.0310 C.2   240  GLU240      0.3649
     65  OE1       30.0340  -22.2410   62.7630 O.co2 240  GLU240     -0.2457
     66  OE2       31.4750  -20.5920   62.9830 O.co2 240  GLU240     -0.2457
     67  N         22.8790  -23.1180   62.5620 N.3   242  TYR242     -0.1241
     68  CA        23.0410  -23.8450   61.2810 C.3   242  TYR242      0.1605
     69  C         21.7450  -23.9780   60.4760 C.2   242  TYR242      0.2264
     70  O         20.7810  -24.5910   60.9100 O.2   242  TYR242     -0.2867
     71  CB        23.7680  -25.1870   61.4580 C.3   242  TYR242      0.0534
     72  CG        25.1210  -24.9860   62.0850 C.ar  242  TYR242     -0.0201
     73  CD1       26.1500  -24.3910   61.3740 C.ar  242  TYR242     -0.0009
     74  CD2       25.3330  -25.3000   63.4320 C.ar  242  TYR242     -0.0009
     75  CE1       27.4050  -24.1850   61.9720 C.ar  242  TYR242      0.0417
     76  CE2       26.5550  -25.0790   64.0350 C.ar  242  TYR242      0.0417
     77  CZ        27.5860  -24.5050   63.2970 C.ar  242  TYR242      0.1957
     78  OH        28.7940  -24.2570   63.8880 O.3   242  TYR242     -0.2866
     79  N         24.0480  -27.8540   56.3100 N.3   245  TRP245     -0.1227
     80  CA        25.2880  -28.5280   56.6900 C.3   245  TRP245      0.1737
     81  C         26.1810  -28.7360   55.4990 C.2   245  TRP245      0.2595
     82  O         25.7470  -28.5540   54.3490 O.2   245  TRP245     -0.2718
     83  CB        25.0080  -29.8410   57.4560 C.3   245  TRP245      0.0564
     84  CG        26.1580  -30.3130   58.3140 C.ar  245  TRP245      0.0003
     85  CD1       26.8970  -31.4990   58.1920 C.ar  245  TRP245      0.0946
     86  CD2       26.7660  -29.6040   59.4520 C.ar  245  TRP245      0.0152
     87  NE1       27.8760  -31.5650   59.1480 N.ar  245  TRP245     -0.2442
     88  CE2       27.8420  -30.4670   59.9490 C.ar  245  TRP245      0.0810
     89  CE3       26.5260  -28.4000   60.0890 C.ar  245  TRP245      0.0012
     90  CZ2       28.6390  -30.1030   61.0340 C.ar  245  TRP245      0.0191
     91  CZ3       27.3290  -28.0570   61.1950 C.ar  245  TRP245      0.0001
     92  CH2       28.3700  -28.8860   61.6390 C.ar  245  TRP245      0.0015
     93  N         27.4440  -29.0660   55.7760 N.am  246  LEU246     -0.1980
     94  CA        28.4270  -29.3820   54.7330 C.3   246  LEU246      0.1596
     95  C         28.3030  -30.7960   54.1450 C.2   246  LEU246      0.2287
     96  O         27.7120  -31.7080   54.7520 O.2   246  LEU246     -0.2864
     97  CB        29.8420  -29.2090   55.2780 C.3   246  LEU246      0.0297
     98  CG        30.2930  -30.2220   56.3310 C.3   246  LEU246      0.0022
     99  CD1       31.5940  -30.8140   55.8700 C.3   246  LEU246      0.0001
    100  CD2       30.4320  -29.5530   57.6970 C.3   246  LEU246      0.0001
    101  N         24.3000  -19.5480   59.7680 N.3   278  TYR278     -0.1241
    102  CA        25.4480  -20.1330   59.0520 C.3   278  TYR278      0.1605
    103  C         24.9670  -21.3420   58.2230 C.2   278  TYR278      0.2264
    104  O         24.5320  -22.3300   58.8150 O.2   278  TYR278     -0.2867
    105  CB        26.5610  -20.5670   60.0630 C.3   278  TYR278      0.0534
    106  CG        27.8750  -20.9020   59.3870 C.ar  278  TYR278     -0.0201
    107  CD1       28.9730  -20.0180   59.4260 C.ar  278  TYR278     -0.0009
    108  CD2       28.0210  -22.1010   58.6750 C.ar  278  TYR278     -0.0009
    109  CE1       30.1810  -20.3220   58.7480 C.ar  278  TYR278      0.0417
    110  CE2       29.2010  -22.4070   58.0000 C.ar  278  TYR278      0.0417
    111  CZ        30.2720  -21.5240   58.0470 C.ar  278  TYR278      0.1957
    112  OH        31.3690  -21.8580   57.3690 O.3   278  TYR278     -0.2866
    113  N         25.1600  -25.7060   50.7370 N.3   305  TYR305     -0.1241
    114  CA        24.9260  -25.8010   52.2130 C.3   305  TYR305      0.1605
    115  C         23.4800  -26.0720   52.6140 C.2   305  TYR305      0.2264
    116  O         23.1620  -26.1100   53.7980 O.2   305  TYR305     -0.2867
    117  CB        25.4330  -24.5630   52.9460 C.3   305  TYR305      0.0534
    118  CG        25.9440  -24.8380   54.3580 C.ar  305  TYR305     -0.0201
    119  CD1       27.2310  -25.3550   54.5690 C.ar  305  TYR305     -0.0009
    120  CD2       25.1520  -24.5530   55.4660 C.ar  305  TYR305     -0.0009
    121  CE1       27.7130  -25.5950   55.8760 C.ar  305  TYR305      0.0417
    122  CE2       25.6250  -24.7830   56.7540 C.ar  305  TYR305      0.0417
    123  CZ        26.8870  -25.2840   56.9530 C.ar  305  TYR305      0.1957
    124  OH        27.3190  -25.5120   58.2430 O.3   305  TYR305     -0.2866
    125  N         40.1190  -28.9230   59.8170 N.3   457  TYR457     -0.1241
    126  CA        39.6000  -29.0820   61.1950 C.3   457  TYR457      0.1605
    127  C         40.1820  -30.3070   61.8330 C.2   457  TYR457      0.2264
    128  O         40.4230  -31.3060   61.1440 O.2   457  TYR457     -0.2867
    129  CB        38.1020  -29.2530   61.1510 C.3   457  TYR457      0.0534
    130  CG        37.4270  -29.4540   62.4850 C.ar  457  TYR457     -0.0201
    131  CD1       37.2540  -28.3870   63.3510 C.ar  457  TYR457     -0.0009
    132  CD2       36.8940  -30.6970   62.8430 C.ar  457  TYR457     -0.0009
    133  CE1       36.5730  -28.5380   64.5510 C.ar  457  TYR457      0.0417
    134  CE2       36.2180  -30.8540   64.0440 C.ar  457  TYR457      0.0417
    135  CZ        36.0660  -29.7710   64.8900 C.ar  457  TYR457      0.1957
    136  OH        35.4140  -29.9120   66.1080 O.3   457  TYR457     -0.2866
@<TRIPOS>BOND
     1   113   114    1
     2   114   115    1
     3   114   117    1
     4    35    34    2
     5   115   116    2
     6   117   118    1
     7    34    33    1
     8    95    94    1
     9    95    96    2
    10    82    81    2
    11   118   119   ar
    12   118   120   ar
    13    36    33    1
    14    36    37    1
    15   119   121   ar
    16    94    97    1
    17    94    93    1
    18    30    29    2
    19    33    32    1
    20     4     3    2
    21    97    98    1
    22    37    38    1
    23   120   122   ar
    24    81    93   am
    25    81    80    1
    26    99    98    1
    27   121   123   ar
    28    29    32   am
    29    29    28    1
    30    79    80    1
    31    98   100    1
    32    20    18    1
    33     3     2    1
    34    39    38   ar
    35    38    40   ar
    36    80    83    1
    37    31    28    1
    38   122   123   ar
    39   123   124    1
    40     1     2    1
    41     5     2    1
    42     5     6    1
    43    28    27    1
    44    24    23    2
    45   112   111    1
    46    83    84    1
    47    18    17    1
    48     8     6   ar
    49     8    10   ar
    50   110   111   ar
    51   110   108   ar
    52   111   109   ar
    53     6     7   ar
    54    85    84   ar
    55    85    87   ar
    56    23    27   am
    57    23    22    1
    58   103   104    2
    59   103   102    1
    60    84    86   ar
    61   108   106   ar
    62   109   107   ar
    63    10    11   ar
    64    17    19    1
    65    17    14    1
    66   102   101    1
    67   102   105    1
    68    87    88   ar
    69   106   107   ar
    70   106   105    1
    71    86    88   ar
    72    86    89   ar
    73     7     9   ar
    74    22    21    1
    75    22    25    1
    76    21    15   am
    77   125   126    1
    78    88    90   ar
    79    15    16    2
    80    15    14    1
    81    14    13    1
    82    89    91   ar
    83    11     9   ar
    84    11    12    1
    85    69    70    2
    86    69    68    1
    87    25    26    1
    88    90    92   ar
    89   128   127    2
    90   129   126    1
    91   129   130    1
    92   126   127    1
    93    91    92   ar
    94    68    71    1
    95    68    67    1
    96    73    75   ar
    97    73    72   ar
    98    71    72    1
    99    75    77   ar
   100    72    74   ar
   101   130   132   ar
   102   130   131   ar
   103    65    64   ar
   104   132   134   ar
   105    66    64   ar
   106    64    63    1
   107    77    78    1
   108    77    76   ar
   109    47    46    2
   110   131   133   ar
   111    63    62    1
   112    74    76   ar
   113    62    59    1
   114    48    46   am
   115    46    45    1
   116    59    60    1
   117    59    58    1
   118    45    42    1
   119   134   135   ar
   120    60    61    2
   121   133   135   ar
   122   135   136    1
   123    56    55   ar
   124    42    41    1
   125    42    43    1
   126    44    43    2
   127    55    57   ar
   128    55    54    1
   129    43    49   am
   130    54    53    1
   131    53    50    1
   132    49    50    1
   133    50    51    1
   134    52    51    2
