@<TRIPOS>MOLECULE
tmp/3theB00.pdb
 125 114 0 0 0
SMALL
GASTEIGER

@<TRIPOS>ATOM
      1  N        -27.1230   34.5120  -35.3510 N.3   121  HIS121     -0.1241
      2  CA       -25.6900   34.6170  -35.1190 C.3   121  HIS121      0.1621
      3  C        -25.3570   35.5540  -33.9740 C.2   121  HIS121      0.2264
      4  O        -26.1910   36.3320  -33.5340 O.2   121  HIS121     -0.2867
      5  CB       -25.0030   35.1060  -36.3900 C.3   121  HIS121      0.0745
      6  CG       -25.5480   34.4830  -37.6390 C.ar  121  HIS121      0.0817
      7  ND1      -26.6500   34.9830  -38.3030 N.ar  121  HIS121     -0.2268
      8  CD2      -25.1880   33.3600  -38.3050 C.ar  121  HIS121      0.1154
      9  CE1      -26.9440   34.1940  -39.3210 C.ar  121  HIS121      0.1986
     10  NE2      -26.0720   33.2010  -39.3440 N.ar  121  HIS121     -0.2212
     11  N        -22.5550   37.5790  -34.1410 N.3   123  ASP123     -0.1239
     12  CA       -21.9070   38.7550  -34.7040 C.3   123  ASP123      0.1674
     13  C        -20.8950   39.3150  -33.7230 C.2   123  ASP123      0.2266
     14  O        -20.7690   40.5250  -33.5700 O.2   123  ASP123     -0.2867
     15  CB       -22.9380   39.8230  -35.0200 C.3   123  ASP123      0.1410
     16  CG       -23.9150   39.3690  -36.0650 C.2   123  ASP123      0.3668
     17  OD1      -23.7350   38.2470  -36.5960 O.co2 123  ASP123     -0.2456
     18  OD2      -24.8550   40.1360  -36.3520 O.co2 123  ASP123     -0.2456
     19  N        -17.5930   38.2570  -33.8140 N.3   125  ASN125     -0.1240
     20  CA       -16.2510   37.9910  -34.3180 C.3   125  ASN125      0.1653
     21  C        -15.4340   39.2780  -34.1710 C.2   125  ASN125      0.2266
     22  O        -15.9760   40.3820  -34.2770 O.2   125  ASN125     -0.2867
     23  CB       -16.2900   37.5910  -35.7950 C.3   125  ASN125      0.1155
     24  CG       -16.2490   36.0890  -35.9990 C.2   125  ASN125      0.2627
     25  OD1      -15.4510   35.3930  -35.3770 O.2   125  ASN125     -0.2716
     26  ND2      -17.0950   35.5840  -36.8910 N.am  125  ASN125     -0.0877
     27  N        -12.3800   36.6960  -37.1500 N.3   130  THR130     -0.1203
     28  CA       -13.2030   36.5540  -38.3460 C.3   130  THR130      0.1994
     29  C        -12.4680   35.7770  -39.4390 C.2   130  THR130      0.2619
     30  O        -11.2410   35.8480  -39.5660 O.2   130  THR130     -0.2717
     31  CB       -13.6170   37.9290  -38.9180 C.3   130  THR130      0.1784
     32  OG1      -14.3820   37.7360  -40.1150 O.3   130  THR130     -0.2211
     33  CG2      -12.3940   38.7620  -39.2460 C.3   130  THR130      0.0376
     34  N        -13.2300   35.0380  -40.2310 N.am  131  THR131     -0.1938
     35  CA       -12.6570   34.2540  -41.3110 C.3   131  THR131      0.2028
     36  C        -12.9730   34.9160  -42.6520 C.2   131  THR131      0.2642
     37  O        -12.2100   34.7990  -43.6080 O.2   131  THR131     -0.2714
     38  CB       -13.2330   32.8270  -41.3140 C.3   131  THR131      0.1808
     39  OG1      -13.5240   32.4260  -39.9680 O.3   131  THR131     -0.2208
     40  CG2      -12.2230   31.8540  -41.9100 C.3   131  THR131      0.0379
     41  N        -14.1010   35.6140  -42.7130 N.am  132  SER132     -0.1949
     42  CA       -14.5170   36.2880  -43.9320 C.3   132  SER132      0.1924
     43  C        -13.9830   37.7130  -43.9370 C.2   132  SER132      0.2314
     44  O        -13.5040   38.2120  -44.9520 O.2   132  SER132     -0.2863
     45  CB       -16.0430   36.3190  -44.0170 C.3   132  SER132      0.2116
     46  OG       -16.5790   37.1090  -42.9660 O.3   132  SER132     -0.2180
     47  N        -15.9690   40.0790  -43.0590 N.3   134  ASN134     -0.1240
     48  CA       -17.1920   40.8570  -43.2630 C.3   134  ASN134      0.1653
     49  C        -17.6340   41.4480  -41.9390 C.2   134  ASN134      0.2266
     50  O        -17.9720   40.7290  -41.0080 O.2   134  ASN134     -0.2867
     51  CB       -18.3020   39.9780  -43.8320 C.3   134  ASN134      0.1155
     52  CG       -17.9730   39.4560  -45.2100 C.2   134  ASN134      0.2627
     53  OD1      -17.4180   40.1760  -46.0420 O.2   134  ASN134     -0.2716
     54  ND2      -18.3210   38.2010  -45.4660 N.am  134  ASN134     -0.0877
     55  N        -20.3450   42.7570  -40.8650 N.3   136  HIS136     -0.1226
     56  CA       -21.6800   42.5600  -40.3020 C.3   136  HIS136      0.1752
     57  C        -21.6650   41.4000  -39.3010 C.2   136  HIS136      0.2596
     58  O        -22.6490   41.1470  -38.6120 O.2   136  HIS136     -0.2718
     59  CB       -22.7420   42.3190  -41.3960 C.3   136  HIS136      0.0759
     60  CG       -22.7140   40.9500  -42.0020 C.ar  136  HIS136      0.0818
     61  ND1      -23.8470   40.3380  -42.4970 N.ar  136  HIS136     -0.2268
     62  CD2      -21.6950   40.0900  -42.2330 C.ar  136  HIS136      0.1154
     63  CE1      -23.5270   39.1620  -43.0070 C.ar  136  HIS136      0.1986
     64  NE2      -22.2270   38.9880  -42.8610 N.ar  136  HIS136     -0.2212
     65  N        -20.5290   40.7100  -39.2140 N.am  137  GLY137     -0.1957
     66  CA       -20.4080   39.5970  -38.2870 C.3   137  GLY137      0.1869
     67  C        -19.4390   39.8720  -37.1510 C.2   137  GLY137      0.2309
     68  O        -18.9840   38.9440  -36.4740 O.2   137  GLY137     -0.2863
     69  N        -25.9760   29.3870  -35.1340 N.3   176  ASP176     -0.1239
     70  CA       -24.8420   29.3360  -36.0700 C.3   176  ASP176      0.1674
     71  C        -23.7010   30.2230  -35.5640 C.2   176  ASP176      0.2266
     72  O        -23.5490   31.3780  -35.9830 O.2   176  ASP176     -0.2867
     73  CB       -25.2730   29.7960  -37.4640 C.3   176  ASP176      0.1410
     74  CG       -24.1110   29.8800  -38.4250 C.2   176  ASP176      0.3668
     75  OD1      -23.4250   28.8580  -38.6320 O.co2 176  ASP176     -0.2456
     76  OD2      -23.8750   30.9730  -38.9700 O.co2 176  ASP176     -0.2456
     77  N        -19.5100   30.6930  -34.8740 N.3   178  ASP178     -0.1239
     78  CA       -18.1640   30.2530  -35.2170 C.3   178  ASP178      0.1674
     79  C        -17.4590   29.8380  -33.9380 C.2   178  ASP178      0.2266
     80  O        -17.8040   30.3090  -32.8460 O.2   178  ASP178     -0.2867
     81  CB       -17.3460   31.3770  -35.8680 C.3   178  ASP178      0.1410
     82  CG       -17.8570   31.7650  -37.2340 C.2   178  ASP178      0.3668
     83  OD1      -18.4820   30.9120  -37.8940 O.co2 178  ASP178     -0.2456
     84  OD2      -17.6120   32.9190  -37.6590 O.co2 178  ASP178     -0.2456
     85  N        -16.1800   32.6500  -32.0980 N.3   181  GLU181     -0.1245
     86  CA       -17.2710   33.3800  -31.4690 C.3   181  GLU181      0.1567
     87  C        -17.7610   32.6720  -30.2050 C.2   181  GLU181      0.2260
     88  O        -18.0910   33.3240  -29.2150 O.2   181  GLU181     -0.2867
     89  CB       -18.4340   33.5430  -32.4420 C.3   181  GLU181      0.0388
     90  CG       -18.2050   34.5850  -33.5180 C.3   181  GLU181      0.1160
     91  CD       -19.4150   34.7430  -34.4100 C.2   181  GLU181      0.3649
     92  OE1      -19.7520   33.7740  -35.1130 O.co2 181  GLU181     -0.2457
     93  OE2      -20.0360   35.8280  -34.4020 O.co2 181  GLU181     -0.2457
     94  N        -31.9610   41.1760  -36.1790 N.3   227  ASP227     -0.1239
     95  CA       -31.4350   40.6880  -37.4480 C.3   227  ASP227      0.1674
     96  C        -32.5310   39.7740  -37.9910 C.2   227  ASP227      0.2266
     97  O        -32.8780   38.7850  -37.3500 O.2   227  ASP227     -0.2867
     98  CB       -30.1520   39.8800  -37.2310 C.3   227  ASP227      0.1410
     99  CG       -29.6200   39.2770  -38.5230 C.2   227  ASP227      0.3668
    100  OD1      -30.4370   38.9630  -39.4170 O.co2 227  ASP227     -0.2456
    101  OD2      -28.3920   39.0990  -38.6440 O.co2 227  ASP227     -0.2456
    102  N        -32.5650   37.4230  -39.8850 N.3   229  ASP229     -0.1239
    103  CA       -32.2340   36.0120  -40.0390 C.3   229  ASP229      0.1674
    104  C        -32.3480   35.3250  -38.6760 C.2   229  ASP229      0.2266
    105  O        -31.9670   34.1620  -38.5080 O.2   229  ASP229     -0.2867
    106  CB       -30.8330   35.8330  -40.6460 C.3   229  ASP229      0.1410
    107  CG       -29.7100   36.2630  -39.7120 C.2   229  ASP229      0.3668
    108  OD1      -28.6340   36.6080  -40.2290 O.co2 229  ASP229     -0.2456
    109  OD2      -29.8810   36.2440  -38.4790 O.co2 229  ASP229     -0.2456
    110  N        -27.7540   35.7090  -44.8420 N.3   241  THR241     -0.1218
    111  CA       -27.2570   34.5210  -44.1730 C.3   241  THR241      0.1862
    112  C        -28.3170   33.7680  -43.3830 C.2   241  THR241      0.2287
    113  O        -28.3030   33.7670  -42.1530 O.2   241  THR241     -0.2866
    114  CB       -26.0890   34.8900  -43.2400 C.3   241  THR241      0.1770
    115  OG1      -26.5110   35.9140  -42.3320 O.3   241  THR241     -0.2211
    116  CG2      -24.9040   35.4010  -44.0520 C.3   241  THR241      0.0375
    117  N        -30.7070   43.3920  -42.0780 N.3   272  GLU272     -0.1245
    118  CA       -30.4850   42.3020  -43.0210 C.3   272  GLU272      0.1567
    119  C        -31.5800   41.9500  -44.0100 C.2   272  GLU272      0.2260
    120  O        -31.5540   40.8660  -44.6000 O.2   272  GLU272     -0.2867
    121  CB       -30.0640   41.0400  -42.2650 C.3   272  GLU272      0.0388
    122  CG       -28.7750   41.2020  -41.4480 C.3   272  GLU272      0.1160
    123  CD       -27.5440   41.5230  -42.2960 C.2   272  GLU272      0.3649
    124  OE1      -27.6020   41.4240  -43.5430 O.co2 272  GLU272     -0.2457
    125  OE2      -26.5010   41.8640  -41.7050 O.co2 272  GLU272     -0.2457
@<TRIPOS>BOND
     1    53    52    2
     2    54    52   am
     3    52    51    1
     4    44    43    2
     5   110   111    1
     6   120   119    2
     7   111   112    1
     8   111   114    1
     9   116   114    1
    10    45    42    1
    11    45    46    1
    12   119   118    1
    13    43    42    1
    14    42    41    1
    15    51    48    1
    16    37    36    2
    17   124   123   ar
    18   112   113    2
    19    48    47    1
    20    48    49    1
    21   114   115    1
    22   118   121    1
    23   118   117    1
    24    63    64   ar
    25    63    61   ar
    26    64    62   ar
    27    41    36   am
    28    36    35    1
    29    61    60   ar
    30   123   125   ar
    31   123   122    1
    32   121   122    1
    33    62    60   ar
    34    60    59    1
    35    49    50    2
    36    40    38    1
    37    59    56    1
    38    38    35    1
    39    38    39    1
    40    35    34    1
    41    55    56    1
    42   106   103    1
    43   106   107    1
    44    56    57    1
    45    34    29   am
    46   108   107   ar
    47    32    31    1
    48   103   102    1
    49   103   104    1
    50   107   109   ar
    51    30    29    2
    52    29    28    1
    53   100    99   ar
    54    10     9   ar
    55    10     8   ar
    56     9     7   ar
    57    57    65   am
    58    57    58    2
    59    33    31    1
    60    65    66    1
    61    76    74   ar
    62    31    28    1
    63   104   105    2
    64   101    99   ar
    65    75    74   ar
    66    99    98    1
    67    74    73    1
    68    28    27    1
    69     8     6   ar
    70     7     6   ar
    71    66    67    1
    72    96    95    1
    73    96    97    2
    74    83    82   ar
    75    84    82   ar
    76     6     5    1
    77    73    70    1
    78    95    98    1
    79    95    94    1
    80    82    81    1
    81    67    68    2
    82    26    24   am
    83    17    16   ar
    84     5     2    1
    85    18    16   ar
    86    70    71    1
    87    70    69    1
    88    16    15    1
    89    24    23    1
    90    24    25    2
    91    72    71    2
    92    81    78    1
    93    23    20    1
    94     1     2    1
    95    78    77    1
    96    78    79    1
    97     2     3    1
    98    92    91   ar
    99    15    12    1
   100    12    11    1
   101    12    13    1
   102    91    93   ar
   103    91    90    1
   104    20    21    1
   105    20    19    1
   106    22    21    2
   107     3     4    2
   108    79    80    2
   109    13    14    2
   110    90    89    1
   111    89    86    1
   112    85    86    1
   113    86    87    1
   114    87    88    2
