@<TRIPOS>MOLECULE
tmp/3thjB00.pdb
 127 117 0 0 0
SMALL
GASTEIGER

@<TRIPOS>ATOM
      1  N         15.9330  -20.7780   41.5930 N.3    96  HIS96      -0.1241
      2  CA        16.0210  -20.9340   40.1430 C.3    96  HIS96       0.1621
      3  C         17.1790  -21.7770   39.6000 C.2    96  HIS96       0.2264
      4  O         17.2230  -22.0620   38.4010 O.2    96  HIS96      -0.2867
      5  CB        16.0380  -19.5430   39.4880 C.3    96  HIS96       0.0745
      6  CG        15.1620  -19.4320   38.2740 C.ar   96  HIS96       0.0817
      7  ND1       14.7240  -18.2220   37.7810 N.ar   96  HIS96      -0.2268
      8  CD2       14.6430  -20.3790   37.4550 C.ar   96  HIS96       0.1154
      9  CE1       13.9710  -18.4280   36.7130 C.ar   96  HIS96       0.1986
     10  NE2       13.9050  -19.7280   36.4940 N.ar   96  HIS96      -0.2212
     11  N         15.7780  -11.1050   36.3880 N.3   121  HIS121     -0.1241
     12  CA        17.1790  -11.4370   36.1080 C.3   121  HIS121      0.1621
     13  C         17.3790  -12.3980   34.9270 C.2   121  HIS121      0.2264
     14  O         16.4870  -13.1720   34.5840 O.2   121  HIS121     -0.2867
     15  CB        17.8180  -12.0620   37.3540 C.3   121  HIS121      0.0745
     16  CG        17.4150  -11.4030   38.6380 C.ar  121  HIS121      0.0817
     17  ND1       16.2860  -11.7670   39.3410 N.ar  121  HIS121     -0.2268
     18  CD2       17.9830  -10.3930   39.3380 C.ar  121  HIS121      0.1154
     19  CE1       16.1780  -11.0100   40.4180 C.ar  121  HIS121      0.1986
     20  NE2       17.1940  -10.1680   40.4390 N.ar  121  HIS121     -0.2212
     21  N         19.8900  -14.6100   34.9570 N.3   123  ASP123     -0.1239
     22  CA        20.3980  -15.8410   35.5580 C.3   123  ASP123      0.1674
     23  C         21.3480  -16.5480   34.5960 C.2   123  ASP123      0.2266
     24  O         21.3240  -17.7700   34.4790 O.2   123  ASP123     -0.2867
     25  CB        19.2400  -16.7800   35.9070 C.3   123  ASP123      0.1410
     26  CG        18.3680  -16.2410   37.0260 C.2   123  ASP123      0.3668
     27  OD1       18.8260  -15.3310   37.7510 O.co2 123  ASP123     -0.2456
     28  OD2       17.2340  -16.7400   37.1850 O.co2 123  ASP123     -0.2456
     29  N         24.8860  -15.8510   34.5490 N.3   125  ASN125     -0.1240
     30  CA        26.2780  -15.7060   34.9630 C.3   125  ASN125      0.1653
     31  C         26.9440  -17.0750   34.8400 C.2   125  ASN125      0.2266
     32  O         26.2860  -18.1020   35.0080 O.2   125  ASN125     -0.2867
     33  CB        26.3720  -15.2340   36.4180 C.3   125  ASN125      0.1155
     34  CG        26.4070  -13.7290   36.5410 C.2   125  ASN125      0.2627
     35  OD1       27.2800  -13.0760   35.9800 O.2   125  ASN125     -0.2716
     36  ND2       25.4590  -13.1700   37.2810 N.am  125  ASN125     -0.0877
     37  N         30.2260  -14.6890   37.7240 N.3   130  THR130     -0.1203
     38  CA        29.4250  -14.4400   38.9130 C.3   130  THR130      0.1994
     39  C         30.2300  -13.6870   39.9570 C.2   130  THR130      0.2619
     40  O         31.4260  -13.9230   40.1260 O.2   130  THR130     -0.2717
     41  CB        28.9190  -15.7450   39.5400 C.3   130  THR130      0.1784
     42  OG1       28.0460  -15.4300   40.6300 O.3   130  THR130     -0.2211
     43  CG2       30.0850  -16.5830   40.0520 C.3   130  THR130      0.0376
     44  N         29.5770  -12.7710   40.6560 N.am  131  THR131     -0.1938
     45  CA        30.2660  -12.0080   41.6790 C.3   131  THR131      0.2028
     46  C         29.8090  -12.4670   43.0540 C.2   131  THR131      0.2642
     47  O         30.5740  -12.4240   44.0160 O.2   131  THR131     -0.2714
     48  CB        30.0100  -10.4930   41.5170 C.3   131  THR131      0.1808
     49  OG1       28.6010  -10.2390   41.5080 O.3   131  THR131     -0.2208
     50  CG2       30.6190   -9.9850   40.2180 C.3   131  THR131      0.0379
     51  N         28.5650  -12.9310   43.1350 N.am  132  SER132     -0.1949
     52  CA        27.9990  -13.3930   44.3960 C.3   132  SER132      0.1924
     53  C         28.2830  -14.8720   44.6580 C.2   132  SER132      0.2314
     54  O         28.3030  -15.3100   45.8060 O.2   132  SER132     -0.2863
     55  CB        26.4870  -13.1610   44.4060 C.3   132  SER132      0.2116
     56  OG        25.8280  -14.0700   43.5390 O.3   132  SER132     -0.2180
     57  N         26.3420  -17.3020   43.8710 N.3   134  ASN134     -0.1240
     58  CA        25.0970  -18.0430   44.0490 C.3   134  ASN134      0.1653
     59  C         24.6700  -18.6910   42.7430 C.2   134  ASN134      0.2266
     60  O         24.4810  -18.0070   41.7370 O.2   134  ASN134     -0.2867
     61  CB        23.9950  -17.1190   44.5610 C.3   134  ASN134      0.1155
     62  CG        24.3590  -16.4700   45.8680 C.2   134  ASN134      0.2627
     63  OD1       25.0000  -17.0850   46.7170 O.2   134  ASN134     -0.2716
     64  ND2       23.9440  -15.2300   46.0470 N.am  134  ASN134     -0.0877
     65  N         21.8410  -19.8860   41.7350 N.3   136  HIS136     -0.1226
     66  CA        20.5150  -19.5960   41.1820 C.3   136  HIS136      0.1752
     67  C         20.6110  -18.4230   40.2160 C.2   136  HIS136      0.2596
     68  O         19.6190  -18.0210   39.6110 O.2   136  HIS136     -0.2718
     69  CB        19.4760  -19.2940   42.2840 C.3   136  HIS136      0.0759
     70  CG        19.6060  -17.9360   42.9160 C.ar  136  HIS136      0.0818
     71  ND1       18.5380  -17.2920   43.5040 N.ar  136  HIS136     -0.2268
     72  CD2       20.6690  -17.1060   43.0600 C.ar  136  HIS136      0.1154
     73  CE1       18.9350  -16.1230   43.9780 C.ar  136  HIS136      0.1986
     74  NE2       20.2240  -15.9860   43.7220 N.ar  136  HIS136     -0.2212
     75  N         21.8190  -17.8830   40.0760 N.am  137  GLY137     -0.1957
     76  CA        22.0450  -16.7740   39.1720 C.3   137  GLY137      0.1869
     77  C         22.9210  -17.1700   37.9960 C.2   137  GLY137      0.2309
     78  O         23.4580  -16.3010   37.3100 O.2   137  GLY137     -0.2863
     79  N         17.4450   -6.1810   36.3090 N.3   176  ASP176     -0.1239
     80  CA        18.6380   -6.2340   37.1580 C.3   176  ASP176      0.1674
     81  C         19.6020   -7.2680   36.5730 C.2   176  ASP176      0.2266
     82  O         19.7190   -8.3810   37.0800 O.2   176  ASP176     -0.2867
     83  CB        18.2980   -6.6210   38.5970 C.3   176  ASP176      0.1410
     84  CG        19.4700   -6.3840   39.5490 C.2   176  ASP176      0.3668
     85  OD1       20.5980   -6.1720   39.0610 O.co2 176  ASP176     -0.2456
     86  OD2       19.2720   -6.4090   40.7800 O.co2 176  ASP176     -0.2456
     87  N         23.5390   -8.2590   35.4310 N.3   178  ASP178     -0.1239
     88  CA        24.9320   -7.9510   35.7590 C.3   178  ASP178      0.1674
     89  C         25.7260   -7.5790   34.5030 C.2   178  ASP178      0.2266
     90  O         25.3670   -7.9840   33.3990 O.2   178  ASP178     -0.2867
     91  CB        25.5920   -9.1460   36.4680 C.3   178  ASP178      0.1410
     92  CG        25.0100   -9.4060   37.8570 C.2   178  ASP178      0.3668
     93  OD1       24.5790   -8.4340   38.5130 O.co2 178  ASP178     -0.2456
     94  OD2       24.9970  -10.5740   38.3030 O.co2 178  ASP178     -0.2456
     95  N         26.5670  -10.5060   32.3780 N.3   181  GLU181     -0.1245
     96  CA        25.3580  -11.0910   31.8230 C.3   181  GLU181      0.1567
     97  C         24.8590  -10.2920   30.6220 C.2   181  GLU181      0.2260
     98  O         24.3510  -10.8670   29.6630 O.2   181  GLU181     -0.2867
     99  CB        24.2630  -11.1430   32.8770 C.3   181  GLU181      0.0388
    100  CG        24.4850  -12.1750   33.9500 C.3   181  GLU181      0.1160
    101  CD        23.3080  -12.2540   34.8940 C.2   181  GLU181      0.3649
    102  OE1       23.1040  -11.2980   35.6690 O.co2 181  GLU181     -0.2457
    103  OE2       22.5780  -13.2640   34.8470 O.co2 181  GLU181     -0.2457
    104  N          9.9950  -17.1020   37.2810 N.3   227  ASP227     -0.1239
    105  CA        10.5840  -16.6810   38.5460 C.3   227  ASP227      0.1674
    106  C          9.6260  -15.6190   39.0800 C.2   227  ASP227      0.2266
    107  O          9.4120  -14.5970   38.4240 O.2   227  ASP227     -0.2867
    108  CB        11.9510  -16.0460   38.3230 C.3   227  ASP227      0.1410
    109  CG        12.6380  -15.6620   39.6240 C.2   227  ASP227      0.3668
    110  OD1       11.9480  -15.3740   40.6210 O.co2 227  ASP227     -0.2456
    111  OD2       13.8840  -15.6290   39.6490 O.co2 227  ASP227     -0.2456
    112  N         15.3150  -12.2450   45.8730 N.3   241  THR241     -0.1218
    113  CA        15.9200  -11.1220   45.1700 C.3   241  THR241      0.1862
    114  C         14.8680  -10.2930   44.4310 C.2   241  THR241      0.2287
    115  O         14.7150  -10.4000   43.2090 O.2   241  THR241     -0.2866
    116  CB        16.9970  -11.6130   44.1720 C.3   241  THR241      0.1770
    117  OG1       16.4280  -12.5820   43.2850 O.3   241  THR241     -0.2211
    118  CG2       18.1450  -12.2660   44.9150 C.3   241  THR241      0.0375
    119  N         11.3450  -19.4750   43.1120 N.3   272  GLU272     -0.1245
    120  CA        11.6760  -18.4270   44.0650 C.3   272  GLU272      0.1567
    121  C         10.6150  -17.9300   45.0470 C.2   272  GLU272      0.2260
    122  O         10.6960  -16.8050   45.5350 O.2   272  GLU272     -0.2867
    123  CB        12.2980  -17.2490   43.3170 C.3   272  GLU272      0.0388
    124  CG        13.5520  -17.6190   42.5110 C.3   272  GLU272      0.1160
    125  CD        14.7600  -17.9750   43.3840 C.2   272  GLU272      0.3649
    126  OE1       14.7000  -17.7500   44.6130 O.co2 272  GLU272     -0.2457
    127  OE2       15.7790  -18.4660   42.8390 O.co2 272  GLU272     -0.2457
@<TRIPOS>BOND
     1    98    97    2
     2    97    96    1
     3    96    95    1
     4    96    99    1
     5    99   100    1
     6    90    89    2
     7   100   101    1
     8    24    23    2
     9    89    88    1
    10    29    30    1
    11    14    13    2
    12    23    22    1
    13    31    30    1
    14    31    32    2
    15   103   101   ar
    16   101   102   ar
    17    13    12    1
    18    21    22    1
    19    30    33    1
    20    87    88    1
    21    22    25    1
    22    88    91    1
    23    25    26    1
    24    35    34    2
    25    12    11    1
    26    12    15    1
    27    79    80    1
    28    33    34    1
    29    91    92    1
    30    10     9   ar
    31    10     8   ar
    32    34    36   am
    33    81    82    2
    34    81    80    1
    35     9     7   ar
    36    26    28   ar
    37    26    27   ar
    38    80    83    1
    39   104   105    1
    40    78    77    2
    41    15    16    1
    42     8     6   ar
    43    37    38    1
    44     7     6   ar
    45    92    94   ar
    46    92    93   ar
    47    77    76    1
    48     6     5    1
    49   108   105    1
    50   108   109    1
    51     4     3    2
    52   107   106    2
    53   105   106    1
    54    83    84    1
    55    16    18   ar
    56    16    17   ar
    57    38    41    1
    58    38    39    1
    59    85    84   ar
    60    76    75    1
    61    18    20   ar
    62    17    19   ar
    63     5     2    1
    64    41    43    1
    65    41    42    1
    66    84    86   ar
    67     3     2    1
    68    68    67    2
    69   109   111   ar
    70   109   110   ar
    71    39    40    2
    72    39    44   am
    73    75    67   am
    74     2     1    1
    75    67    66    1
    76    50    48    1
    77    19    20   ar
    78    44    45    1
    79    66    65    1
    80    66    69    1
    81    49    48    1
    82    48    45    1
    83    45    46    1
    84    60    59    2
    85    69    70    1
    86   124   123    1
    87   124   125    1
    88    59    58    1
    89   127   125   ar
    90    70    72   ar
    91    70    71   ar
    92    46    51   am
    93    46    47    2
    94    72    74   ar
    95   119   120    1
    96    51    52    1
    97   115   114    2
    98   117   116    1
    99   123   120    1
   100   125   126   ar
   101    71    73   ar
   102    56    55    1
   103    74    73   ar
   104    57    58    1
   105    58    61    1
   106   120   121    1
   107   116   118    1
   108   116   113    1
   109    52    55    1
   110    52    53    1
   111   114   113    1
   112    61    62    1
   113    53    54    2
   114   121   122    2
   115   113   112    1
   116    62    64   am
   117    62    63    2
