@<TRIPOS>MOLECULE
tmp/3thmA00.pdb
 84 79 0 0 0
SMALL
GASTEIGER

@<TRIPOS>ATOM
      1  N        -14.6100   -6.3000   32.0370 N.3     1  GLN1       -0.1231
      2  CA       -13.9220   -5.8950   30.7770 C.3     1  GLN1        0.1698
      3  C        -13.3640   -7.1060   30.0480 C.2     1  GLN1        0.2593
      4  O        -13.2120   -8.1770   30.6300 O.2     1  GLN1       -0.2718
      5  CB       -12.7900   -4.9100   31.0770 C.3     1  GLN1        0.0381
      6  CG       -13.2610   -3.5880   31.6720 C.3     1  GLN1        0.0905
      7  CD       -12.1480   -2.5560   31.7730 C.2     1  GLN1        0.2608
      8  OE1      -10.9950   -2.8340   31.4410 O.2     1  GLN1       -0.2717
      9  NE2      -12.4930   -1.3570   32.2330 N.am    1  GLN1       -0.0878
     10  N        -13.0630   -6.9290   28.7670 N.am    2  SER2       -0.1938
     11  CA       -12.4740   -7.9860   27.9570 C.3     2  SER2        0.2055
     12  C        -11.0430   -8.2530   28.3940 C.2     2  SER2        0.2642
     13  O        -10.4020   -7.3920   29.0010 O.2     2  SER2       -0.2714
     14  CB       -12.4800   -7.5850   26.4860 C.3     2  SER2        0.2130
     15  OG       -11.6810   -8.4780   25.7170 O.3     2  SER2       -0.2179
     16  N        -10.5630   -9.4440   28.1350 N.am    3  VAL3       -0.1977
     17  CA        -9.1880   -9.7490   28.3290 C.3     3  VAL3        0.1596
     18  C         -8.3090   -9.0180   27.3240 C.2     3  VAL3        0.2287
     19  O         -7.1980   -8.8420   27.5870 O.2     3  VAL3       -0.2864
     20  CB        -8.8470  -11.2680   28.3380 C.3     3  VAL3        0.0276
     21  CG1       -9.6850  -12.0350   29.3420 C.3     3  VAL3        0.0022
     22  CG2       -8.9560  -11.8760   26.9830 C.3     3  VAL3        0.0022
     23  N         -7.5780   -5.4220   25.4680 N.3     5  THR5       -0.1218
     24  CA        -7.8560   -4.0160   25.7540 C.3     5  THR5        0.1862
     25  C         -7.6830   -3.1680   24.4930 C.2     5  THR5        0.2287
     26  O         -6.6090   -3.1650   23.8810 O.2     5  THR5       -0.2866
     27  CB        -6.9420   -3.5100   26.9010 C.3     5  THR5        0.1770
     28  OG1       -7.2220   -4.2660   28.0880 O.3     5  THR5       -0.2211
     29  CG2       -7.1590   -1.9960   27.1890 C.3     5  THR5        0.0375
     30  N         -2.9130   -7.4960   25.0540 N.3    24  GLY24      -0.1210
     31  CA        -3.2530   -8.6780   25.8220 C.3    24  GLY24       0.1956
     32  C         -2.0400   -9.1850   26.5730 C.2    24  GLY24       0.2612
     33  O         -1.2090   -8.4010   27.0380 O.2    24  GLY24      -0.2717
     34  N         -1.8970  -10.4680   26.6960 N.am   25  ASN25      -0.1960
     35  CA        -0.7420  -11.0760   27.3340 C.3    25  ASN25       0.1819
     36  C         -0.3910  -12.4020   26.6690 C.2    25  ASN25       0.2622
     37  O         -0.8230  -12.6600   25.6140 O.2    25  ASN25      -0.2715
     38  CB        -0.9600  -11.1540   28.8650 C.3    25  ASN25       0.1195
     39  CG        -2.1670  -11.9310   29.2360 C.2    25  ASN25       0.2630
     40  OD1       -2.5600  -12.7900   28.5450 O.2    25  ASN25      -0.2716
     41  ND2       -2.7530  -11.5770   30.3310 N.am   25  ASN25      -0.0877
     42  N          0.4300  -13.1920   27.3080 N.am   26  SER26      -0.1936
     43  CA         0.9450  -14.4090   26.7740 C.3    26  SER26       0.2055
     44  C         -0.0870  -15.5160   26.5430 C.2    26  SER26       0.2644
     45  O          0.1350  -16.3760   25.7660 O.2    26  SER26      -0.2714
     46  CB         2.0950  -14.9110   27.6490 C.3    26  SER26       0.2130
     47  OG         1.6980  -15.3450   28.9040 O.3    26  SER26      -0.2179
     48  N         -1.1970  -15.4480   27.2320 N.am   27  SER27      -0.1935
     49  CA        -2.2480  -16.4130   27.1110 C.3    27  SER27       0.2055
     50  C         -3.0940  -16.1900   25.8680 C.2    27  SER27       0.2643
     51  O         -3.8490  -17.0450   25.4790 O.2    27  SER27      -0.2714
     52  CB        -3.1580  -16.3540   28.3180 C.3    27  SER27       0.2130
     53  OG        -2.4350  -16.5730   29.4890 O.3    27  SER27      -0.2179
     54  N         -2.9870  -15.0180   25.2900 N.am   28  ASN28      -0.1971
     55  CA        -3.7740  -14.7480   24.0920 C.3    28  ASN28       0.1688
     56  C         -2.9240  -14.1850   22.9480 C.2    28  ASN28       0.2292
     57  O         -2.3320  -14.9550   22.1870 O.2    28  ASN28      -0.2864
     58  CB        -5.0010  -13.8730   24.4080 C.3    28  ASN28       0.1181
     59  CG        -4.6850  -12.7150   25.3640 C.2    28  ASN28       0.2629
     60  OD1       -3.9380  -11.8050   25.0170 O.2    28  ASN28      -0.2716
     61  ND2       -5.2810  -12.7380   26.5600 N.am   28  ASN28      -0.0877
     62  N         -7.7190  -17.3330   23.6210 N.3    93  ASP93      -0.1239
     63  CA        -7.0650  -17.2540   24.9170 C.3    93  ASP93       0.1674
     64  C         -7.0090  -18.6730   25.4910 C.2    93  ASP93       0.2266
     65  O         -8.0510  -19.3130   25.6480 O.2    93  ASP93      -0.2867
     66  CB        -7.8440  -16.3110   25.8280 C.3    93  ASP93       0.1410
     67  CG        -7.1880  -16.1440   27.1900 C.2    93  ASP93       0.3668
     68  OD1       -6.6960  -15.0340   27.4850 O.co2  93  ASP93      -0.2456
     69  OD2       -7.1580  -17.1310   27.9580 O.co2  93  ASP93      -0.2456
     70  N         -6.0020  -19.7840   28.3910 N.3    95  THR95      -0.1203
     71  CA        -6.2930  -19.9510   29.8050 C.3    95  THR95       0.1994
     72  C         -7.7990  -20.1320   29.9460 C.2    95  THR95       0.2617
     73  O         -8.2690  -21.0310   30.6400 O.2    95  THR95      -0.2717
     74  CB        -5.8110  -18.7340   30.6320 C.3    95  THR95       0.1784
     75  OG1       -4.3800  -18.7230   30.6670 O.3    95  THR95      -0.2211
     76  CG2       -6.3420  -18.7990   32.0570 C.3    95  THR95       0.0376
     77  N         -8.5540  -19.2780   29.2670 N.am   96  LEU96      -0.1979
     78  CA        -9.9990  -19.4380   29.1910 C.3    96  LEU96       0.1596
     79  C        -10.3680  -20.5560   28.2090 C.2    96  LEU96       0.2287
     80  O        -11.4590  -21.1190   28.2860 O.2    96  LEU96      -0.2864
     81  CB       -10.6520  -18.1370   28.7420 C.3    96  LEU96       0.0297
     82  CG       -10.3090  -16.8890   29.5650 C.3    96  LEU96       0.0022
     83  CD1      -11.0160  -15.6600   28.9980 C.3    96  LEU96       0.0001
     84  CD2      -10.6720  -17.0880   31.0350 C.3    96  LEU96       0.0001
@<TRIPOS>BOND
     1    57    56    2
     2    56    55    1
     3    62    63    1
     4    26    25    2
     5    55    58    1
     6    55    54    1
     7    58    59    1
     8    25    24    1
     9    63    64    1
    10    63    66    1
    11    60    59    2
    12    30    31    1
    13    54    50   am
    14    59    61   am
    15    23    24    1
    16    51    50    2
    17    64    65    2
    18    37    36    2
    19    15    14    1
    20    24    27    1
    21    45    44    2
    22    31    32    1
    23    66    67    1
    24    50    49    1
    25    14    11    1
    26    44    43    1
    27    44    48   am
    28    32    34   am
    29    32    33    2
    30    36    42   am
    31    36    35    1
    32    34    35    1
    33    43    42    1
    34    43    46    1
    35    27    29    1
    36    27    28    1
    37    22    20    1
    38    49    48    1
    39    49    52    1
    40    67    68   ar
    41    67    69   ar
    42    18    19    2
    43    18    17    1
    44    35    38    1
    45    46    47    1
    46    11    12    1
    47    11    10    1
    48    16    17    1
    49    16    12   am
    50    79    80    2
    51    79    78    1
    52    52    53    1
    53    17    20    1
    54    20    21    1
    55    70    71    1
    56    12    13    2
    57    40    39    2
    58    81    78    1
    59    81    82    1
    60    10     3   am
    61    38    39    1
    62    83    82    1
    63    78    77    1
    64    39    41   am
    65    77    72   am
    66    82    84    1
    67    71    72    1
    68    71    74    1
    69    72    73    2
    70     3     4    2
    71     3     2    1
    72    74    75    1
    73    74    76    1
    74     2     5    1
    75     2     1    1
    76     5     6    1
    77     8     7    2
    78     6     7    1
    79     7     9   am
