@<TRIPOS>MOLECULE
tmp/3thoA00.pdb
 128 123 0 0 0
SMALL
GASTEIGER

@<TRIPOS>ATOM
      1  N        -35.8550  -21.4790   25.3210 N.3    14  LEU14      -0.1231
      2  CA       -36.1820  -20.2000   25.9540 C.3    14  LEU14       0.1693
      3  C        -37.4760  -20.2990   26.7600 C.2    14  LEU14       0.2592
      4  O        -37.5450  -21.0600   27.7320 O.2    14  LEU14      -0.2718
      5  CB       -36.2420  -19.0620   24.9260 C.3    14  LEU14       0.0284
      6  CG       -34.8580  -18.7100   24.3490 C.3    14  LEU14       0.0019
      7  CD1      -34.9540  -17.5600   23.3090 C.3    14  LEU14       0.0001
      8  CD2      -33.8870  -18.3340   25.4720 C.3    14  LEU14       0.0001
      9  N        -38.4980  -19.5400   26.3560 N.am   15  GLY15      -0.1957
     10  CA       -39.7790  -19.5170   27.0530 C.3    15  GLY15       0.1869
     11  C        -40.8160  -20.4340   26.4120 C.2    15  GLY15       0.2309
     12  O        -41.9580  -20.5030   26.8610 O.2    15  GLY15      -0.2863
     13  N        -46.9350  -10.6920   27.4360 N.3    34  ASN34      -0.1225
     14  CA       -45.4960  -10.6060   27.6540 C.3    34  ASN34       0.1785
     15  C        -44.9360  -11.9200   28.1870 C.2    34  ASN34       0.2598
     16  O        -45.5820  -12.5720   29.0130 O.2    34  ASN34      -0.2718
     17  CB       -45.1540   -9.5030   28.6610 C.3    34  ASN34       0.1169
     18  CG       -45.5400   -8.1180   28.1700 C.2    34  ASN34       0.2627
     19  OD1      -45.4950   -7.8320   26.9650 O.2    34  ASN34      -0.2716
     20  ND2      -45.9200   -7.2470   29.1010 N.am   34  ASN34      -0.0877
     21  N        -43.7410  -12.3030   27.7250 N.am   35  GLY35      -0.1942
     22  CA       -43.0810  -13.5030   28.2110 C.3    35  GLY35       0.2014
     23  C        -43.8180  -14.7750   27.8260 C.2    35  GLY35       0.2639
     24  O        -43.5110  -15.8450   28.3450 O.2    35  GLY35      -0.2714
     25  N        -44.7990  -14.6690   26.9370 N.am   36  ALA36      -0.1963
     26  CA       -45.4880  -15.8520   26.4650 C.3    36  ALA36       0.1728
     27  C        -44.5750  -16.7260   25.5810 C.2    36  ALA36       0.2617
     28  O        -44.7430  -17.9500   25.5120 O.2    36  ALA36      -0.2715
     29  CB       -46.7560  -15.4670   25.7140 C.3    36  ALA36       0.0334
     30  N        -43.6090  -16.1060   24.9060 N.am   37  GLY37      -0.1940
     31  CA       -42.6600  -16.8750   24.1160 C.3    37  GLY37       0.2014
     32  C        -42.7310  -16.5240   22.6440 C.2    37  GLY37       0.2639
     33  O        -42.2330  -17.2670   21.7830 O.2    37  GLY37      -0.2714
     34  N        -43.3610  -15.3860   22.3580 N.am   38  LYS38      -0.1963
     35  CA       -43.4810  -14.8860   20.9950 C.3    38  LYS38       0.1728
     36  C        -42.0930  -14.6640   20.3770 C.2    38  LYS38       0.2617
     37  O        -41.7220  -15.2570   19.3570 O.2    38  LYS38      -0.2715
     38  CB       -44.2640  -13.5850   21.0200 C.3    38  LYS38       0.0311
     39  CG       -45.7540  -13.7430   20.7610 C.3    38  LYS38       0.0038
     40  CD       -46.5980  -12.9670   21.7670 C.3    38  LYS38       0.0206
     41  CE       -45.9850  -11.6250   22.1120 C.3    38  LYS38       0.1093
     42  NZ       -46.0080  -11.3940   23.5990 N.3    38  LYS38      -0.1314
     43  N        -41.2980  -13.8260   21.0190 N.am   39  SER39      -0.1936
     44  CA       -39.9330  -13.6370   20.5470 C.3    39  SER39       0.2055
     45  C        -39.1200  -14.9400   20.5060 C.2    39  SER39       0.2643
     46  O        -38.2710  -15.1150   19.6250 O.2    39  SER39      -0.2714
     47  CB       -39.2170  -12.5720   21.3820 C.3    39  SER39       0.2130
     48  OG       -39.3500  -11.3120   20.7700 O.3    39  SER39      -0.2179
     49  N        -39.3740  -15.8340   21.4620 N.am   40  SER40      -0.1949
     50  CA       -38.6620  -17.1080   21.5490 C.3    40  SER40       0.1924
     51  C        -38.7900  -17.8600   20.2420 C.2    40  SER40       0.2314
     52  O        -37.8400  -18.4550   19.7480 O.2    40  SER40      -0.2863
     53  CB       -39.2340  -17.9590   22.6850 C.3    40  SER40       0.2116
     54  OG       -39.0270  -17.3200   23.9300 O.3    40  SER40      -0.2180
     55  N        -30.0310  -13.2160   21.8250 N.3    55  ARG55      -0.1231
     56  CA       -30.2600  -12.8410   23.2160 C.3    55  ARG55       0.1694
     57  C        -29.2380  -13.3720   24.2430 C.2    55  ARG55       0.2592
     58  O        -28.9990  -12.7360   25.2670 O.2    55  ARG55      -0.2718
     59  CB       -31.6790  -13.3420   23.5440 C.3    55  ARG55       0.0321
     60  CG       -32.1640  -13.1920   24.9570 C.3    55  ARG55       0.0489
     61  CD       -33.3530  -14.1270   25.1720 C.3    55  ARG55       0.2205
     62  NE       -34.4550  -13.9320   24.2100 N.pl3  55  ARG55      -0.0865
     63  CZ       -35.7310  -13.7250   24.5560 C.cat  55  ARG55       0.5346
     64  NH1      -36.0720  -13.6820   25.8410 N.pl3  55  ARG55       0.1354
     65  NH2      -36.6760  -13.5770   23.6270 N.pl3  55  ARG55       0.1354
     66  N        -28.6760  -14.5520   23.9880 N.am   56  TYR56      -0.1976
     67  CA       -27.5790  -15.0800   24.7960 C.3    56  TYR56       0.1639
     68  C        -26.3590  -15.3820   23.9090 C.2    56  TYR56       0.2290
     69  O        -26.5010  -15.5630   22.7000 O.2    56  TYR56      -0.2864
     70  CB       -27.9920  -16.3690   25.5240 C.3    56  TYR56       0.0560
     71  CG       -29.1120  -16.2500   26.5440 C.ar   56  TYR56      -0.0198
     72  CD1      -28.9330  -15.5340   27.7300 C.ar   56  TYR56      -0.0009
     73  CD2      -30.3350  -16.8940   26.3420 C.ar   56  TYR56      -0.0009
     74  CE1      -29.9480  -15.4410   28.6810 C.ar   56  TYR56       0.0417
     75  CE2      -31.3630  -16.8130   27.2930 C.ar   56  TYR56       0.0417
     76  CZ       -31.1610  -16.0790   28.4570 C.ar   56  TYR56       0.1957
     77  OH       -32.1660  -15.9820   29.4010 O.3    56  TYR56      -0.2866
     78  N        -27.5520  -21.4300   27.3400 N.3    61  ASP61      -0.1239
     79  CA       -28.4280  -20.4270   27.9050 C.3    61  ASP61       0.1674
     80  C        -29.8370  -20.5360   27.3110 C.2    61  ASP61       0.2266
     81  O        -30.8180  -20.2100   27.9730 O.2    61  ASP61      -0.2867
     82  CB       -27.8180  -19.0370   27.7240 C.3    61  ASP61       0.1410
     83  CG       -26.4780  -18.9120   28.4430 C.2    61  ASP61       0.3668
     84  OD1      -26.3190  -19.6090   29.4760 O.co2  61  ASP61      -0.2456
     85  OD2      -25.5890  -18.1570   27.9780 O.co2  61  ASP61      -0.2456
     86  N        -31.5120  -23.1910   26.6860 N.3    63  VAL63      -0.1231
     87  CA       -32.3270  -24.2870   27.2100 C.3    63  VAL63       0.1692
     88  C        -33.3830  -23.7360   28.1560 C.2    63  VAL63       0.2592
     89  O        -33.0720  -22.9050   29.0330 O.2    63  VAL63      -0.2718
     90  CB       -31.4890  -25.3670   27.9600 C.3    63  VAL63       0.0266
     91  CG1      -32.4120  -26.2920   28.7440 C.3    63  VAL63       0.0020
     92  CG2      -30.6530  -26.1680   26.9840 C.3    63  VAL63       0.0020
     93  N        -34.6290  -24.1740   27.9800 N.am   64  ASN64      -0.1960
     94  CA       -35.6880  -23.7700   28.8950 C.3    64  ASN64       0.1819
     95  C        -35.4240  -24.2680   30.3330 C.2    64  ASN64       0.2621
     96  O        -35.6930  -25.4400   30.6900 O.2    64  ASN64      -0.2715
     97  CB       -37.0440  -24.2740   28.4150 C.3    64  ASN64       0.1195
     98  CG       -38.1760  -23.7240   29.2390 C.2    64  ASN64       0.2630
     99  OD1      -37.9830  -23.3340   30.4130 O.2    64  ASN64      -0.2716
    100  ND2      -39.3730  -23.6790   28.6400 N.am   64  ASN64      -0.0877
    101  N        -34.9050  -23.3590   31.1550 N.am   65  ARG65      -0.1963
    102  CA       -34.5640  -23.6510   32.5360 C.3    65  ARG65       0.1729
    103  C        -35.7900  -24.0200   33.3710 C.2    65  ARG65       0.2616
    104  O        -35.6430  -24.4720   34.5120 O.2    65  ARG65      -0.2715
    105  CB       -33.8680  -22.4430   33.1650 C.3    65  ARG65       0.0348
    106  CG       -32.7530  -21.9020   32.3210 C.3    65  ARG65       0.0492
    107  CD       -31.6220  -22.9140   32.1900 C.3    65  ARG65       0.2205
    108  NE       -31.1320  -23.3040   33.5100 N.pl3  65  ARG65      -0.0865
    109  CZ       -30.2960  -22.5760   34.2500 C.cat  65  ARG65       0.5346
    110  NH1      -29.9160  -23.0060   35.4520 N.pl3  65  ARG65       0.1354
    111  NH2      -29.8440  -21.4130   33.7970 N.pl3  65  ARG65       0.1354
    112  N        -36.9880  -23.8070   32.8240 N.am   66  ASN66      -0.1972
    113  CA       -38.2170  -24.1180   33.5590 C.3    66  ASN66       0.1688
    114  C        -38.8590  -25.4270   33.0900 C.2    66  ASN66       0.2292
    115  O        -40.0490  -25.6690   33.3310 O.2    66  ASN66      -0.2864
    116  CB       -39.2350  -22.9660   33.5160 C.3    66  ASN66       0.1181
    117  CG       -38.7530  -21.7250   34.2670 C.2    66  ASN66       0.2629
    118  OD1      -38.1480  -21.8280   35.3340 O.2    66  ASN66      -0.2716
    119  ND2      -39.0240  -20.5420   33.7060 N.am   66  ASN66      -0.0877
    120  N        -41.9740   -7.6600   17.2020 N.3   305  GLU305     -0.1245
    121  CA       -42.3730   -6.6000   18.1470 C.3   305  GLU305      0.1567
    122  C        -41.8890   -5.1750   17.7750 C.2   305  GLU305      0.2260
    123  O        -41.5970   -4.3570   18.6580 O.2   305  GLU305     -0.2867
    124  CB       -42.0190   -6.9750   19.6150 C.3   305  GLU305      0.0388
    125  CG       -41.7690   -8.4840   19.8500 C.3   305  GLU305      0.1160
    126  CD       -42.1990   -9.0070   21.2350 C.2   305  GLU305      0.3649
    127  OE1      -41.4720   -9.8360   21.8570 O.co2 305  GLU305     -0.2457
    128  OE2      -43.2900   -8.5970   21.6980 O.co2 305  GLU305     -0.2457
@<TRIPOS>BOND
     1   120   121    1
     2   122   121    1
     3   122   123    2
     4   121   124    1
     5    37    36    2
     6   124   125    1
     7    46    45    2
     8    52    51    2
     9   125   126    1
    10    51    50    1
    11    36    35    1
    12    36    43   am
    13    45    44    1
    14    45    49   am
    15    44    43    1
    16    44    47    1
    17    39    38    1
    18    39    40    1
    19    48    47    1
    20    35    38    1
    21    35    34    1
    22   126   128   ar
    23   126   127   ar
    24    49    50    1
    25    50    53    1
    26    40    41    1
    27    33    32    2
    28    55    56    1
    29    41    42    1
    30    34    32   am
    31    32    31    1
    32    53    54    1
    33    69    68    2
    34    56    59    1
    35    56    57    1
    36     7     6    1
    37    59    60    1
    38    65    63    1
    39    68    67    1
    40    66    57   am
    41    66    67    1
    42    31    30    1
    43    62    63    2
    44    62    61    1
    45    57    58    2
    46     6     5    1
    47     6     8    1
    48    63    64    1
    49    67    70    1
    50    30    27   am
    51     5     2    1
    52    60    61    1
    53     1     2    1
    54    28    27    2
    55    70    71    1
    56    27    26    1
    57    29    26    1
    58     2     3    1
    59    73    71   ar
    60    73    75   ar
    61     9     3   am
    62     9    10    1
    63    11    12    2
    64    11    10    1
    65    26    25    1
    66    71    72   ar
    67    86    87    1
    68     3     4    2
    69    25    23   am
    70    19    18    2
    71    92    90    1
    72    87    90    1
    73    87    88    1
    74    75    76   ar
    75    80    79    1
    76    80    81    2
    77    78    79    1
    78    13    14    1
    79    14    15    1
    80    14    17    1
    81    82    79    1
    82    82    83    1
    83    21    15   am
    84    21    22    1
    85    72    74   ar
    86    23    22    1
    87    23    24    2
    88    90    91    1
    89    85    83   ar
    90    93    88   am
    91    93    94    1
    92    88    89    2
    93    18    17    1
    94    18    20   am
    95    15    16    2
    96    97    94    1
    97    97    98    1
    98    83    84   ar
    99    76    74   ar
   100    76    77    1
   101   100    98   am
   102    94    95    1
   103    98    99    2
   104    95    96    2
   105    95   101   am
   106   101   102    1
   107   107   106    1
   108   107   108    1
   109   106   105    1
   110   102   105    1
   111   102   103    1
   112   112   103   am
   113   112   113    1
   114   114   115    2
   115   114   113    1
   116   103   104    2
   117   108   109    2
   118   116   113    1
   119   116   117    1
   120   119   117   am
   121   111   109    1
   122   109   110    1
   123   117   118    2
