@<TRIPOS>MOLECULE
tmp/3thrC02.pdb
 85 77 0 0 0
SMALL
GASTEIGER

@<TRIPOS>ATOM
      1  N         11.2670  -17.4890   53.7250 N.3   145  ASP145     -0.1225
      2  CA         9.9250  -17.8650   54.0560 C.3   145  ASP145      0.1805
      3  C          9.1500  -17.6920   52.7450 C.2   145  ASP145      0.2598
      4  O          8.6130  -16.6360   52.4810 O.2   145  ASP145     -0.2718
      5  CB         9.3940  -16.9790   55.1880 C.3   145  ASP145      0.1424
      6  CG         7.9900  -17.3020   55.5830 C.2   145  ASP145      0.3668
      7  OD1        7.5330  -18.4240   55.2640 O.co2 145  ASP145     -0.2456
      8  OD2        7.3370  -16.3770   56.1870 O.co2 145  ASP145     -0.2456
      9  N          9.1610  -18.7370   51.9140 N.am  146  SER146     -0.1952
     10  CA         8.4250  -18.7510   50.6560 C.3   146  SER146      0.1924
     11  C          6.9400  -18.8780   50.8940 C.2   146  SER146      0.2314
     12  O          6.1890  -18.3380   50.1520 O.2   146  SER146     -0.2863
     13  CB         8.8590  -19.9390   49.8450 C.3   146  SER146      0.2116
     14  OG        10.2890  -20.0330   49.8930 O.3   146  SER146     -0.2180
     15  N         19.3640   -4.0240   51.2300 N.3   205  SER205     -0.1217
     16  CA        17.9700   -3.7510   50.9050 C.3   205  SER205      0.1889
     17  C         17.1190   -4.5680   51.8170 C.2   205  SER205      0.2288
     18  O         17.4060   -5.7860   51.9870 O.2   205  SER205     -0.2866
     19  CB        17.6310   -4.1050   49.4520 C.3   205  SER205      0.2089
     20  OG        18.5000   -3.4870   48.5570 O.3   205  SER205     -0.2183
     21  N         13.2300   -5.7630   52.5860 N.3   207  LEU207     -0.1245
     22  CA        11.8120   -5.8160   52.1600 C.3   207  LEU207      0.1561
     23  C         10.8570   -6.0890   53.3270 C.2   207  LEU207      0.2260
     24  O         11.0370   -7.0340   54.0640 O.2   207  LEU207     -0.2867
     25  CB        11.6840   -6.8840   51.0800 C.3   207  LEU207      0.0270
     26  CG        10.3620   -6.9660   50.3400 C.3   207  LEU207      0.0019
     27  CD1       10.0460   -5.6690   49.5950 C.3   207  LEU207      0.0001
     28  CD2       10.5290   -8.1320   49.4200 C.3   207  LEU207      0.0001
     29  N          6.8040   -6.5990   54.2800 N.3   209  VAL209     -0.1245
     30  CA         5.5310   -6.9280   53.6640 C.3   209  VAL209      0.1561
     31  C          4.4180   -6.7880   54.7360 C.2   209  VAL209      0.2260
     32  O          4.4620   -7.3800   55.8170 O.2   209  VAL209     -0.2867
     33  CB         5.6010   -8.3380   53.0530 C.3   209  VAL209      0.0252
     34  CG1        4.3210   -8.7060   52.3800 C.3   209  VAL209      0.0019
     35  CG2        6.8330   -8.5180   51.9890 C.3   209  VAL209      0.0019
     36  N         10.7280   -9.2840   55.8590 N.3   214  HIS214     -0.1226
     37  CA        10.6250  -10.5150   55.0820 C.3   214  HIS214      0.1752
     38  C         11.9230  -10.9520   54.4530 C.2   214  HIS214      0.2595
     39  O         12.1420  -12.1730   54.2950 O.2   214  HIS214     -0.2718
     40  CB         9.6180  -10.2960   53.9700 C.3   214  HIS214      0.0759
     41  CG         9.2460  -11.5400   53.2310 C.ar  214  HIS214      0.0818
     42  ND1        8.6050  -12.5950   53.8420 N.ar  214  HIS214     -0.2268
     43  CD2        9.4400  -11.9100   51.9460 C.ar  214  HIS214      0.1154
     44  CE1        8.3640  -13.5350   52.9500 C.ar  214  HIS214      0.1986
     45  NE2        8.8430  -13.1360   51.7870 N.ar  214  HIS214     -0.2212
     46  N         12.7640  -10.0040   54.0250 N.am  215  MET215     -0.1979
     47  CA        14.0480  -10.3610   53.3170 C.3   215  MET215      0.1605
     48  C         15.0460   -9.2320   53.4650 C.2   215  MET215      0.2287
     49  O         14.6760   -8.0430   53.4200 O.2   215  MET215     -0.2864
     50  CB        13.8120  -10.5940   51.8040 C.3   215  MET215      0.0413
     51  CG        15.0160  -11.1350   51.0720 C.3   215  MET215      0.0598
     52  SD        14.6430  -11.6160   49.3970 S.3   215  MET215     -0.1393
     53  CE        14.0800  -13.2910   49.6690 C.3   215  MET215      0.0692
     54  N         18.4300   -8.3340   51.5230 N.3   217  THR217     -0.1218
     55  CA        19.1580   -8.6330   50.3250 C.3   217  THR217      0.1862
     56  C         20.3890   -7.7810   50.2950 C.2   217  THR217      0.2287
     57  O         20.2920   -6.5590   50.4120 O.2   217  THR217     -0.2866
     58  CB        18.3170   -8.4000   49.0890 C.3   217  THR217      0.1770
     59  OG1       17.2560   -9.3590   49.0510 O.3   217  THR217     -0.2211
     60  CG2       19.1670   -8.5100   47.7840 C.3   217  THR217      0.0375
     61  N         23.8320   -6.6710   48.2260 N.3   219  ASP219     -0.1239
     62  CA        24.6480   -6.4980   47.0100 C.3   219  ASP219      0.1674
     63  C         26.1030   -6.1710   47.3810 C.2   219  ASP219      0.2266
     64  O         26.3740   -5.1580   48.0210 O.2   219  ASP219     -0.2867
     65  CB        24.0240   -5.3640   46.1980 C.3   219  ASP219      0.1410
     66  CG        22.7500   -5.7880   45.5670 C.2   219  ASP219      0.3668
     67  OD1       22.7910   -6.8440   44.9120 O.co2 219  ASP219     -0.2456
     68  OD2       21.7120   -5.1210   45.7450 O.co2 219  ASP219     -0.2456
     69  N         24.9370  -10.8840   44.6120 N.3   231  ARG231     -0.1245
     70  CA        23.8420  -10.6520   45.4950 C.3   231  ARG231      0.1563
     71  C         23.5290  -11.9810   46.1670 C.2   231  ARG231      0.2260
     72  O         23.6000  -13.0050   45.5050 O.2   231  ARG231     -0.2867
     73  CB        22.6410  -10.1850   44.6760 C.3   231  ARG231      0.0307
     74  CG        21.3230  -10.2290   45.4930 C.3   231  ARG231      0.0489
     75  CD        20.1440   -9.7210   44.6580 C.3   231  ARG231      0.2205
     76  NE        20.2160   -8.2880   44.5550 N.pl3 231  ARG231     -0.0865
     77  CZ        19.1720   -7.4690   44.3810 C.cat 231  ARG231      0.5346
     78  NH1       17.9290   -7.9240   44.1630 N.pl3 231  ARG231      0.1354
     79  NH2       19.4010   -6.1730   44.4000 N.pl3 231  ARG231      0.1354
     80  N         20.6510  -13.2910   49.6050 N.3   233  SER233     -0.1217
     81  CA        19.5130  -12.8290   50.4640 C.3   233  SER233      0.1889
     82  C         19.3540  -13.7240   51.7280 C.2   233  SER233      0.2288
     83  O         19.8370  -14.8550   51.7290 O.2   233  SER233     -0.2866
     84  CB        18.2160  -12.8030   49.6920 C.3   233  SER233      0.2089
     85  OG        18.1570  -11.7330   48.7680 O.3   233  SER233     -0.2183
@<TRIPOS>BOND
     1    78    77    1
     2    77    79    1
     3    77    76    2
     4    76    75    1
     5    69    70    1
     6    75    74    1
     7    73    74    1
     8    73    70    1
     9    67    66   ar
    10    70    71    1
    11    72    71    2
    12    66    68   ar
    13    66    65    1
    14    65    62    1
    15    62    63    1
    16    62    61    1
    17    63    64    2
    18    60    58    1
    19    20    19    1
    20    85    84    1
    21    59    58    1
    22    58    55    1
    23    52    53    1
    24    52    51    1
    25    28    26    1
    26    19    16    1
    27    27    26    1
    28    80    81    1
    29    84    81    1
    30    13    14    1
    31    13    10    1
    32    12    11    2
    33    56    55    1
    34    56    57    2
    35    55    54    1
    36    26    25    1
    37    81    82    1
    38    10    11    1
    39    10     9    1
    40    16    15    1
    41    16    17    1
    42    51    50    1
    43    25    22    1
    44    82    83    2
    45    45    43   ar
    46    45    44   ar
    47    50    47    1
    48    17    18    2
    49     9     3   am
    50    43    41   ar
    51    35    33    1
    52    22    21    1
    53    22    23    1
    54    34    33    1
    55     4     3    2
    56     3     2    1
    57    44    42   ar
    58    33    30    1
    59    41    42   ar
    60    41    40    1
    61    47    48    1
    62    47    46    1
    63    23    24    2
    64    49    48    2
    65    30    29    1
    66    30    31    1
    67     1     2    1
    68    40    37    1
    69    46    38   am
    70     2     5    1
    71    39    38    2
    72    38    37    1
    73    31    32    2
    74    37    36    1
    75     5     6    1
    76     7     6   ar
    77     6     8   ar
