@<TRIPOS>MOLECULE
tmp/3thrC00.pdb
 70 67 0 0 0
SMALL
GASTEIGER

@<TRIPOS>ATOM
      1  N         30.5100  -37.4630   68.6450 N.3    59  ARG59      -0.1245
      2  CA        29.8910  -37.5700   67.3520 C.3    59  ARG59       0.1563
      3  C         29.1350  -36.3020   67.0350 C.2    59  ARG59       0.2260
      4  O         28.1360  -35.9380   67.7370 O.2    59  ARG59      -0.2867
      5  CB        28.9920  -38.8310   67.2770 C.3    59  ARG59       0.0307
      6  CG        29.8280  -40.0880   67.1530 C.3    59  ARG59       0.0489
      7  CD        29.0210  -41.3850   67.4050 C.3    59  ARG59       0.2205
      8  NE        29.8400  -42.5170   67.0460 N.pl3  59  ARG59      -0.0865
      9  CZ        29.7520  -43.7210   67.5500 C.cat  59  ARG59       0.5346
     10  NH1       28.8940  -44.0070   68.5050 N.pl3  59  ARG59       0.1354
     11  NH2       30.5640  -44.6590   67.0860 N.pl3  59  ARG59       0.1354
     12  N         34.5160  -37.0930   65.6770 N.3    80  SER80      -0.1217
     13  CA        33.9000  -37.8910   64.6300 C.3    80  SER80       0.1889
     14  C         32.8210  -37.0390   63.9510 C.2    80  SER80       0.2288
     15  O         31.7910  -36.7350   64.5700 O.2    80  SER80      -0.2866
     16  CB        33.2780  -39.1520   65.2110 C.3    80  SER80       0.2089
     17  OG        32.0920  -39.4350   64.5170 O.3    80  SER80      -0.2183
     18  N         30.3200  -35.8190   60.7850 N.3    82  THR82      -0.1218
     19  CA        29.4290  -35.9910   59.6820 C.3    82  THR82       0.1862
     20  C         28.9880  -34.5680   59.2610 C.2    82  THR82       0.2287
     21  O         28.5660  -33.7940   60.1050 O.2    82  THR82      -0.2866
     22  CB        28.1840  -36.8510   60.0910 C.3    82  THR82       0.1770
     23  OG1       28.6030  -38.1160   60.6000 O.3    82  THR82      -0.2211
     24  CG2       27.1850  -37.0560   58.8730 C.3    82  THR82       0.0375
     25  N         32.8520  -37.8760   57.1270 N.3   111  VAL111     -0.1245
     26  CA        31.6780  -38.2520   56.3230 C.3   111  VAL111      0.1561
     27  C         31.0610  -36.9590   55.8440 C.2   111  VAL111      0.2260
     28  O         30.6980  -36.1240   56.6700 O.2   111  VAL111     -0.2867
     29  CB        30.6540  -39.0460   57.1370 C.3   111  VAL111      0.0252
     30  CG1       29.4220  -39.4890   56.2870 C.3   111  VAL111      0.0019
     31  CG2       31.2930  -40.2830   57.7470 C.3   111  VAL111      0.0019
     32  N         20.9940  -40.6630   57.9350 N.3   125  PRO125     -0.2102
     33  CA        20.6420  -41.6830   58.9900 C.3   125  PRO125      0.1504
     34  C         21.2530  -41.2260   60.3440 C.2   125  PRO125      0.2576
     35  O         22.4260  -40.8040   60.3650 O.2   125  PRO125     -0.2718
     36  CB        21.2770  -42.9840   58.4790 C.3   125  PRO125      0.0282
     37  CG        22.1170  -42.5680   57.1750 C.3   125  PRO125      0.0208
     38  CD        22.1240  -41.0450   57.0880 C.3   125  PRO125      0.0893
     39  N         20.4620  -41.2560   61.4110 N.am  126  ALA126     -0.1966
     40  CA        20.8340  -40.6420   62.6960 C.3   126  ALA126      0.1728
     41  C         21.2340  -41.6290   63.7870 C.2   126  ALA126      0.2617
     42  O         21.5730  -41.1790   64.8900 O.2   126  ALA126     -0.2715
     43  CB        19.6470  -39.8170   63.2440 C.3   126  ALA126      0.0334
     44  N         21.1330  -42.9330   63.5100 N.am  127  GLY127     -0.1940
     45  CA        21.3230  -44.0050   64.5290 C.3   127  GLY127      0.2014
     46  C         20.5630  -43.5740   65.7670 C.2   127  GLY127      0.2639
     47  O         19.4090  -43.2640   65.6720 O.2   127  GLY127     -0.2714
     48  N         21.2400  -43.4740   66.9130 N.am  128  ASP128     -0.1957
     49  CA        20.6180  -43.1070   68.1770 C.3   128  ASP128      0.1840
     50  C         20.7370  -41.5950   68.3990 C.2   128  ASP128      0.2623
     51  O         20.3900  -41.1040   69.4590 O.2   128  ASP128     -0.2715
     52  CB        21.2650  -43.8800   69.3840 C.3   128  ASP128      0.1450
     53  CG        21.0750  -45.4240   69.3280 C.2   128  ASP128      0.3671
     54  OD1       20.0510  -45.9080   68.7630 O.co2 128  ASP128     -0.2456
     55  OD2       21.9410  -46.1650   69.9220 O.co2 128  ASP128     -0.2456
     56  N         21.2380  -40.8670   67.3940 N.am  129  GLY129     -0.1940
     57  CA        21.3230  -39.4490   67.4300 C.3   129  GLY129      0.2014
     58  C         22.7650  -39.0160   67.6620 C.2   129  GLY129      0.2638
     59  O         23.6150  -39.7450   68.1990 O.2   129  GLY129     -0.2714
     60  N         23.0440  -37.8040   67.2700 N.am  130  PHE130     -0.1973
     61  CA        24.3880  -37.2600   67.4410 C.3   130  PHE130      0.1639
     62  C         24.5520  -36.5900   68.8180 C.2   130  PHE130      0.2290
     63  O         23.5970  -36.0960   69.4630 O.2   130  PHE130     -0.2864
     64  CB        24.6450  -36.2390   66.3320 C.3   130  PHE130      0.0560
     65  CG        24.8050  -36.8320   64.9820 C.ar  130  PHE130     -0.0200
     66  CD1       23.7070  -37.0580   64.1470 C.ar  130  PHE130     -0.0042
     67  CD2       26.0710  -37.1180   64.5190 C.ar  130  PHE130     -0.0042
     68  CE1       23.8980  -37.6270   62.8580 C.ar  130  PHE130     -0.0003
     69  CE2       26.2670  -37.6660   63.2350 C.ar  130  PHE130     -0.0003
     70  CZ        25.1600  -37.8960   62.4030 C.ar  130  PHE130     -0.0000
@<TRIPOS>BOND
     1    27    26    1
     2    27    28    2
     3    30    29    1
     4    26    25    1
     5    26    29    1
     6    38    37    1
     7    38    32    1
     8    29    31    1
     9    37    36    1
    10    32    33    1
    11    36    33    1
    12    24    22    1
    13    33    34    1
    14    20    19    1
    15    20    21    2
    16    19    22    1
    17    19    18    1
    18    22    23    1
    19    34    35    2
    20    34    39   am
    21    39    40    1
    22    70    68   ar
    23    70    69   ar
    24    40    43    1
    25    40    41    1
    26    68    66   ar
    27    69    67   ar
    28    44    41   am
    29    44    45    1
    30    41    42    2
    31    14    15    2
    32    14    13    1
    33    66    65   ar
    34    17    16    1
    35    67    65   ar
    36    45    46    1
    37    13    16    1
    38    13    12    1
    39    65    64    1
    40    47    46    2
    41    46    48   am
    42    64    61    1
    43    48    49    1
    44     3     2    1
    45     3     4    2
    46     8     7    1
    47     8     9    2
    48    11     9    1
    49     6     5    1
    50     6     7    1
    51    60    61    1
    52    60    58   am
    53     5     2    1
    54     2     1    1
    55    56    57    1
    56    56    50   am
    57    57    58    1
    58    61    62    1
    59     9    10    1
    60    58    59    2
    61    49    50    1
    62    49    52    1
    63    50    51    2
    64    54    53   ar
    65    62    63    2
    66    53    52    1
    67    53    55   ar
