@<TRIPOS>MOLECULE
tmp/3thsB00.pdb
 155 150 0 0 0
SMALL
GASTEIGER

@<TRIPOS>ATOM
      1  N        -34.6570   28.0510    8.8850 N.3    30  TRP30      -0.1241
      2  CA       -34.1190   26.7040    8.6880 C.3    30  TRP30       0.1605
      3  C        -35.1610   25.6920    8.1890 C.2    30  TRP30       0.2264
      4  O        -34.8420   24.8620    7.3800 O.2    30  TRP30      -0.2867
      5  CB       -33.4730   26.2070    9.9900 C.3    30  TRP30       0.0550
      6  CG       -33.0640   24.7950    9.9160 C.ar   30  TRP30       0.0003
      7  CD1      -31.9800   24.3150    9.2940 C.ar   30  TRP30       0.0946
      8  CD2      -33.7670   23.6780   10.4370 C.ar   30  TRP30       0.0152
      9  NE1      -31.9410   22.9480    9.3910 N.ar   30  TRP30      -0.2442
     10  CE2      -33.0350   22.5300   10.0940 C.ar   30  TRP30       0.0810
     11  CE3      -34.9270   23.5390   11.1760 C.ar   30  TRP30       0.0012
     12  CZ2      -33.4330   21.2310   10.4620 C.ar   30  TRP30       0.0191
     13  CZ3      -35.3450   22.2640   11.5400 C.ar   30  TRP30       0.0001
     14  CH2      -34.5830   21.1190   11.1880 C.ar   30  TRP30       0.0015
     15  N        -35.5360   25.8340    4.5420 N.3    33  TYR33      -0.1227
     16  CA       -34.4310   25.2460    3.8210 C.3    33  TYR33       0.1736
     17  C        -34.5960   23.7560    3.7940 C.2    33  TYR33       0.2595
     18  O        -34.4740   23.1620    2.7420 O.2    33  TYR33      -0.2718
     19  CB       -33.1120   25.6610    4.4550 C.3    33  TYR33       0.0548
     20  CG       -31.8880   24.7920    4.1530 C.ar   33  TYR33      -0.0200
     21  CD1      -31.2520   24.8440    2.9260 C.ar   33  TYR33      -0.0009
     22  CD2      -31.3100   24.0190    5.1500 C.ar   33  TYR33      -0.0009
     23  CE1      -30.0670   24.1270    2.6810 C.ar   33  TYR33       0.0417
     24  CE2      -30.1520   23.2900    4.9160 C.ar   33  TYR33       0.0417
     25  CZ       -29.5340   23.3230    3.6660 C.ar   33  TYR33       0.1957
     26  OH       -28.3840   22.5620    3.4730 O.3    33  TYR33      -0.2866
     27  N        -34.8950   23.1280    4.9290 N.am   34  ILE34      -0.1980
     28  CA       -35.0360   21.6690    4.8820 C.3    34  ILE34       0.1595
     29  C        -36.2400   21.3210    4.0130 C.2    34  ILE34       0.2287
     30  O        -36.3030   20.2050    3.4590 O.2    34  ILE34      -0.2864
     31  CB       -35.0940   20.9700    6.2970 C.3    34  ILE34       0.0276
     32  CG1      -36.4270   21.2040    6.9980 C.3    34  ILE34       0.0022
     33  CG2      -33.9350   21.4140    7.2110 C.3    34  ILE34       0.0022
     34  CD1      -36.6090   20.3020    8.2640 C.3    34  ILE34       0.0001
     35  N        -37.3980   20.7930   -1.1460 N.3    37  THR37      -0.1218
     36  CA       -37.1310   19.5270   -1.8090 C.3    37  THR37       0.1862
     37  C        -38.2710   19.0680   -2.7310 C.2    37  THR37       0.2287
     38  O        -38.4350   17.8540   -2.9940 O.2    37  THR37      -0.2866
     39  CB       -36.9250   18.4560   -0.7600 C.3    37  THR37       0.1770
     40  OG1      -38.0610   18.4800    0.1160 O.3    37  THR37      -0.2211
     41  CG2      -35.6240   18.6770    0.0460 C.3    37  THR37       0.0375
     42  N        -36.1130   14.3790    6.2820 N.3    67  THR67      -0.1218
     43  CA       -37.5170   14.5600    6.0150 C.3    67  THR67       0.1862
     44  C        -38.1510   13.4420    5.1770 C.2    67  THR67       0.2287
     45  O        -39.3560   13.4990    4.9080 O.2    67  THR67      -0.2866
     46  CB       -37.8120   15.9360    5.3250 C.3    67  THR67       0.1770
     47  OG1      -37.2720   15.9230    4.0200 O.3    67  THR67      -0.2211
     48  CG2      -37.2250   17.0420    6.0750 C.3    67  THR67       0.0375
     49  N        -37.2710   12.3280    1.9940 N.3    69  VAL69      -0.1245
     50  CA       -37.4920   12.5500    0.5630 C.3    69  VAL69       0.1561
     51  C        -36.7290   11.5670   -0.2480 C.2    69  VAL69       0.2260
     52  O        -37.2240   11.0730   -1.2530 O.2    69  VAL69      -0.2867
     53  CB       -37.2700   14.0280    0.1010 C.3    69  VAL69       0.0252
     54  CG1      -38.5560   14.8780    0.4330 C.3    69  VAL69       0.0019
     55  CG2      -35.9780   14.6780    0.7140 C.3    69  VAL69       0.0019
     56  N        -36.3400   16.1930   12.3980 N.3    90  MET90      -0.1245
     57  CA       -36.4560   15.9260   10.9580 C.3    90  MET90       0.1570
     58  C        -37.2620   14.6880   10.6350 C.2    90  MET90       0.2261
     59  O        -38.0370   14.6220    9.6700 O.2    90  MET90      -0.2867
     60  CB       -35.0560   15.8240   10.3660 C.3    90  MET90       0.0387
     61  CG       -34.3400   17.1850   10.4500 C.3    90  MET90       0.0595
     62  SD       -32.8810   17.2260    9.4500 S.3    90  MET90      -0.1393
     63  CE       -33.5520   17.2750    7.7930 C.3    90  MET90       0.0692
     64  N        -26.9780   13.1650    0.1190 N.3   137  GLY137     -0.1210
     65  CA       -27.2340   14.5290    0.5200 C.3   137  GLY137      0.1956
     66  C        -26.0970   15.2340    1.3050 C.2   137  GLY137      0.2612
     67  O        -26.2740   16.3670    1.7450 O.2   137  GLY137     -0.2717
     68  N        -24.9320   14.5980    1.4610 N.am  138  ASN138     -0.1960
     69  CA       -23.8340   15.2070    2.2640 C.3   138  ASN138      0.1819
     70  C        -24.1420   15.1210    3.7670 C.2   138  ASN138      0.2622
     71  O        -23.6450   15.8960    4.5730 O.2   138  ASN138     -0.2715
     72  CB       -23.5700   16.6710    1.8730 C.3   138  ASN138      0.1195
     73  CG       -22.3140   17.2250    2.5140 C.2   138  ASN138      0.2630
     74  OD1      -21.3290   16.5120    2.6400 O.2   138  ASN138     -0.2716
     75  ND2      -22.3350   18.5160    2.9190 N.am  138  ASN138     -0.0877
     76  N        -24.9460   14.1520    4.1470 N.am  139  SER139     -0.1950
     77  CA       -25.3360   14.0110    5.5300 C.3   139  SER139      0.1924
     78  C        -24.2090   13.5570    6.4480 C.2   139  SER139      0.2314
     79  O        -24.1610   13.9630    7.6180 O.2   139  SER139     -0.2863
     80  CB       -26.4960   13.0190    5.6400 C.3   139  SER139      0.2116
     81  OG       -27.7070   13.6640    5.2610 O.3   139  SER139     -0.2180
     82  N        -22.2190   15.9790    8.4840 N.3   142  HIS142     -0.1241
     83  CA       -22.7580   16.6190    9.6930 C.3   142  HIS142      0.1621
     84  C        -22.1420   16.1250   11.0060 C.2   142  HIS142      0.2264
     85  O        -22.2980   16.7770   12.0480 O.2   142  HIS142     -0.2867
     86  CB       -24.2340   16.4080    9.8200 C.3   142  HIS142      0.0745
     87  CG       -25.0350   16.8620    8.6430 C.ar  142  HIS142      0.0817
     88  ND1      -26.3050   16.4040    8.4100 N.ar  142  HIS142     -0.2268
     89  CD2      -24.7520   17.7130    7.6290 C.ar  142  HIS142      0.1154
     90  CE1      -26.7760   16.9610    7.3080 C.ar  142  HIS142      0.1986
     91  NE2      -25.8530   17.7660    6.8200 N.ar  142  HIS142     -0.2212
     92  N        -27.2030   22.0910   -5.0070 N.3   191  ASN191     -0.1240
     93  CA       -27.7610   20.7610   -4.7010 C.3   191  ASN191      0.1653
     94  C        -28.1210   20.0050   -6.0130 C.2   191  ASN191      0.2266
     95  O        -28.9210   20.4920   -6.8220 O.2   191  ASN191     -0.2867
     96  CB       -28.9870   20.9270   -3.7770 C.3   191  ASN191      0.1155
     97  CG       -29.3520   19.6720   -3.0210 C.2   191  ASN191      0.2627
     98  OD1      -29.5290   18.5820   -3.5930 O.2   191  ASN191     -0.2716
     99  ND2      -29.5450   19.8380   -1.7270 N.am  191  ASN191     -0.0877
    100  N        -29.3640   16.9020   -6.1460 N.3   193  TYR193     -0.1227
    101  CA       -30.4930   16.0090   -5.8640 C.3   193  TYR193      0.1736
    102  C        -31.8460   16.7060   -5.9790 C.2   193  TYR193      0.2595
    103  O        -32.8090   16.1220   -6.4730 O.2   193  TYR193     -0.2718
    104  CB       -30.3230   15.4410   -4.4390 C.3   193  TYR193      0.0548
    105  CG       -28.9710   14.7900   -4.2510 C.ar  193  TYR193     -0.0200
    106  CD1      -27.9320   15.4280   -3.5870 C.ar  193  TYR193     -0.0009
    107  CD2      -28.7260   13.5210   -4.8020 C.ar  193  TYR193     -0.0009
    108  CE1      -26.6850   14.7930   -3.4610 C.ar  193  TYR193      0.0417
    109  CE2      -27.5380   12.9060   -4.6600 C.ar  193  TYR193      0.0417
    110  CZ       -26.5110   13.5230   -4.0110 C.ar  193  TYR193      0.1957
    111  OH       -25.3340   12.8040   -3.9880 O.3   193  TYR193     -0.2866
    112  N        -31.9170   17.9380   -5.4600 N.am  194  TYR194     -0.1976
    113  CA       -33.1730   18.6720   -5.3850 C.3   194  TYR194      0.1639
    114  C        -32.9140   20.1260   -5.7920 C.2   194  TYR194      0.2290
    115  O        -32.2600   20.8640   -5.0750 O.2   194  TYR194     -0.2864
    116  CB       -33.7860   18.5850   -3.9630 C.3   194  TYR194      0.0560
    117  CG       -34.1020   17.1890   -3.4920 C.ar  194  TYR194     -0.0198
    118  CD1      -35.2620   16.5310   -3.9180 C.ar  194  TYR194     -0.0009
    119  CD2      -33.2080   16.4910   -2.6620 C.ar  194  TYR194     -0.0009
    120  CE1      -35.5230   15.2080   -3.5280 C.ar  194  TYR194      0.0417
    121  CE2      -33.4570   15.2010   -2.2590 C.ar  194  TYR194      0.0417
    122  CZ       -34.6110   14.5570   -2.6940 C.ar  194  TYR194      0.1957
    123  OH       -34.8270   13.2670   -2.2890 O.3   194  TYR194     -0.2866
    124  N        -25.3860   26.2930   10.2180 N.3   233  LEU233     -0.1245
    125  CA       -25.0960   24.9120   10.3630 C.3   233  LEU233      0.1561
    126  C        -23.6150   24.6650   10.1190 C.2   233  LEU233      0.2260
    127  O        -23.0100   25.3340    9.3000 O.2   233  LEU233     -0.2867
    128  CB       -25.8620   24.1400    9.3180 C.3   233  LEU233      0.0270
    129  CG       -27.3550   24.2380    9.3040 C.3   233  LEU233      0.0019
    130  CD1      -27.8480   24.0020    7.8580 C.3   233  LEU233      0.0001
    131  CD2      -27.9100   23.2730   10.3360 C.3   233  LEU233      0.0001
    132  N        -20.2240   21.6530    9.4400 N.3   235  TYR235     -0.1241
    133  CA       -19.9540   20.4680    8.6200 C.3   235  TYR235      0.1605
    134  C        -18.5160   20.0650    8.7600 C.2   235  TYR235      0.2264
    135  O        -17.7140   20.9000    9.0930 O.2   235  TYR235     -0.2867
    136  CB       -20.1770   20.8090    7.1410 C.3   235  TYR235      0.0534
    137  CG       -21.5360   21.3830    6.8170 C.ar  235  TYR235     -0.0201
    138  CD1      -21.7960   22.7150    6.9820 C.ar  235  TYR235     -0.0009
    139  CD2      -22.5440   20.5870    6.2880 C.ar  235  TYR235     -0.0009
    140  CE1      -23.0580   23.2550    6.6270 C.ar  235  TYR235      0.0417
    141  CE2      -23.7690   21.0950    5.9600 C.ar  235  TYR235      0.0417
    142  CZ       -24.0280   22.4180    6.1320 C.ar  235  TYR235      0.1957
    143  OH       -25.2310   22.9550    5.8010 O.3   235  TYR235     -0.2866
    144  N        -20.4050   17.3650   -5.8720 N.3   276  TYR276     -0.1241
    145  CA       -20.5360   16.2610   -4.9380 C.3   276  TYR276      0.1605
    146  C        -19.7130   15.1190   -5.4280 C.2   276  TYR276      0.2264
    147  O        -19.5730   14.9560   -6.6280 O.2   276  TYR276     -0.2867
    148  CB       -21.9910   15.8090   -4.8240 C.3   276  TYR276      0.0534
    149  CG       -22.8580   16.8290   -4.1680 C.ar  276  TYR276     -0.0201
    150  CD1      -23.2720   17.9730   -4.8590 C.ar  276  TYR276     -0.0009
    151  CD2      -23.2570   16.6740   -2.8680 C.ar  276  TYR276     -0.0009
    152  CE1      -24.0390   18.9150   -4.2690 C.ar  276  TYR276      0.0417
    153  CE2      -24.0140   17.6180   -2.2550 C.ar  276  TYR276      0.0417
    154  CZ       -24.4100   18.7410   -2.9520 C.ar  276  TYR276      0.1957
    155  OH       -25.1620   19.6720   -2.2850 O.3   276  TYR276     -0.2866
@<TRIPOS>BOND
     1    95    94    2
     2   147   146    2
     3   103   102    2
     4   100   101    1
     5    94    93    1
     6   102   101    1
     7   102   112   am
     8   144   145    1
     9   101   104    1
    10   114   113    1
    11   114   115    2
    12   112   113    1
    13   146   145    1
    14   113   116    1
    15    92    93    1
    16   145   148    1
    17   150   152   ar
    18   150   149   ar
    19   148   149    1
    20   107   109   ar
    21   107   105   ar
    22    93    96    1
    23   109   110   ar
    24   104   105    1
    25   152   154   ar
    26   105   106   ar
    27   149   151   ar
    28   110   111    1
    29   110   108   ar
    30   116   117    1
    31   118   120   ar
    32   118   117   ar
    33    96    97    1
    34    98    97    2
    35   106   108   ar
    36   120   122   ar
    37   117   119   ar
    38    97    99   am
    39    38    37    2
    40   154   155    1
    41   154   153   ar
    42   151   153   ar
    43    37    36    1
    44   122   123    1
    45   122   121   ar
    46   119   121   ar
    47    36    35    1
    48    36    39    1
    49    52    51    2
    50    39    41    1
    51    39    40    1
    52    51    50    1
    53    53    54    1
    54    53    50    1
    55    53    55    1
    56    64    65    1
    57    65    66    1
    58    50    49    1
    59    66    68   am
    60    66    67    2
    61    68    69    1
    62    72    69    1
    63    72    73    1
    64    69    70    1
    65    73    74    2
    66    73    75   am
    67    23    21   ar
    68    23    25   ar
    69    18    17    2
    70    21    20   ar
    71    30    29    2
    72    26    25    1
    73    25    24   ar
    74    70    76   am
    75    70    71    2
    76    17    16    1
    77    17    27   am
    78    16    19    1
    79    16    15    1
    80    29    28    1
    81    47    46    1
    82    76    77    1
    83    20    19    1
    84    20    22   ar
    85    28    27    1
    86    28    31    1
    87    45    44    2
    88    24    22   ar
    89    44    43    1
    90    81    80    1
    91    46    43    1
    92    46    48    1
    93    77    80    1
    94    77    78    1
    95   143   142    1
    96   141   142   ar
    97   141   139   ar
    98    43    42    1
    99   142   140   ar
   100   139   137   ar
   101    31    32    1
   102    31    33    1
   103    78    79    2
   104   140   138   ar
   105   137   138   ar
   106   137   136    1
   107    91    90   ar
   108    91    89   ar
   109    32    34    1
   110   136   133    1
   111    90    88   ar
   112     4     3    2
   113    89    87   ar
   114    63    62    1
   115   130   129    1
   116     3     2    1
   117    88    87   ar
   118    82    83    1
   119   133   134    1
   120   133   132    1
   121    87    86    1
   122     2     1    1
   123     2     5    1
   124   134   135    2
   125     7     9   ar
   126     7     6   ar
   127   127   126    2
   128   129   128    1
   129   129   131    1
   130   128   125    1
   131     9    10   ar
   132    62    61    1
   133    59    58    2
   134    83    86    1
   135    83    84    1
   136     6     5    1
   137     6     8   ar
   138    10     8   ar
   139    10    12   ar
   140   126   125    1
   141   124   125    1
   142    60    61    1
   143    60    57    1
   144     8    11   ar
   145    12    14   ar
   146    58    57    1
   147    57    56    1
   148    84    85    2
   149    11    13   ar
   150    14    13   ar
