@<TRIPOS>MOLECULE
tmp/3thtB00.pdb
 163 147 0 0 0
SMALL
GASTEIGER

@<TRIPOS>ATOM
      1  N        -62.9870  -15.2150   88.2650 N.3   132  ARG132     -0.1245
      2  CA       -63.1290  -16.5220   87.6390 C.3   132  ARG132      0.1563
      3  C        -63.2660  -17.5870   88.7020 C.2   132  ARG132      0.2260
      4  O        -62.4740  -17.6310   89.6420 O.2   132  ARG132     -0.2867
      5  CB       -61.9050  -16.8340   86.7820 C.3   132  ARG132      0.0307
      6  CG       -60.6020  -16.8780   87.5590 C.3   132  ARG132      0.0489
      7  CD       -59.4520  -17.3100   86.6680 C.3   132  ARG132      0.2205
      8  NE       -58.2590  -17.7460   87.4130 N.pl3 132  ARG132     -0.0865
      9  CZ       -57.5080  -16.9640   88.1810 C.cat 132  ARG132      0.5346
     10  NH1      -57.8100  -15.6750   88.3330 N.pl3 132  ARG132      0.1354
     11  NH2      -56.4450  -17.4770   88.7830 N.pl3 132  ARG132      0.1354
     12  N        -53.4440  -18.8850   95.3640 N.3   142  ASN142     -0.1240
     13  CA       -53.2390  -20.3130   95.1730 C.3   142  ASN142      0.1653
     14  C        -52.3760  -20.9130   96.2890 C.2   142  ASN142      0.2266
     15  O        -51.8290  -20.1830   97.1170 O.2   142  ASN142     -0.2867
     16  CB       -52.5960  -20.5750   93.8080 C.3   142  ASN142      0.1155
     17  CG       -53.5210  -20.3100   92.6460 C.2   142  ASN142      0.2627
     18  OD1      -54.7690  -20.3050   92.8040 O.2   142  ASN142     -0.2716
     19  ND2      -52.9680  -20.0770   91.4790 N.am  142  ASN142     -0.0877
     20  N        -56.1420  -28.4930   87.7990 N.3   178  THR178     -0.1218
     21  CA       -56.9110  -27.3250   88.2400 C.3   178  THR178      0.1862
     22  C        -57.8650  -26.9130   87.1600 C.2   178  THR178      0.2287
     23  O        -57.5450  -26.9900   85.9830 O.2   178  THR178     -0.2866
     24  CB       -56.0340  -26.0910   88.5220 C.3   178  THR178      0.1770
     25  OG1      -55.0120  -26.4130   89.4770 O.3   178  THR178     -0.2211
     26  CG2      -56.9020  -24.9590   89.0800 C.3   178  THR178      0.0375
     27  N        -60.4710  -23.8550   85.6540 N.3   180  ASN180     -0.1240
     28  CA       -60.7450  -22.4280   85.6240 C.3   180  ASN180      0.1653
     29  C        -61.9770  -22.1490   84.7860 C.2   180  ASN180      0.2266
     30  O        -62.1150  -22.7010   83.7030 O.2   180  ASN180     -0.2867
     31  CB       -59.5760  -21.6740   85.0150 C.3   180  ASN180      0.1155
     32  CG       -58.2970  -21.8970   85.7580 C.2   180  ASN180      0.2627
     33  OD1      -57.9910  -21.1840   86.7160 O.2   180  ASN180     -0.2716
     34  ND2      -57.5340  -22.9100   85.3320 N.am  180  ASN180     -0.0877
     35  N        -63.8210  -19.0670   83.0410 N.3   182  TYR182     -0.1241
     36  CA       -63.7000  -17.6800   82.5990 C.3   182  TYR182      0.1605
     37  C        -64.9710  -17.2160   81.8800 C.2   182  TYR182      0.2264
     38  O        -65.3400  -17.7740   80.8410 O.2   182  TYR182     -0.2867
     39  CB       -62.5180  -17.5180   81.6330 C.3   182  TYR182      0.0534
     40  CG       -61.1670  -17.8940   82.1900 C.ar  182  TYR182     -0.0201
     41  CD1      -60.6880  -19.1900   82.0760 C.ar  182  TYR182     -0.0009
     42  CD2      -60.3770  -16.9530   82.8530 C.ar  182  TYR182     -0.0009
     43  CE1      -59.4620  -19.5520   82.6060 C.ar  182  TYR182      0.0417
     44  CE2      -59.1400  -17.3050   83.3970 C.ar  182  TYR182      0.0417
     45  CZ       -58.6900  -18.6180   83.2690 C.ar  182  TYR182      0.1957
     46  OH       -57.4870  -19.0070   83.8300 O.3   182  TYR182     -0.2866
     47  N        -56.8600  -13.9790   83.5420 N.3   188  ILE188     -0.1245
     48  CA       -55.9560  -14.3450   84.6180 C.3   188  ILE188      0.1561
     49  C        -54.6650  -13.5400   84.5260 C.2   188  ILE188      0.2260
     50  O        -54.0040  -13.5040   83.4850 O.2   188  ILE188     -0.2867
     51  CB       -55.6490  -15.8260   84.5820 C.3   188  ILE188      0.0252
     52  CG1      -54.9310  -16.2080   85.8620 C.3   188  ILE188      0.0019
     53  CG2      -54.8460  -16.1580   83.3180 C.3   188  ILE188      0.0019
     54  CD1      -54.9760  -17.6790   86.1610 C.3   188  ILE188      0.0001
     55  N        -48.8990  -14.7360   85.1610 N.3   191  HIS191     -0.1241
     56  CA       -48.1420  -15.3220   86.2440 C.3   191  HIS191      0.1621
     57  C        -47.1890  -16.3120   85.6130 C.2   191  HIS191      0.2264
     58  O        -46.9280  -16.2720   84.4120 O.2   191  HIS191     -0.2867
     59  CB       -49.0850  -16.0600   87.1720 C.3   191  HIS191      0.0745
     60  CG       -49.7060  -17.2690   86.5480 C.ar  191  HIS191      0.0817
     61  ND1      -50.5760  -17.1930   85.4820 N.ar  191  HIS191     -0.2268
     62  CD2      -49.5630  -18.5870   86.8230 C.ar  191  HIS191      0.1154
     63  CE1      -50.9450  -18.4110   85.1300 C.ar  191  HIS191      0.1986
     64  NE2      -50.3440  -19.2760   85.9270 N.ar  191  HIS191     -0.2212
     65  N        -46.3810  -20.4670   86.7140 N.3   193  ASP193     -0.1239
     66  CA       -46.3940  -21.6180   87.6190 C.3   193  ASP193      0.1674
     67  C        -45.1380  -21.7860   88.4500 C.2   193  ASP193      0.2266
     68  O        -44.0400  -21.8500   87.9070 O.2   193  ASP193     -0.2867
     69  CB       -46.6290  -22.8890   86.8210 C.3   193  ASP193      0.1410
     70  CG       -48.0190  -22.9540   86.2370 C.2   193  ASP193      0.3668
     71  OD1      -48.6180  -21.8810   85.9940 O.co2 193  ASP193     -0.2456
     72  OD2      -48.5070  -24.0800   86.0050 O.co2 193  ASP193     -0.2456
     73  N        -52.7340  -27.7930   79.3980 N.3   204  SER204     -0.1217
     74  CA       -54.0080  -27.1280   79.6400 C.3   204  SER204      0.1889
     75  C        -55.0300  -27.4120   78.5300 C.2   204  SER204      0.2288
     76  O        -54.9240  -26.9210   77.4060 O.2   204  SER204     -0.2866
     77  CB       -53.7790  -25.6190   79.7830 C.3   204  SER204      0.2089
     78  OG       -54.4500  -25.0980   80.9300 O.3   204  SER204     -0.2183
     79  N        -54.2780  -16.5960   74.7410 N.3   213  MET213     -0.1245
     80  CA       -53.3960  -16.6190   75.8810 C.3   213  MET213      0.1570
     81  C        -52.1290  -15.8260   75.6290 C.2   213  MET213      0.2261
     82  O        -51.3370  -16.1520   74.7430 O.2   213  MET213     -0.2867
     83  CB       -53.0520  -18.0470   76.2340 C.3   213  MET213      0.0387
     84  CG       -52.0210  -18.1360   77.3160 C.3   213  MET213      0.0595
     85  SD       -52.2420  -19.6240   78.2350 S.3   213  MET213     -0.1393
     86  CE       -53.5220  -19.0840   79.3080 C.3   213  MET213      0.0692
     87  N        -55.9870  -20.1460   71.5320 N.3   227  LEU227     -0.1245
     88  CA       -56.3190  -21.4420   72.1020 C.3   227  LEU227      0.1561
     89  C        -57.7300  -21.8480   71.7500 C.2   227  LEU227      0.2260
     90  O        -58.6640  -21.5470   72.5000 O.2   227  LEU227     -0.2867
     91  CB       -56.2130  -21.4150   73.6150 C.3   227  LEU227      0.0270
     92  CG       -54.8230  -21.0700   74.1110 C.3   227  LEU227      0.0019
     93  CD1      -54.8070  -21.2570   75.6150 C.3   227  LEU227      0.0001
     94  CD2      -53.7790  -21.9340   73.4350 C.3   227  LEU227      0.0001
     95  N        -52.9010  -27.2750   75.4180 N.3   233  LEU233     -0.1245
     96  CA       -51.7010  -26.4260   75.4480 C.3   233  LEU233      0.1561
     97  C        -50.6310  -27.1790   76.2310 C.2   233  LEU233      0.2260
     98  O        -50.8340  -27.5310   77.3890 O.2   233  LEU233     -0.2867
     99  CB       -52.0040  -25.0930   76.1440 C.3   233  LEU233      0.0270
    100  CG       -50.8770  -24.0780   76.3740 C.3   233  LEU233      0.0019
    101  CD1      -50.3150  -23.6020   75.0450 C.3   233  LEU233      0.0001
    102  CD2      -51.4140  -22.9050   77.1760 C.3   233  LEU233      0.0001
    103  N        -47.0310  -26.9700   77.8300 N.3   235  MET235     -0.1245
    104  CA       -45.9170  -26.1290   78.2540 C.3   235  MET235      0.1570
    105  C        -44.7270  -26.8900   78.8120 C.2   235  MET235      0.2261
    106  O        -44.8490  -27.5620   79.8270 O.2   235  MET235     -0.2867
    107  CB       -46.3550  -25.1550   79.3390 C.3   235  MET235      0.0387
    108  CG       -47.0530  -23.9150   78.8840 C.3   235  MET235      0.0595
    109  SD       -47.4960  -23.0520   80.4170 S.3   235  MET235     -0.1393
    110  CE       -49.3420  -23.2460   80.4610 C.3   235  MET235      0.0692
    111  N        -47.4510  -16.5890   81.2520 N.3   245  HIS245     -0.1241
    112  CA       -48.7230  -16.7700   80.5590 C.3   245  HIS245      0.1621
    113  C        -49.8620  -16.0740   81.3190 C.2   245  HIS245      0.2264
    114  O        -49.8620  -16.0100   82.5540 O.2   245  HIS245     -0.2867
    115  CB       -49.0450  -18.2770   80.3480 C.3   245  HIS245      0.0745
    116  CG       -49.1110  -19.0980   81.6110 C.ar  245  HIS245      0.0817
    117  ND1      -47.9900  -19.5010   82.3060 N.ar  245  HIS245     -0.2268
    118  CD2      -50.1690  -19.6180   82.2780 C.ar  245  HIS245      0.1154
    119  CE1      -48.3550  -20.2320   83.3460 C.ar  245  HIS245      0.1986
    120  NE2      -49.6710  -20.3180   83.3510 N.ar  245  HIS245     -0.2212
    121  N        -54.2300  -14.1820   80.7910 N.3   247  ILE247     -0.1245
    122  CA       -55.4020  -13.9170   79.9850 C.3   247  ILE247      0.1561
    123  C        -55.9100  -12.5060   80.2720 C.2   247  ILE247      0.2260
    124  O        -56.3370  -12.1780   81.3910 O.2   247  ILE247     -0.2867
    125  CB       -56.5150  -14.9510   80.2500 C.3   247  ILE247      0.0252
    126  CG1      -55.9970  -16.3620   79.9280 C.3   247  ILE247      0.0019
    127  CG2      -57.7280  -14.6230   79.3930 C.3   247  ILE247      0.0019
    128  CD1      -56.9790  -17.4990   80.2100 C.3   247  ILE247      0.0001
    129  N        -65.6970  -20.0080   78.8840 N.3   278  ARG278     -0.1245
    130  CA       -64.6480  -20.9490   78.5700 C.3   278  ARG278      0.1563
    131  C        -64.0480  -21.5180   79.8420 C.2   278  ARG278      0.2260
    132  O        -63.5680  -20.7670   80.6750 O.2   278  ARG278     -0.2867
    133  CB       -63.5880  -20.1990   77.7650 C.3   278  ARG278      0.0307
    134  CG       -62.3050  -20.9310   77.4940 C.3   278  ARG278      0.0489
    135  CD       -61.1380  -20.3630   78.2800 C.3   278  ARG278      0.2205
    136  NE       -59.9140  -21.0890   77.9490 N.pl3 278  ARG278     -0.0865
    137  CZ       -58.8150  -21.1280   78.6970 C.cat 278  ARG278      0.5346
    138  NH1      -58.7600  -20.4730   79.8540 N.pl3 278  ARG278      0.1354
    139  NH2      -57.7650  -21.8330   78.2810 N.pl3 278  ARG278      0.1354
    140  N        -61.2820  -24.4270   81.5660 N.3   280  SER280     -0.1217
    141  CA       -60.0710  -25.1680   81.2210 C.3   280  SER280      0.1889
    142  C        -59.5780  -26.1400   82.2910 C.2   280  SER280      0.2288
    143  O        -59.7390  -25.9010   83.4900 O.2   280  SER280     -0.2866
    144  CB       -58.9380  -24.1950   80.9070 C.3   280  SER280      0.2089
    145  OG       -58.5730  -23.4440   82.0540 O.3   280  SER280     -0.2183
    146  N        -56.2630  -27.7920   83.7020 N.3   282  THR282     -0.1218
    147  CA       -54.8180  -27.7240   83.6860 C.3   282  THR282      0.1862
    148  C        -54.2690  -28.8730   84.5340 C.2   282  THR282      0.2287
    149  O        -54.5640  -28.9490   85.7260 O.2   282  THR282     -0.2866
    150  CB       -54.3640  -26.3520   84.2460 C.3   282  THR282      0.1770
    151  OG1      -55.0780  -25.3070   83.5650 O.3   282  THR282     -0.2211
    152  CG2      -52.8800  -26.1510   84.0540 C.3   282  THR282      0.0375
    153  N        -50.8570  -31.2920   85.8900 N.3   284  ARG284     -0.1245
    154  CA       -49.4300  -31.1490   86.1590 C.3   284  ARG284      0.1563
    155  C        -49.0230  -32.0360   87.3070 C.2   284  ARG284      0.2260
    156  O        -49.8570  -32.3850   88.1330 O.2   284  ARG284     -0.2867
    157  CB       -49.1040  -29.6960   86.4870 C.3   284  ARG284      0.0307
    158  CG       -50.0460  -29.0630   87.4760 C.3   284  ARG284      0.0489
    159  CD       -49.9970  -27.5430   87.3260 C.3   284  ARG284      0.2205
    160  NE       -51.0830  -26.8930   88.0630 N.pl3 284  ARG284     -0.0865
    161  CZ       -51.3680  -25.6000   88.0010 C.cat 284  ARG284      0.5346
    162  NH1      -50.6510  -24.8010   87.2350 N.pl3 284  ARG284      0.1354
    163  NH2      -52.3790  -25.1160   88.6970 N.pl3 284  ARG284      0.1354
@<TRIPOS>BOND
     1    87    88    1
     2    89    88    1
     3    89    90    2
     4    88    91    1
     5    94    92    1
     6    91    92    1
     7    92    93    1
     8    79    80    1
     9    82    81    2
    10   101   100    1
    11    95    96    1
    12    96    99    1
    13    96    97    1
    14    81    80    1
    15    80    83    1
    16    99   100    1
    17    97    98    2
    18    83    84    1
    19   100   102    1
    20    84    85    1
    21    76    75    2
    22   134   133    1
    23   134   135    1
    24   133   130    1
    25   103   104    1
    26   136   135    1
    27   136   137    2
    28    85    86    1
    29   104   105    1
    30   104   107    1
    31   139   137    1
    32    75    74    1
    33   130   129    1
    34   130   131    1
    35   137   138    1
    36   105   106    2
    37   108   107    1
    38   108   109    1
    39   127   125    1
    40    73    74    1
    41    74    77    1
    42    77    78    1
    43   131   132    2
    44   126   128    1
    45   126   125    1
    46   122   125    1
    47   122   123    1
    48   122   121    1
    49   123   124    2
    50   115   112    1
    51   115   116    1
    52   109   110    1
    53   112   111    1
    54   112   113    1
    55    38    37    2
    56   144   141    1
    57   144   145    1
    58   141   140    1
    59   141   142    1
    60   113   114    2
    61   116   118   ar
    62   116   117   ar
    63    39    40    1
    64    39    36    1
    65    37    36    1
    66    41    40   ar
    67    41    43   ar
    68    40    42   ar
    69   118   120   ar
    70   142   143    2
    71   117   119   ar
    72    36    35    1
    73    43    45   ar
    74    42    44   ar
    75    45    44   ar
    76    45    46    1
    77    53    51    1
    78   119   120   ar
    79    50    49    2
    80    47    48    1
    81   151   150    1
    82   147   146    1
    83   147   150    1
    84   147   148    1
    85    30    29    2
    86   152   150    1
    87    58    57    2
    88    49    48    1
    89   148   149    2
    90    51    48    1
    91    51    52    1
    92    29    28    1
    93    31    28    1
    94    31    32    1
    95    63    61   ar
    96    63    64   ar
    97    55    56    1
    98    34    32   am
    99    61    60   ar
   100    57    56    1
   101    28    27    1
   102    32    33    2
   103    52    54    1
   104   153   154    1
   105    64    62   ar
   106    23    22    2
   107    71    70   ar
   108    72    70   ar
   109   154   157    1
   110   154   155    1
   111    70    69    1
   112    56    59    1
   113   157   158    1
   114    60    62   ar
   115    60    59    1
   116     7     8    1
   117     7     6    1
   118    65    66    1
   119     5     6    1
   120     5     2    1
   121    69    66    1
   122    22    21    1
   123   162   161    1
   124   155   156    2
   125   159   158    1
   126   159   160    1
   127     8     9    2
   128    66    67    1
   129     2     1    1
   130     2     3    1
   131    20    21    1
   132    68    67    2
   133   161   160    2
   134   161   163    1
   135     9    10    1
   136     9    11    1
   137    21    24    1
   138    24    26    1
   139    24    25    1
   140     3     4    2
   141    19    17   am
   142    17    18    2
   143    17    16    1
   144    16    13    1
   145    13    12    1
   146    13    14    1
   147    14    15    2
