@<TRIPOS>MOLECULE
tmp/3ti0A00.pdb
 189 182 0 0 0
SMALL
GASTEIGER

@<TRIPOS>ATOM
      1  N        124.8920  -34.9280   30.8730 N.3   318  ARG318     -0.1245
      2  CA       124.7240  -35.2960   32.2680 C.3   318  ARG318      0.1563
      3  C        123.8790  -36.5690   32.3770 C.2   318  ARG318      0.2260
      4  O        123.1630  -36.9370   31.4420 O.2   318  ARG318     -0.2867
      5  CB       124.0470  -34.1700   33.0430 C.3   318  ARG318      0.0307
      6  CG       125.0050  -33.0580   33.4850 C.3   318  ARG318      0.0489
      7  CD       124.2950  -32.0420   34.3660 C.3   318  ARG318      0.2205
      8  NE       125.2180  -31.1100   35.0290 N.pl3 318  ARG318     -0.0865
      9  CZ       124.8650  -30.2820   36.0060 C.cat 318  ARG318      0.5346
     10  NH1      123.6120  -30.2610   36.4440 N.pl3 318  ARG318      0.1354
     11  NH2      125.7540  -29.4520   36.5330 N.pl3 318  ARG318      0.1354
     12  N        120.8000  -27.4150   51.1900 N.3   332  ARG332     -0.1245
     13  CA       121.0020  -25.9570   51.2700 C.3   332  ARG332      0.1563
     14  C        120.4700  -25.3150   52.5580 C.2   332  ARG332      0.2260
     15  O        121.0140  -24.3060   53.0190 O.2   332  ARG332     -0.2867
     16  CB       120.4040  -25.2650   50.0330 C.3   332  ARG332      0.0307
     17  CG       121.1600  -25.6210   48.7340 C.3   332  ARG332      0.0489
     18  CD       120.5700  -24.9620   47.4800 C.3   332  ARG332      0.2205
     19  NE       121.1180  -25.5520   46.2570 N.pl3 332  ARG332     -0.0865
     20  CZ       120.7310  -25.2330   45.0230 C.cat 332  ARG332      0.5346
     21  NH1      119.7960  -24.3090   44.8230 N.pl3 332  ARG332      0.1354
     22  NH2      121.2790  -25.8450   43.9820 N.pl3 332  ARG332      0.1354
     23  N        133.6640  -33.7850   45.9710 N.3   356  ASP356     -0.1225
     24  CA       133.0200  -32.7380   45.1570 C.3   356  ASP356      0.1805
     25  C        134.0860  -31.9720   44.3590 C.2   356  ASP356      0.2598
     26  O        135.0570  -31.4940   44.9360 O.2   356  ASP356     -0.2718
     27  CB       132.2770  -31.7690   46.0960 C.3   356  ASP356      0.1424
     28  CG       131.4180  -30.7440   45.3590 C.2   356  ASP356      0.3668
     29  OD1      131.6780  -30.4650   44.1710 O.co2 356  ASP356     -0.2456
     30  OD2      130.4740  -30.2050   45.9780 O.co2 356  ASP356     -0.2456
     31  N        133.9300  -31.8690   43.0400 N.am  357  TYR357     -0.1962
     32  CA       134.8310  -31.0300   42.2330 C.3   357  TYR357      0.1771
     33  C        134.6570  -29.5630   42.6100 C.2   357  TYR357      0.2620
     34  O        133.5460  -29.0950   42.7350 O.2   357  TYR357     -0.2715
     35  CB       134.5120  -31.1510   40.7480 C.3   357  TYR357      0.0574
     36  CG       135.1290  -32.3110   40.0220 C.ar  357  TYR357     -0.0198
     37  CD1      134.3370  -33.3290   39.5020 C.ar  357  TYR357     -0.0009
     38  CD2      136.5000  -32.3800   39.8220 C.ar  357  TYR357     -0.0009
     39  CE1      134.8880  -34.3810   38.8180 C.ar  357  TYR357      0.0417
     40  CE2      137.0640  -33.4280   39.1270 C.ar  357  TYR357      0.0417
     41  CZ       136.2520  -34.4310   38.6300 C.ar  357  TYR357      0.1957
     42  OH       136.7970  -35.4770   37.9360 O.3   357  TYR357     -0.2866
     43  N        135.7470  -28.8220   42.7610 N.am  358  SER358     -0.1936
     44  CA       135.6630  -27.4030   43.1030 C.3   358  SER358      0.2055
     45  C        135.4530  -26.5270   41.8690 C.2   358  SER358      0.2643
     46  O        136.1070  -26.7310   40.8500 O.2   358  SER358     -0.2714
     47  CB       136.9430  -26.9620   43.8240 C.3   358  SER358      0.2130
     48  OG       137.1050  -25.5570   43.7490 O.3   358  SER358     -0.2179
     49  N        134.5380  -25.5630   41.9800 N.am  359  GLN359     -0.1963
     50  CA       134.2990  -24.5550   40.9390 C.3   359  GLN359      0.1733
     51  C        134.4060  -25.1550   39.5560 C.2   359  GLN359      0.2616
     52  O        135.0590  -24.5990   38.6680 O.2   359  GLN359     -0.2715
     53  CB       135.3080  -23.4220   41.0720 C.3   359  GLN359      0.0408
     54  CG       135.3940  -22.8520   42.4610 C.3   359  GLN359      0.0908
     55  CD       136.5180  -21.8540   42.5800 C.2   359  GLN359      0.2608
     56  OE1      136.4420  -20.7550   42.0300 O.2   359  GLN359     -0.2717
     57  NE2      137.5800  -22.2390   43.2800 N.am  359  GLN359     -0.0878
     58  N        133.7450  -26.2870   39.3630 N.am  360  ILE360     -0.1963
     59  CA       134.0970  -27.1590   38.2610 C.3   360  ILE360      0.1727
     60  C        133.8990  -26.5620   36.8710 C.2   360  ILE360      0.2616
     61  O        134.7980  -26.6530   36.0350 O.2   360  ILE360     -0.2715
     62  CB       133.3810  -28.5140   38.3740 C.3   360  ILE360      0.0290
     63  CG1      133.8080  -29.4340   37.2290 C.3   360  ILE360      0.0022
     64  CG2      131.8770  -28.3040   38.4150 C.3   360  ILE360      0.0023
     65  CD1      135.3160  -29.6630   37.1560 C.3   360  ILE360      0.0001
     66  N        132.7480  -25.9570   36.5990 N.am  361  GLU361     -0.1977
     67  CA       132.5040  -25.4410   35.2570 C.3   361  GLU361      0.1602
     68  C        133.2850  -24.1410   34.9960 C.2   361  GLU361      0.2287
     69  O        133.5930  -23.8210   33.8460 O.2   361  GLU361     -0.2864
     70  CB       131.0040  -25.3050   34.9910 C.3   361  GLU361      0.0415
     71  CG       130.4020  -26.6660   34.6340 C.3   361  GLU361      0.1163
     72  CD       128.8950  -26.6590   34.4320 C.2   361  GLU361      0.3649
     73  OE1      128.3630  -25.7070   33.8350 O.co2 361  GLU361     -0.2457
     74  OE2      128.2480  -27.6390   34.8560 O.co2 361  GLU361     -0.2457
     75  N        133.9700  -18.0510   43.6200 N.3   385  HIS385     -0.1241
     76  CA       132.6390  -17.9570   44.2170 C.3   385  HIS385      0.1621
     77  C        132.6800  -17.0280   45.4390 C.2   385  HIS385      0.2264
     78  O        131.7900  -16.1930   45.6300 O.2   385  HIS385     -0.2867
     79  CB       132.1060  -19.3470   44.6040 C.3   385  HIS385      0.0745
     80  CG       131.8520  -20.2530   43.4350 C.ar  385  HIS385      0.0817
     81  ND1      131.4360  -19.7920   42.2040 N.ar  385  HIS385     -0.2268
     82  CD2      131.9560  -21.5970   43.3100 C.ar  385  HIS385      0.1154
     83  CE1      131.2990  -20.8090   41.3740 C.ar  385  HIS385      0.1986
     84  NE2      131.6070  -21.9180   42.0210 N.ar  385  HIS385     -0.2212
     85  N        128.0760  -17.4150   49.7240 N.3   405  ARG405     -0.1245
     86  CA       128.9340  -17.9830   48.6980 C.3   405  ARG405      0.1563
     87  C        128.0760  -18.7470   47.6950 C.2   405  ARG405      0.2260
     88  O        128.3510  -18.7500   46.4920 O.2   405  ARG405     -0.2867
     89  CB       129.9780  -18.9160   49.3080 C.3   405  ARG405      0.0307
     90  CG       130.9290  -19.4910   48.2720 C.3   405  ARG405      0.0489
     91  CD       131.9190  -20.4670   48.8640 C.3   405  ARG405      0.2205
     92  NE       132.8040  -21.0250   47.8400 N.pl3 405  ARG405     -0.0865
     93  CZ       132.5750  -22.1560   47.1730 C.cat 405  ARG405      0.5346
     94  NH1      131.4800  -22.8660   47.4100 N.pl3 405  ARG405      0.1354
     95  NH2      133.4380  -22.5820   46.2610 N.pl3 405  ARG405      0.1354
     96  N        127.7480  -18.0360   43.7410 N.3   409  LYS409     -0.1231
     97  CA       127.9830  -19.1100   42.7760 C.3   409  LYS409      0.1693
     98  C        126.9710  -19.0310   41.6310 C.2   409  LYS409      0.2591
     99  O        127.3170  -19.2670   40.4610 O.2   409  LYS409     -0.2718
    100  CB       127.9070  -20.4750   43.4770 C.3   409  LYS409      0.0285
    101  CG       127.9210  -21.6810   42.5480 C.3   409  LYS409      0.0035
    102  CD       127.6070  -22.9640   43.3130 C.3   409  LYS409      0.0206
    103  CE       128.5610  -23.1640   44.4920 C.3   409  LYS409      0.1093
    104  NZ       128.4100  -24.4990   45.1550 N.3   409  LYS409     -0.1314
    105  N        125.7270  -18.6930   41.9680 N.am  410  ALA410     -0.1980
    106  CA       124.6730  -18.5240   40.9660 C.3   410  ALA410      0.1597
    107  C        124.8870  -17.2520   40.1690 C.2   410  ALA410      0.2287
    108  O        124.4760  -17.1520   39.0150 O.2   410  ALA410     -0.2864
    109  CB       123.2910  -18.5010   41.6230 C.3   410  ALA410      0.0319
    110  N        127.9440  -18.2440   37.6180 N.3   413  TYR413     -0.1227
    111  CA       127.4620  -19.0390   36.5010 C.3   413  TYR413      0.1736
    112  C        126.4140  -18.2930   35.7020 C.2   413  TYR413      0.2596
    113  O        126.3830  -18.3790   34.4670 O.2   413  TYR413     -0.2718
    114  CB       126.9370  -20.3780   37.0000 C.3   413  TYR413      0.0548
    115  CG       128.0940  -21.2780   37.3620 C.ar  413  TYR413     -0.0200
    116  CD1      129.0830  -21.5490   36.4320 C.ar  413  TYR413     -0.0009
    117  CD2      128.1990  -21.8470   38.6110 C.ar  413  TYR413     -0.0009
    118  CE1      130.1510  -22.3620   36.7390 C.ar  413  TYR413      0.0417
    119  CE2      129.2590  -22.6670   38.9360 C.ar  413  TYR413      0.0417
    120  CZ       130.2420  -22.9190   37.9960 C.ar  413  TYR413      0.1957
    121  OH       131.3090  -23.7340   38.3180 O.3   413  TYR413     -0.2866
    122  N        125.5510  -17.5640   36.3980 N.am  414  GLY414     -0.1957
    123  CA       124.5480  -16.7580   35.7240 C.3   414  GLY414      0.1869
    124  C        125.1880  -15.8130   34.7140 C.2   414  GLY414      0.2309
    125  O        124.7640  -15.7280   33.5570 O.2   414  GLY414     -0.2863
    126  N        126.8890  -17.5360   31.6890 N.3   417  TYR417     -0.1241
    127  CA       125.9200  -18.2040   30.8290 C.3   417  TYR417      0.1605
    128  C        124.8170  -17.2700   30.3290 C.2   417  TYR417      0.2264
    129  O        123.7600  -17.7170   29.8650 O.2   417  TYR417     -0.2867
    130  CB       125.3460  -19.4360   31.5490 C.3   417  TYR417      0.0534
    131  CG       126.3830  -20.5110   31.8130 C.ar  417  TYR417     -0.0201
    132  CD1      127.3020  -20.8710   30.8320 C.ar  417  TYR417     -0.0009
    133  CD2      126.4440  -21.1690   33.0380 C.ar  417  TYR417     -0.0009
    134  CE1      128.2550  -21.8600   31.0670 C.ar  417  TYR417      0.0417
    135  CE2      127.3830  -22.1530   33.2830 C.ar  417  TYR417      0.0417
    136  CZ       128.2890  -22.5020   32.2960 C.ar  417  TYR417      0.1957
    137  OH       129.2300  -23.4850   32.5360 O.3   417  TYR417     -0.2866
    138  N        126.2800  -22.5030   27.1140 N.3   496  ASN496     -0.1240
    139  CA       126.3110  -23.3570   28.3030 C.3   496  ASN496      0.1653
    140  C        126.6790  -24.8060   28.0030 C.2   496  ASN496      0.2266
    141  O        127.4990  -25.3960   28.7070 O.2   496  ASN496     -0.2867
    142  CB       124.9710  -23.2950   29.0450 C.3   496  ASN496      0.1155
    143  CG       124.8680  -24.3430   30.1310 C.2   496  ASN496      0.2627
    144  OD1      124.3060  -25.4230   29.9160 O.2   496  ASN496     -0.2716
    145  ND2      125.4390  -24.0430   31.2960 N.am  496  ASN496     -0.0877
    146  N        128.9630  -27.2670   30.4750 N.3   500  GLN500     -0.1245
    147  CA       128.3210  -28.2590   31.3270 C.3   500  GLN500      0.1566
    148  C        128.5690  -29.6740   30.7750 C.2   500  GLN500      0.2260
    149  O        128.7660  -30.6230   31.5330 O.2   500  GLN500     -0.2867
    150  CB       126.8300  -27.9820   31.4140 C.3   500  GLN500      0.0367
    151  CG       126.1260  -28.9040   32.3960 C.3   500  GLN500      0.0905
    152  CD       124.6390  -28.7200   32.3500 C.2   500  GLN500      0.2608
    153  OE1      123.9280  -29.5930   31.8900 O.2   500  GLN500     -0.2717
    154  NE2      124.1630  -27.5640   32.7940 N.am  500  GLN500     -0.0878
    155  N        126.4050  -35.2470   39.5700 N.3   532  HIS532     -0.1226
    156  CA       126.8160  -34.2600   38.5650 C.3   532  HIS532      0.1752
    157  C        128.2860  -33.8850   38.6310 C.2   532  HIS532      0.2596
    158  O        129.0020  -34.0140   37.6420 O.2   532  HIS532     -0.2718
    159  CB       125.9280  -33.0360   38.6540 C.3   532  HIS532      0.0759
    160  CG       124.4780  -33.3750   38.5280 C.ar  532  HIS532      0.0818
    161  ND1      124.0000  -34.1790   37.5130 N.ar  532  HIS532     -0.2268
    162  CD2      123.4140  -33.0890   39.3170 C.ar  532  HIS532      0.1154
    163  CE1      122.6990  -34.3440   37.6630 C.ar  532  HIS532      0.1986
    164  NE2      122.3200  -33.6950   38.7530 N.ar  532  HIS532     -0.2212
    165  N        128.7290  -33.4290   39.7890 N.am  533  ASP533     -0.1960
    166  CA       130.1470  -33.1710   39.9830 C.3   533  ASP533      0.1840
    167  C        130.5770  -33.7090   41.3370 C.2   533  ASP533      0.2621
    168  O        131.5500  -33.2370   41.9290 O.2   533  ASP533     -0.2715
    169  CB       130.4370  -31.6730   39.8580 C.3   533  ASP533      0.1450
    170  CG       130.0660  -30.8890   41.1010 C.2   533  ASP533      0.3671
    171  OD1      129.0700  -31.2180   41.7830 O.co2 533  ASP533     -0.2456
    172  OD2      130.7840  -29.9150   41.3920 O.co2 533  ASP533     -0.2456
    173  N        129.8310  -34.6970   41.8270 N.am  534  GLU534     -0.1977
    174  CA       130.1460  -35.3480   43.0930 C.3   534  GLU534      0.1602
    175  C        130.1250  -36.8480   42.8890 C.2   534  GLU534      0.2287
    176  O        129.3130  -37.3520   42.1170 O.2   534  GLU534     -0.2864
    177  CB       129.1020  -35.0230   44.1650 C.3   534  GLU534      0.0415
    178  CG       128.7390  -33.5590   44.3440 C.3   534  GLU534      0.1163
    179  CD       127.6140  -33.3810   45.3630 C.2   534  GLU534      0.3649
    180  OE1      127.1710  -34.3960   45.9530 O.co2 534  GLU534     -0.2457
    181  OE2      127.1720  -32.2340   45.5700 O.co2 534  GLU534     -0.2457
    182  N        137.2210  -31.5090   46.6660 N.3   568  ASP568     -0.1239
    183  CA       137.0040  -31.4490   48.1100 C.3   568  ASP568      0.1674
    184  C        136.3380  -32.7430   48.5570 C.2   568  ASP568      0.2266
    185  O        135.5420  -33.3150   47.8190 O.2   568  ASP568     -0.2867
    186  CB       136.1080  -30.2630   48.4600 C.3   568  ASP568      0.1410
    187  CG       136.6500  -28.9410   47.9420 C.2   568  ASP568      0.3668
    188  OD1      137.8590  -28.6820   48.1200 O.co2 568  ASP568     -0.2456
    189  OD2      135.8650  -28.1590   47.3550 O.co2 568  ASP568     -0.2456
@<TRIPOS>BOND
     1   138   139    1
     2   140   139    1
     3   140   141    2
     4   139   142    1
     5   142   143    1
     6   129   128    2
     7   144   143    2
     8   143   145   am
     9   128   127    1
    10   146   147    1
    11   148   147    1
    12   148   149    2
    13   127   130    1
    14   127   126    1
    15   132   134   ar
    16   132   131   ar
    17     1     2    1
    18   134   136   ar
    19   147   150    1
    20   150   151    1
    21     4     3    2
    22   130   131    1
    23   131   133   ar
    24   153   152    2
    25     2     3    1
    26     2     5    1
    27   136   137    1
    28   136   135   ar
    29   152   151    1
    30   152   154   am
    31   133   135   ar
    32     5     6    1
    33     6     7    1
    34   125   124    2
    35    73    72   ar
    36    69    68    2
    37     7     8    1
    38    72    71    1
    39    72    74   ar
    40   113   112    2
    41    71    70    1
    42   124   123    1
    43    70    67    1
    44    68    67    1
    45     8     9    2
    46    67    66    1
    47   112   122   am
    48   112   111    1
    49   123   122    1
    50     9    10    1
    51     9    11    1
    52    61    60    2
    53   116   118   ar
    54   116   115   ar
    55   111   114    1
    56   111   110    1
    57    66    60   am
    58   118   120   ar
    59    60    59    1
    60   114   115    1
    61    65    63    1
    62    63    62    1
    63   115   117   ar
    64   161   163   ar
    65   161   160   ar
    66   158   157    2
    67   163   164   ar
    68    42    41    1
    69   120   121    1
    70   120   119   ar
    71    59    62    1
    72    59    58    1
    73    62    64    1
    74   160   159    1
    75   160   162   ar
    76   156   157    1
    77   156   159    1
    78   156   155    1
    79   117   119   ar
    80    41    39   ar
    81    41    40   ar
    82   157   165   am
    83    52    51    2
    84   164   162   ar
    85    39    37   ar
    86   108   107    2
    87    40    38   ar
    88    58    51   am
    89    37    36   ar
    90    51    50    1
    91   165   166    1
    92    38    36   ar
    93   169   166    1
    94   169   170    1
    95   166   167    1
    96    36    35    1
    97   107   106    1
    98    99    98    2
    99    35    32    1
   100    46    45    2
   101    50    53    1
   102    50    49    1
   103   106   109    1
   104   106   105    1
   105    53    54    1
   106   170   172   ar
   107   170   171   ar
   108   167   173   am
   109   167   168    2
   110    83    84   ar
   111    83    81   ar
   112    98   105   am
   113    98    97    1
   114   173   174    1
   115    45    49   am
   116    45    44    1
   117    84    82   ar
   118    56    55    2
   119   176   175    2
   120    81    80   ar
   121    32    33    1
   122    32    31    1
   123    54    55    1
   124   101   102    1
   125   101   100    1
   126    55    57   am
   127    33    34    2
   128    33    43   am
   129    43    44    1
   130    97   100    1
   131    97    96    1
   132   175   174    1
   133    31    25   am
   134   174   177    1
   135    44    47    1
   136    82    80   ar
   137   102   103    1
   138    80    79    1
   139    75    76    1
   140    48    47    1
   141    22    20    1
   142   177   178    1
   143    29    28   ar
   144    76    79    1
   145    76    77    1
   146   178   179    1
   147    25    26    2
   148    25    24    1
   149   103   104    1
   150    21    20    1
   151    20    19    2
   152    24    23    1
   153    24    27    1
   154    28    30   ar
   155    28    27    1
   156   179   181   ar
   157   179   180   ar
   158    77    78    2
   159    19    18    1
   160    95    93    1
   161    88    87    2
   162   182   183    1
   163    93    94    1
   164    93    92    2
   165   189   187   ar
   166    18    17    1
   167    87    86    1
   168   185   184    2
   169    92    91    1
   170   187   188   ar
   171   187   186    1
   172   183   186    1
   173   183   184    1
   174    90    91    1
   175    90    89    1
   176    86    89    1
   177    86    85    1
   178    17    16    1
   179    16    13    1
   180    12    13    1
   181    13    14    1
   182    14    15    2
