@<TRIPOS>MOLECULE
tmp/3ti1A00.pdb
 171 163 0 0 0
SMALL
GASTEIGER

@<TRIPOS>ATOM
      1  N        -94.1570  -12.9560  -79.1210 N.3    10  ILE10      -0.1231
      2  CA       -92.9510  -12.1900  -79.4090 C.3    10  ILE10       0.1692
      3  C        -93.0620  -10.6910  -79.1460 C.2    10  ILE10       0.2593
      4  O        -92.0730   -9.9610  -79.2610 O.2    10  ILE10      -0.2718
      5  CB       -92.4740  -12.4530  -80.8500 C.3    10  ILE10       0.0266
      6  CG1      -93.4730  -11.9020  -81.8710 C.3    10  ILE10       0.0019
      7  CG2      -92.2790  -13.9500  -81.0650 C.3    10  ILE10       0.0020
      8  CD1      -93.3520  -12.5790  -83.2420 C.3    10  ILE10       0.0001
      9  N        -94.2540  -10.2290  -78.7760 N.am   11  GLY11      -0.1942
     10  CA       -94.4570   -8.8140  -78.5190 C.3    11  GLY11       0.2014
     11  C        -95.8440   -8.5260  -77.9900 C.2    11  GLY11       0.2638
     12  O        -96.7610   -9.3250  -78.1670 O.2    11  GLY11      -0.2714
     13  N        -95.9890   -7.3930  -77.3120 N.am   12  GLU12      -0.1977
     14  CA       -97.2830   -6.9720  -76.7900 C.3    12  GLU12       0.1602
     15  C        -97.6050   -5.6190  -77.4100 C.2    12  GLU12       0.2287
     16  O        -96.9690   -4.6160  -77.0860 O.2    12  GLU12      -0.2864
     17  CB       -97.2230   -6.8750  -75.2650 C.3    12  GLU12       0.0415
     18  CG       -98.5650   -6.9930  -74.5690 C.3    12  GLU12       0.1163
     19  CD       -99.0830   -8.4190  -74.5240 C.2    12  GLU12       0.3649
     20  OE1      -98.5410   -9.2320  -73.7400 O.co2  12  GLU12      -0.2457
     21  OE2     -100.0380   -8.7260  -75.2680 O.co2  12  GLU12      -0.2457
     22  N        -98.7670  -10.1790  -80.3190 N.3    18  VAL18      -0.1245
     23  CA       -98.1250  -10.7580  -81.4950 C.3    18  VAL18       0.1561
     24  C        -97.4980  -12.1130  -81.1630 C.2    18  VAL18       0.2260
     25  O        -96.8080  -12.2610  -80.1570 O.2    18  VAL18      -0.2867
     26  CB       -97.0600   -9.8200  -82.0920 C.3    18  VAL18       0.0252
     27  CG1      -96.5280  -10.3930  -83.4140 C.3    18  VAL18       0.0019
     28  CG2      -97.6450   -8.4270  -82.3000 C.3    18  VAL18       0.0019
     29  N        -95.8620  -14.0360  -88.3310 N.3    31  ALA31      -0.1245
     30  CA       -96.1920  -13.2890  -87.1270 C.3    31  ALA31       0.1562
     31  C        -97.7040  -13.1310  -87.1070 C.2    31  ALA31       0.2260
     32  O        -98.2940  -12.6430  -88.0700 O.2    31  ALA31      -0.2867
     33  CB       -95.5100  -11.9210  -87.1240 C.3    31  ALA31       0.0290
     34  N       -100.9340  -11.4720  -85.2670 N.3    33  LYS33      -0.1245
     35  CA      -101.3910  -10.4450  -84.3460 C.3    33  LYS33       0.1561
     36  C       -102.8840  -10.6240  -84.0800 C.2    33  LYS33       0.2260
     37  O       -103.6900  -10.6320  -85.0130 O.2    33  LYS33      -0.2867
     38  CB      -101.1080   -9.0600  -84.9170 C.3    33  LYS33       0.0271
     39  CG      -101.9180   -7.9580  -84.2690 C.3    33  LYS33       0.0035
     40  CD      -101.6070   -6.6160  -84.8980 C.3    33  LYS33       0.0206
     41  CE      -101.0410   -5.6500  -83.8700 C.3    33  LYS33       0.1093
     42  NZ      -101.5810   -4.2700  -84.0740 N.3    33  LYS33      -0.1314
     43  N        -93.1190   -4.2930  -93.6210 N.3    60  VAL60      -0.1245
     44  CA       -93.4250   -5.7030  -93.3290 C.3    60  VAL60       0.1561
     45  C        -94.7180   -6.1000  -94.0570 C.2    60  VAL60       0.2260
     46  O        -95.6910   -5.3440  -94.0660 O.2    60  VAL60      -0.2867
     47  CB       -93.5550   -5.9720  -91.8050 C.3    60  VAL60       0.0252
     48  CG1      -93.9340   -7.4370  -91.5330 C.3    60  VAL60       0.0019
     49  CG2      -92.2530   -5.6590  -91.0980 C.3    60  VAL60       0.0019
     50  N        -98.8400  -11.7220  -90.6650 N.3    76  PHE76      -0.1227
     51  CA       -97.7430  -10.9290  -91.2180 C.3    76  PHE76       0.1736
     52  C        -96.5420  -11.8230  -91.4950 C.2    76  PHE76       0.2595
     53  O        -96.3800  -12.8740  -90.8730 O.2    76  PHE76      -0.2718
     54  CB       -97.2810   -9.8840  -90.1980 C.3    76  PHE76       0.0547
     55  CG       -98.2320   -8.7410  -89.9880 C.ar   76  PHE76      -0.0202
     56  CD1      -98.2300   -7.6540  -90.8590 C.ar   76  PHE76      -0.0042
     57  CD2      -99.0900   -8.7180  -88.8920 C.ar   76  PHE76      -0.0042
     58  CE1      -99.0950   -6.5640  -90.6610 C.ar   76  PHE76      -0.0003
     59  CE2      -99.9590   -7.6250  -88.6810 C.ar   76  PHE76      -0.0003
     60  CZ       -99.9590   -6.5490  -89.5720 C.ar   76  PHE76      -0.0000
     61  N        -95.6780  -11.3980  -92.4090 N.am   77  GLU77      -0.1965
     62  CA       -94.3760  -12.0520  -92.5490 C.3    77  GLU77       0.1733
     63  C        -93.6160  -11.8790  -91.2410 C.2    77  GLU77       0.2616
     64  O        -93.8080  -10.8980  -90.5060 O.2    77  GLU77      -0.2715
     65  CB       -93.5710  -11.4490  -93.7000 C.3    77  GLU77       0.0429
     66  CG       -93.1170  -10.0410  -93.4450 C.3    77  GLU77       0.1163
     67  CD       -92.1070   -9.5450  -94.4740 C.2    77  GLU77       0.3649
     68  OE1      -91.0800  -10.2130  -94.7110 O.co2  77  GLU77      -0.2457
     69  OE2      -92.3360   -8.4640  -95.0400 O.co2  77  GLU77      -0.2457
     70  N        -92.7600  -12.8400  -90.9420 N.am   78  PHE78      -0.1960
     71  CA       -92.0250  -12.8710  -89.6800 C.3    78  PHE78       0.1771
     72  C        -90.5760  -12.4300  -89.9110 C.2    78  PHE78       0.2619
     73  O        -89.9670  -12.8450  -90.8900 O.2    78  PHE78      -0.2715
     74  CB       -92.0520  -14.3040  -89.1250 C.3    78  PHE78       0.0574
     75  CG       -91.1910  -14.5120  -87.9020 C.ar   78  PHE78      -0.0200
     76  CD1      -89.9280  -15.0760  -88.0100 C.ar   78  PHE78      -0.0042
     77  CD2      -91.6570  -14.1620  -86.6440 C.ar   78  PHE78      -0.0042
     78  CE1      -89.1450  -15.2740  -86.8910 C.ar   78  PHE78      -0.0003
     79  CE2      -90.8790  -14.3580  -85.5180 C.ar   78  PHE78      -0.0003
     80  CZ       -89.6210  -14.9100  -85.6380 C.ar   78  PHE78      -0.0000
     81  N        -90.0520  -11.5660  -89.0410 N.am   79  LEU79      -0.1963
     82  CA       -88.6430  -11.1910  -89.0810 C.3    79  LEU79       0.1728
     83  C        -88.0370  -11.6030  -87.7570 C.2    79  LEU79       0.2616
     84  O        -88.7520  -11.7480  -86.7770 O.2    79  LEU79      -0.2715
     85  CB       -88.4550   -9.6960  -89.3560 C.3    79  LEU79       0.0311
     86  CG       -88.5220   -9.2930  -90.8340 C.3    79  LEU79       0.0022
     87  CD1      -89.9570   -9.0020  -91.2450 C.3    79  LEU79       0.0001
     88  CD2      -87.6350   -8.0730  -91.0890 C.3    79  LEU79       0.0001
     89  N        -86.7260  -11.8130  -87.7190 N.am   80  HIS80      -0.1959
     90  CA       -86.1490  -12.4810  -86.5530 C.3    80  HIS80       0.1787
     91  C        -85.7820  -11.6210  -85.3710 C.2    80  HIS80       0.2620
     92  O        -85.5810  -12.1460  -84.2660 O.2    80  HIS80      -0.2715
     93  CB       -84.9480  -13.3370  -86.9310 C.3    80  HIS80       0.0785
     94  CG       -85.3010  -14.7610  -87.2280 C.ar   80  HIS80       0.0821
     95  ND1      -85.7310  -15.1750  -88.4700 N.ar   80  HIS80      -0.2267
     96  CD2      -85.2960  -15.8650  -86.4410 C.ar   80  HIS80       0.1154
     97  CE1      -85.9720  -16.4750  -88.4390 C.ar   80  HIS80       0.1986
     98  NE2      -85.7140  -16.9180  -87.2210 N.ar   80  HIS80      -0.2212
     99  N        -85.6980  -10.3090  -85.5750 N.am   81  GLN81      -0.1963
    100  CA       -85.3800   -9.4420  -84.4550 C.3    81  GLN81       0.1733
    101  C        -85.9320   -8.0380  -84.6250 C.2    81  GLN81       0.2616
    102  O        -86.0440   -7.5340  -85.7510 O.2    81  GLN81      -0.2715
    103  CB       -83.8670   -9.3940  -84.2480 C.3    81  GLN81       0.0408
    104  CG       -83.4620   -8.8780  -82.8830 C.3    81  GLN81       0.0908
    105  CD       -82.0300   -9.2370  -82.5510 C.2    81  GLN81       0.2608
    106  OE1      -81.1500   -8.3840  -82.5660 O.2    81  GLN81      -0.2717
    107  NE2      -81.7920  -10.5110  -82.2470 N.am   81  GLN81      -0.0878
    108  N        -86.2240   -7.3940  -83.4980 N.am   82  ASP82      -0.1971
    109  CA       -86.7150   -6.0160  -83.5090 C.3    82  ASP82       0.1709
    110  C        -85.5820   -5.0770  -83.0990 C.2    82  ASP82       0.2293
    111  O        -84.6400   -5.4930  -82.4230 O.2    82  ASP82      -0.2864
    112  CB       -87.9670   -5.8360  -82.6310 C.3    82  ASP82       0.1436
    113  CG       -87.6610   -5.9000  -81.1510 C.2    82  ASP82       0.3671
    114  OD1      -86.9670   -5.0000  -80.6350 O.co2  82  ASP82      -0.2456
    115  OD2      -88.1070   -6.8520  -80.4950 O.co2  82  ASP82      -0.2456
    116  N        -85.3500   -2.6410  -81.0670 N.3    84  LYS84      -0.1231
    117  CA       -85.1860   -2.4710  -79.6270 C.3    84  LYS84       0.1693
    118  C        -84.2200   -3.5170  -79.0760 C.2    84  LYS84       0.2591
    119  O        -83.2730   -3.1930  -78.3470 O.2    84  LYS84      -0.2718
    120  CB       -86.5350   -2.5740  -78.9140 C.3    84  LYS84       0.0285
    121  CG       -86.4350   -2.6240  -77.3840 C.3    84  LYS84       0.0035
    122  CD       -85.6030   -1.4680  -76.8320 C.3    84  LYS84       0.0206
    123  CE       -85.6410   -1.4470  -75.2950 C.3    84  LYS84       0.1093
    124  NZ       -84.8750   -0.2850  -74.7410 N.3    84  LYS84      -0.1314
    125  N        -84.4610   -4.7800  -79.4310 N.am   85  LYS85      -0.1980
    126  CA       -83.6260   -5.8620  -78.9450 C.3    85  LYS85       0.1596
    127  C        -82.1920   -5.6830  -79.4390 C.2    85  LYS85       0.2287
    128  O        -81.2380   -5.8480  -78.6810 O.2    85  LYS85      -0.2864
    129  CB       -84.2030   -7.2180  -79.3840 C.3    85  LYS85       0.0298
    130  CG       -83.2450   -8.3830  -79.2340 C.3    85  LYS85       0.0038
    131  CD       -82.8540   -8.6100  -77.7780 C.3    85  LYS85       0.0206
    132  CE       -82.3160  -10.0310  -77.5860 C.3    85  LYS85       0.1093
    133  NZ       -83.3550  -11.0660  -77.8860 N.3    85  LYS85      -0.1314
    134  N        -80.3640   -2.9010  -77.5730 N.3    88  ASP88      -0.1239
    135  CA       -79.9770   -3.3960  -76.2550 C.3    88  ASP88       0.1674
    136  C        -78.7550   -4.2980  -76.3850 C.2    88  ASP88       0.2266
    137  O        -77.8000   -4.1710  -75.6260 O.2    88  ASP88      -0.2867
    138  CB       -81.1400   -4.1300  -75.5680 C.3    88  ASP88       0.1410
    139  CG       -82.2370   -3.1720  -75.1000 C.2    88  ASP88       0.3668
    140  OD1      -81.9380   -1.9700  -74.9290 O.co2  88  ASP88      -0.2456
    141  OD2      -83.3930   -3.6120  -74.9010 O.co2  88  ASP88      -0.2456
    142  N        -89.4930   -1.0080  -81.0640 N.3   127  GLN127     -0.1245
    143  CA       -90.1610   -2.3180  -81.0290 C.3   127  GLN127      0.1566
    144  C        -90.8950   -2.6260  -82.3290 C.2   127  GLN127      0.2260
    145  O        -91.1210   -3.7900  -82.6560 O.2   127  GLN127     -0.2867
    146  CB       -91.1530   -2.3930  -79.8620 C.3   127  GLN127      0.0367
    147  CG       -90.5070   -2.3790  -78.4920 C.3   127  GLN127      0.0905
    148  CD       -91.4970   -2.0410  -77.3940 C.2   127  GLN127      0.2608
    149  OE1      -92.6550   -2.4680  -77.4310 O.2   127  GLN127     -0.2717
    150  NE2      -91.0510   -1.2660  -76.4130 N.am  127  GLN127     -0.0878
    151  N        -88.2750   -3.8740  -87.5600 N.3   130  LEU130     -0.1245
    152  CA       -87.8420   -5.2600  -87.5900 C.3   130  LEU130      0.1561
    153  C        -86.6500   -5.4380  -88.5240 C.2   130  LEU130      0.2260
    154  O        -86.6530   -4.9060  -89.6280 O.2   130  LEU130     -0.2867
    155  CB       -88.9880   -6.1310  -88.0850 C.3   130  LEU130      0.0270
    156  CG       -90.2570   -6.0060  -87.2540 C.3   130  LEU130      0.0019
    157  CD1      -91.3180   -6.9390  -87.8130 C.3   130  LEU130      0.0001
    158  CD2      -89.9430   -6.3400  -85.7980 C.3   130  LEU130      0.0001
    159  N        -93.1880   -1.9500  -89.1800 N.3   140  ALA140     -0.1231
    160  CA       -94.1730   -2.9640  -88.8210 C.3   140  ALA140      0.1694
    161  C        -95.2100   -2.4260  -87.8370 C.2   140  ALA140      0.2592
    162  O        -95.0170   -1.3750  -87.2230 O.2   140  ALA140     -0.2718
    163  CB       -93.4870   -4.1660  -88.2250 C.3   140  ALA140      0.0304
    164  N        -96.2980   -3.1720  -87.6820 N.am  141  ASP141     -0.1974
    165  CA       -97.2940   -2.8890  -86.6560 C.3   141  ASP141      0.1709
    166  C        -97.7910   -1.4620  -86.7930 C.2   141  ASP141      0.2293
    167  O        -97.7820   -0.6950  -85.8250 O.2   141  ASP141     -0.2864
    168  CB       -96.6940   -3.1230  -85.2640 C.3   141  ASP141      0.1436
    169  CG       -97.7560   -3.2950  -84.1830 C.2   141  ASP141      0.3671
    170  OD1      -97.3840   -3.3790  -82.9940 O.co2 141  ASP141     -0.2456
    171  OD2      -98.9570   -3.3480  -84.5180 O.co2 141  ASP141     -0.2456
@<TRIPOS>BOND
     1    69    67   ar
     2    68    67   ar
     3    67    66    1
     4    46    45    2
     5    45    44    1
     6    65    66    1
     7    65    62    1
     8    43    44    1
     9    44    47    1
    10    62    61    1
    11    62    63    1
    12    61    52   am
    13    47    48    1
    14    47    49    1
    15    52    51    1
    16    52    53    2
    17    87    86    1
    18    63    70   am
    19    63    64    2
    20    51    50    1
    21    51    54    1
    22    88    86    1
    23    70    71    1
    24    73    72    2
    25    56    58   ar
    26    56    55   ar
    27    86    85    1
    28    58    60   ar
    29    54    55    1
    30    55    57   ar
    31    72    71    1
    32    72    81   am
    33    71    74    1
    34   154   153    2
    35    60    59   ar
    36    85    82    1
    37   159   160    1
    38    74    75    1
    39    82    81    1
    40    82    83    1
    41    57    59   ar
    42   160   163    1
    43   160   161    1
    44   153   152    1
    45    95    97   ar
    46    95    94   ar
    47    97    98   ar
    48    29    30    1
    49   155   152    1
    50   155   156    1
    51    32    31    2
    52    76    75   ar
    53    76    78   ar
    54    75    77   ar
    55   161   164   am
    56   161   162    2
    57   157   156    1
    58    83    89   am
    59    83    84    2
    60    89    90    1
    61   164   165    1
    62   152   151    1
    63   156   158    1
    64    94    93    1
    65    94    96   ar
    66    98    96   ar
    67    30    33    1
    68    30    31    1
    69    93    90    1
    70    78    80   ar
    71   166   165    1
    72   166   167    2
    73   165   168    1
    74    77    79   ar
    75    90    91    1
    76   102   101    2
    77    80    79   ar
    78    99    91   am
    79    99   100    1
    80    91    92    2
    81    34    35    1
    82   168   169    1
    83    37    36    2
    84    38    35    1
    85    38    39    1
    86    40    39    1
    87    40    41    1
    88   101   100    1
    89   101   108   am
    90   171   169   ar
    91   100   103    1
    92    35    36    1
    93   103   104    1
    94   169   170   ar
    95    42    41    1
    96   109   108    1
    97   109   110    1
    98   109   112    1
    99    27    26    1
   100     8     6    1
   101   110   111    2
   102   104   105    1
   103   145   144    2
   104   112   113    1
   105   106   105    2
   106   105   107   am
   107   144   143    1
   108    28    26    1
   109    26    23    1
   110     6     5    1
   111    23    24    1
   112    23    22    1
   113    24    25    2
   114   113   114   ar
   115   113   115   ar
   116   116   117    1
   117     7     5    1
   118   142   143    1
   119   143   146    1
   120     5     2    1
   121   146   147    1
   122   117   118    1
   123   117   120    1
   124   127   126    1
   125   127   128    2
   126   125   118   am
   127   125   126    1
   128     2     3    1
   129     2     1    1
   130   129   130    1
   131   129   126    1
   132     4     3    2
   133   130   131    1
   134     3     9   am
   135   118   119    2
   136   120   121    1
   137     9    10    1
   138    10    11    1
   139   147   148    1
   140    12    11    2
   141    11    13   am
   142   133   132    1
   143   131   132    1
   144   134   135    1
   145   149   148    2
   146    15    16    2
   147    15    14    1
   148   148   150   am
   149   121   122    1
   150    13    14    1
   151   122   123    1
   152    14    17    1
   153   136   135    1
   154   136   137    2
   155   135   138    1
   156   138   139    1
   157   123   124    1
   158    21    19   ar
   159    17    18    1
   160   139   140   ar
   161   139   141   ar
   162    18    19    1
   163    19    20   ar
