@<TRIPOS>MOLECULE
tmp/3ti3A00.pdb
 172 161 0 0 0
SMALL
GASTEIGER

@<TRIPOS>ATOM
      1  N         39.3880   14.1560  -25.5550 N.3    37  ARG37      -0.1231
      2  CA        38.0430   14.3040  -26.0890 C.3    37  ARG37       0.1694
      3  C         37.5550   15.7130  -25.7620 C.2    37  ARG37       0.2591
      4  O         38.2630   16.4910  -25.1120 O.2    37  ARG37      -0.2718
      5  CB        37.0890   13.2460  -25.5310 C.3    37  ARG37       0.0321
      6  CG        36.8180   12.0710  -26.4790 C.3    37  ARG37       0.0489
      7  CD        35.3750   11.5900  -26.3230 C.3    37  ARG37       0.2205
      8  NE        34.4500   12.6240  -26.7780 N.pl3  37  ARG37      -0.0865
      9  CZ        33.1970   12.7580  -26.3480 C.cat  37  ARG37       0.5346
     10  NH1       32.6940   11.9180  -25.4440 N.pl3  37  ARG37       0.1354
     11  NH2       32.4420   13.7390  -26.8240 N.pl3  37  ARG37       0.1354
     12  N         36.3570   16.0470  -26.2280 N.am   38  GLU38      -0.1979
     13  CA        35.8090   17.3790  -26.0150 C.3    38  GLU38       0.1602
     14  C         36.7740   18.4770  -26.4670 C.2    38  GLU38       0.2287
     15  O         37.0850   19.3890  -25.7020 O.2    38  GLU38      -0.2864
     16  CB        35.4370   17.5760  -24.5420 C.3    38  GLU38       0.0415
     17  CG        34.3480   16.6330  -24.0290 C.3    38  GLU38       0.1163
     18  CD        34.8830   15.2890  -23.5560 C.2    38  GLU38       0.3649
     19  OE1       34.1330   14.2930  -23.6300 O.co2  38  GLU38      -0.2457
     20  OE2       36.0450   15.2240  -23.1050 O.co2  38  GLU38      -0.2457
     21  N         40.4100   18.3740  -23.6880 N.3    53  LEU53      -0.1245
     22  CA        40.5420   17.7150  -22.3980 C.3    53  LEU53       0.1561
     23  C         41.3390   16.4260  -22.5500 C.2    53  LEU53       0.2260
     24  O         40.8440   15.4410  -23.0990 O.2    53  LEU53      -0.2867
     25  CB        39.1630   17.4150  -21.7980 C.3    53  LEU53       0.0270
     26  CG        38.2710   18.6180  -21.4860 C.3    53  LEU53       0.0019
     27  CD1       36.9340   18.1640  -20.9160 C.3    53  LEU53       0.0001
     28  CD2       38.9750   19.5650  -20.5260 C.3    53  LEU53       0.0001
     29  N         34.3850    9.6380  -18.2680 N.3    70  ASP70      -0.1225
     30  CA        34.2570   11.0730  -18.5010 C.3    70  ASP70       0.1805
     31  C         35.0860   11.9470  -17.5660 C.2    70  ASP70       0.2597
     32  O         35.6490   12.9560  -17.9920 O.2    70  ASP70      -0.2718
     33  CB        32.7870   11.4930  -18.4230 C.3    70  ASP70       0.1424
     34  CG        32.0210   11.1480  -19.6790 C.2    70  ASP70       0.3668
     35  OD1       32.5140   11.4740  -20.7790 O.co2  70  ASP70      -0.2456
     36  OD2       30.9270   10.5580  -19.5680 O.co2  70  ASP70      -0.2456
     37  N         35.1540   11.5670  -16.2960 N.am   71  ARG71      -0.1979
     38  CA        35.7510   12.4340  -15.2880 C.3    71  ARG71       0.1597
     39  C         36.7750   11.7110  -14.4230 C.2    71  ARG71       0.2287
     40  O         36.5640   10.5740  -14.0040 O.2    71  ARG71      -0.2864
     41  CB        34.6550   13.0550  -14.4160 C.3    71  ARG71       0.0334
     42  CG        33.5830   13.7820  -15.2230 C.3    71  ARG71       0.0492
     43  CD        32.4200   14.2380  -14.3550 C.3    71  ARG71       0.2205
     44  NE        31.7370   13.1200  -13.7080 N.pl3  71  ARG71      -0.0865
     45  CZ        30.8660   12.3200  -14.3140 C.cat  71  ARG71       0.5346
     46  NH1       30.5740   12.5000  -15.5940 N.pl3  71  ARG71       0.1354
     47  NH2       30.2910   11.3320  -13.6400 N.pl3  71  ARG71       0.1354
     48  N         42.4290   14.3740  -15.8720 N.3    75  ARG75      -0.1245
     49  CA        42.0680   15.1540  -17.0490 C.3    75  ARG75       0.1563
     50  C         42.5000   16.6100  -16.9120 C.2    75  ARG75       0.2260
     51  O         42.3100   17.2350  -15.8680 O.2    75  ARG75      -0.2867
     52  CB        40.5670   15.0560  -17.3290 C.3    75  ARG75       0.0307
     53  CG        40.0710   13.6280  -17.4770 C.3    75  ARG75       0.0489
     54  CD        38.8330   13.5570  -18.3590 C.3    75  ARG75       0.2205
     55  NE        39.1410   13.8340  -19.7600 N.pl3  75  ARG75      -0.0865
     56  CZ        38.2500   13.7620  -20.7440 C.cat  75  ARG75       0.5346
     57  NH1       36.9960   13.4240  -20.4780 N.pl3  75  ARG75       0.1354
     58  NH2       38.6110   14.0280  -21.9930 N.pl3  75  ARG75       0.1354
     59  N         37.7960   18.3730  -16.1620 N.3    98  TRP98      -0.1227
     60  CA        37.0600   17.3830  -16.9440 C.3    98  TRP98       0.1737
     61  C         35.8390   18.0060  -17.6260 C.2    98  TRP98       0.2596
     62  O         35.0370   17.3130  -18.2530 O.2    98  TRP98      -0.2718
     63  CB        36.6830   16.1410  -16.1180 C.3    98  TRP98       0.0564
     64  CG        36.1950   16.3930  -14.7150 C.ar   98  TRP98       0.0003
     65  CD1       36.8650   16.1150  -13.5540 C.ar   98  TRP98       0.0946
     66  CD2       34.9250   16.9360  -14.3160 C.ar   98  TRP98       0.0152
     67  NE1       36.0990   16.4620  -12.4670 N.ar   98  TRP98      -0.2442
     68  CE2       34.9050   16.9670  -12.9110 C.ar   98  TRP98       0.0810
     69  CE3       33.8120   17.4060  -15.0240 C.ar   98  TRP98       0.0012
     70  CZ2       33.8120   17.4500  -12.1890 C.ar   98  TRP98       0.0191
     71  CZ3       32.7270   17.8840  -14.3030 C.ar   98  TRP98       0.0001
     72  CH2       32.7360   17.9030  -12.9030 C.ar   98  TRP98       0.0015
     73  N         35.7170   19.3230  -17.4900 N.am   99  SER99      -0.1952
     74  CA        34.7570   20.1190  -18.2480 C.3    99  SER99       0.1924
     75  C         35.3270   21.5290  -18.3460 C.2    99  SER99       0.2314
     76  O         35.9340   22.0130  -17.3920 O.2    99  SER99      -0.2863
     77  CB        33.3940   20.1400  -17.5590 C.3    99  SER99       0.2116
     78  OG        32.4660   20.9010  -18.3110 O.3    99  SER99      -0.2180
     79  N         27.4740   17.2060  -10.5210 N.3   142  ILE142     -0.1245
     80  CA        28.2830   17.3530  -11.7280 C.3   142  ILE142      0.1561
     81  C         28.1510   18.7260  -12.3860 C.2   142  ILE142      0.2260
     82  O         27.5650   18.8620  -13.4610 O.2   142  ILE142     -0.2867
     83  CB        27.9810   16.2460  -12.7600 C.3   142  ILE142      0.0252
     84  CG1       27.9840   14.8730  -12.0840 C.3   142  ILE142      0.0019
     85  CG2       29.0030   16.2810  -13.8920 C.3   142  ILE142      0.0019
     86  CD1       27.6690   13.7260  -13.0250 C.3   142  ILE142      0.0001
     87  N         28.9550   21.4710  -14.7330 N.3   144  ARG144     -0.1245
     88  CA        29.5020   21.2740  -16.0720 C.3   144  ARG144      0.1563
     89  C         29.2580   22.4810  -16.9710 C.2   144  ARG144      0.2260
     90  O         28.3270   23.2530  -16.7460 O.2   144  ARG144     -0.2867
     91  CB        28.9410   19.9920  -16.6940 C.3   144  ARG144      0.0307
     92  CG        27.4230   19.8540  -16.6170 C.3   144  ARG144      0.0489
     93  CD        27.0070   18.3920  -16.7380 C.3   144  ARG144      0.2205
     94  NE        25.5640   18.2260  -16.9040 N.pl3 144  ARG144     -0.0865
     95  CZ        24.6960   18.1610  -15.8990 C.cat 144  ARG144      0.5346
     96  NH1       25.1210   18.2560  -14.6480 N.pl3 144  ARG144      0.1354
     97  NH2       23.4020   18.0040  -16.1440 N.pl3 144  ARG144      0.1354
     98  N         32.2790   23.1280  -23.0510 N.3   147  GLU147     -0.1245
     99  CA        33.1410   22.3080  -23.8980 C.3   147  GLU147      0.1567
    100  C         33.3130   22.9770  -25.2620 C.2   147  GLU147      0.2260
    101  O         33.6320   22.3240  -26.2580 O.2   147  GLU147     -0.2867
    102  CB        32.6040   20.8810  -24.0560 C.3   147  GLU147      0.0388
    103  CG        31.9180   20.3030  -22.8210 C.3   147  GLU147      0.1160
    104  CD        32.8350   20.1670  -21.6180 C.2   147  GLU147      0.3649
    105  OE1       34.0200   20.5550  -21.7020 O.co2 147  GLU147     -0.2457
    106  OE2       32.3600   19.6630  -20.5790 O.co2 147  GLU147     -0.2457
    107  N         21.1130   14.6940  -15.4350 N.3   166  SER166     -0.1217
    108  CA        21.3190   14.6280  -16.8720 C.3   166  SER166      0.1889
    109  C         20.0750   14.0540  -17.5400 C.2   166  SER166      0.2288
    110  O         19.9550   14.0680  -18.7640 O.2   166  SER166     -0.2866
    111  CB        22.5210   13.7420  -17.1890 C.3   166  SER166      0.2089
    112  OG        22.2890   12.4120  -16.7570 O.3   166  SER166     -0.2183
    113  N         22.6620   21.8640  -21.7740 N.3   196  GLU196     -0.1231
    114  CA        24.0090   21.3680  -21.5280 C.3   196  GLU196      0.1699
    115  C         24.9270   21.7570  -22.6740 C.2   196  GLU196      0.2592
    116  O         24.4780   21.9180  -23.8080 O.2   196  GLU196     -0.2718
    117  CB        24.0130   19.8460  -21.3930 C.3   196  GLU196      0.0402
    118  CG        23.3650   19.3090  -20.1380 C.3   196  GLU196      0.1161
    119  CD        23.5230   17.8090  -20.0270 C.2   196  GLU196      0.3649
    120  OE1       23.6930   17.1560  -21.0800 O.co2 196  GLU196     -0.2457
    121  OE2       23.4840   17.2830  -18.8960 O.co2 196  GLU196     -0.2457
    122  N         26.2130   21.9120  -22.3680 N.am  197  GLU197     -0.1979
    123  CA        27.2450   22.0550  -23.3920 C.3   197  GLU197      0.1602
    124  C         26.9090   23.0850  -24.4680 C.2   197  GLU197      0.2287
    125  O         26.9880   22.7970  -25.6630 O.2   197  GLU197     -0.2864
    126  CB        27.5220   20.6910  -24.0310 C.3   197  GLU197      0.0415
    127  CG        28.0410   19.6650  -23.0360 C.3   197  GLU197      0.1163
    128  CD        28.1220   18.2670  -23.6120 C.2   197  GLU197      0.3649
    129  OE1       27.3610   17.9560  -24.5530 O.co2 197  GLU197     -0.2457
    130  OE2       28.9460   17.4740  -23.1130 O.co2 197  GLU197     -0.2457
    131  N         22.4230   21.5090  -25.7200 N.3   212  ARG212     -0.1245
    132  CA        22.0170   20.1110  -25.7480 C.3   212  ARG212      0.1563
    133  C         20.9980   19.8130  -24.6510 C.2   212  ARG212      0.2260
    134  O         21.2630   20.0360  -23.4710 O.2   212  ARG212     -0.2867
    135  CB        23.2490   19.2180  -25.5800 C.3   212  ARG212      0.0307
    136  CG        22.9800   17.7770  -25.1640 C.3   212  ARG212      0.0489
    137  CD        24.3050   17.0690  -24.8740 C.3   212  ARG212      0.2205
    138  NE        24.1430   15.6850  -24.4350 N.pl3 212  ARG212     -0.0865
    139  CZ        25.1480   14.8220  -24.3110 C.cat 212  ARG212      0.5346
    140  NH1       26.3880   15.2010  -24.5970 N.pl3 212  ARG212      0.1354
    141  NH2       24.9170   13.5810  -23.9050 N.pl3 212  ARG212      0.1354
    142  N         19.4990   16.9320  -22.7830 N.3   214  ASN214     -0.1240
    143  CA        19.7780   15.5120  -22.5680 C.3   214  ASN214      0.1653
    144  C         18.5940   14.7640  -21.9600 C.2   214  ASN214      0.2266
    145  O         18.6260   13.5440  -21.8020 O.2   214  ASN214     -0.2867
    146  CB        21.0070   15.3360  -21.6740 C.3   214  ASN214      0.1155
    147  CG        21.7350   14.0340  -21.9400 C.2   214  ASN214      0.2627
    148  OD1       22.2540   13.8180  -23.0330 O.2   214  ASN214     -0.2716
    149  ND2       21.7820   13.1620  -20.9390 N.am  214  ASN214     -0.0877
    150  N         26.5550    8.5280  -33.3910 N.3   287  ARG287     -0.1245
    151  CA        27.4290    9.6460  -33.7140 C.3   287  ARG287      0.1563
    152  C         28.2410    9.3680  -34.9750 C.2   287  ARG287      0.2260
    153  O         29.4630    9.2210  -34.9210 O.2   287  ARG287     -0.2867
    154  CB        28.3240    9.9760  -32.5180 C.3   287  ARG287      0.0307
    155  CG        27.5130   10.4440  -31.3150 C.3   287  ARG287      0.0489
    156  CD        28.3380   10.5770  -30.0460 C.3   287  ARG287      0.2205
    157  NE        27.5320   11.1540  -28.9720 N.pl3 287  ARG287     -0.0865
    158  CZ        27.9850   11.4290  -27.7540 C.cat 287  ARG287      0.5346
    159  NH1       29.2480   11.1730  -27.4380 N.pl3 287  ARG287      0.1354
    160  NH2       27.1720   11.9590  -26.8510 N.pl3 287  ARG287      0.1354
    161  N         31.1020   15.2650  -31.0870 N.3   321  TYR321     -0.1241
    162  CA        30.7860   16.6310  -30.6960 C.3   321  TYR321      0.1605
    163  C         31.0420   17.6090  -31.8330 C.2   321  TYR321      0.2264
    164  O         31.8580   17.3560  -32.7190 O.2   321  TYR321     -0.2867
    165  CB        31.6080   17.0390  -29.4720 C.3   321  TYR321      0.0534
    166  CG        30.9880   16.6320  -28.1590 C.ar  321  TYR321     -0.0201
    167  CD1       30.0690   15.5930  -28.0970 C.ar  321  TYR321     -0.0009
    168  CD2       31.3230   17.2850  -26.9790 C.ar  321  TYR321     -0.0009
    169  CE1       29.4950   15.2190  -26.8980 C.ar  321  TYR321      0.0417
    170  CE2       30.7550   16.9190  -25.7760 C.ar  321  TYR321      0.0417
    171  CZ        29.8420   15.8850  -25.7420 C.ar  321  TYR321      0.1957
    172  OH        29.2750   15.5140  -24.5480 O.3   321  TYR321     -0.2866
@<TRIPOS>BOND
     1   152   153    2
     2   152   151    1
     3   151   150    1
     4   151   154    1
     5   164   163    2
     6   154   155    1
     7   163   162    1
     8   155   156    1
     9   161   162    1
    10   162   165    1
    11   156   157    1
    12   165   166    1
    13   157   158    2
    14   166   167   ar
    15   166   168   ar
    16   167   169   ar
    17   158   159    1
    18   158   160    1
    19   168   170   ar
    20   169   171   ar
    21    11     9    1
    22     8     9    2
    23     8     7    1
    24     6     7    1
    25     6     5    1
    26    14    13    1
    27    14    15    2
    28     9    10    1
    29   101   100    2
    30    12    13    1
    31    12     3   am
    32     2     3    1
    33     2     1    1
    34     2     5    1
    35    13    16    1
    36   170   171   ar
    37     3     4    2
    38   132   131    1
    39   132   135    1
    40   132   133    1
    41   171   172    1
    42   125   124    2
    43   135   136    1
    44   100    99    1
    45   136   137    1
    46   137   138    1
    47   133   134    2
    48   140   139    1
    49   129   128   ar
    50    16    17    1
    51   124   123    1
    52   138   139    2
    53   139   141    1
    54   102    99    1
    55   102   103    1
    56   126   123    1
    57   126   127    1
    58    17    18    1
    59    99    98    1
    60   116   115    2
    61    21    22    1
    62    19    18   ar
    63   128   130   ar
    64   128   127    1
    65    18    20   ar
    66   123   122    1
    67    24    23    2
    68   148   147    2
    69   103   104    1
    70   142   143    1
    71   115   122   am
    72   115   114    1
    73   143   144    1
    74   143   146    1
    75    23    22    1
    76    22    25    1
    77    58    56    1
    78   144   145    2
    79   147   146    1
    80   147   149   am
    81    25    26    1
    82   113   114    1
    83   105   104   ar
    84   104   106   ar
    85   114   117    1
    86    26    27    1
    87    26    28    1
    88   117   118    1
    89   120   119   ar
    90    35    34   ar
    91    56    57    1
    92    56    55    2
    93   118   119    1
    94   119   121   ar
    95    55    54    1
    96    34    36   ar
    97    34    33    1
    98   110   109    2
    99    30    33    1
   100    30    29    1
   101    30    31    1
   102    54    53    1
   103    75    74    1
   104    75    76    2
   105    78    77    1
   106    62    61    2
   107    74    77    1
   108    74    73    1
   109    32    31    2
   110    61    73   am
   111    61    60    1
   112    31    37   am
   113   109   108    1
   114    53    52    1
   115    52    49    1
   116   111   108    1
   117   111   112    1
   118    49    50    1
   119    49    48    1
   120    89    90    2
   121    89    88    1
   122    60    59    1
   123    60    63    1
   124    50    51    2
   125    94    93    1
   126    94    95    2
   127   108   107    1
   128    93    92    1
   129    91    92    1
   130    91    88    1
   131    37    38    1
   132    97    95    1
   133    63    64    1
   134    88    87    1
   135    95    96    1
   136    46    45    1
   137    38    39    1
   138    38    41    1
   139    42    41    1
   140    42    43    1
   141    69    66   ar
   142    69    71   ar
   143    64    66   ar
   144    64    65   ar
   145    39    40    2
   146    43    44    1
   147    66    68   ar
   148    45    44    2
   149    45    47    1
   150    71    72   ar
   151    85    83    1
   152    65    67   ar
   153    82    81    2
   154    86    84    1
   155    68    67   ar
   156    68    70   ar
   157    72    70   ar
   158    83    84    1
   159    83    80    1
   160    81    80    1
   161    80    79    1
