@<TRIPOS>MOLECULE
tmp/3ti4B01.pdb
 180 168 0 0 0
SMALL
GASTEIGER

@<TRIPOS>ATOM
      1  N         63.5460   14.1910   -9.8630 N.3    37  ARG37      -0.1231
      2  CA        62.9940   14.3380   -8.5250 C.3    37  ARG37       0.1694
      3  C         63.2980   15.7600   -8.0820 C.2    37  ARG37       0.2591
      4  O         63.9360   16.5220   -8.8140 O.2    37  ARG37      -0.2718
      5  CB        63.5580   13.3030   -7.5450 C.3    37  ARG37       0.0321
      6  CG        62.6460   12.0870   -7.3270 C.3    37  ARG37       0.0489
      7  CD        62.7220   11.5850   -5.8870 C.3    37  ARG37       0.2205
      8  NE        62.2600   12.6090   -4.9530 N.pl3  37  ARG37      -0.0865
      9  CZ        62.6810   12.7330   -3.6980 C.cat  37  ARG37       0.5346
     10  NH1       63.5810   11.8900   -3.2080 N.pl3  37  ARG37       0.1354
     11  NH2       62.2040   13.7070   -2.9360 N.pl3  37  ARG37       0.1354
     12  N         62.8220   16.1240   -6.9000 N.am   38  GLU38      -0.1979
     13  CA        63.0320   17.4660   -6.3720 C.3    38  GLU38       0.1602
     14  C         62.5710   18.5700   -7.3330 C.2    38  GLU38       0.2287
     15  O         63.3320   19.4880   -7.6450 O.2    38  GLU38      -0.2864
     16  CB        64.5050   17.6700   -5.9950 C.3    38  GLU38       0.0415
     17  CG        65.0120   16.7440   -4.8890 C.3    38  GLU38       0.1163
     18  CD        65.4930   15.3910   -5.3970 C.2    38  GLU38       0.3649
     19  OE1       65.4110   14.4050   -4.6330 O.co2  38  GLU38      -0.2457
     20  OE2       65.9610   15.3110   -6.5510 O.co2  38  GLU38      -0.2457
     21  N         65.3600   18.4550  -10.9200 N.3    53  LEU53      -0.1245
     22  CA        66.6510   17.8040  -11.0670 C.3    53  LEU53       0.1561
     23  C         66.4780   16.5230  -11.8660 C.2    53  LEU53       0.2260
     24  O         65.8880   15.5570  -11.3800 O.2    53  LEU53      -0.2867
     25  CB        67.2560   17.4830   -9.7010 C.3    53  LEU53       0.0270
     26  CG        67.5450   18.6730   -8.7890 C.3    53  LEU53       0.0019
     27  CD1       68.1050   18.1900   -7.4600 C.3    53  LEU53       0.0001
     28  CD2       68.5090   19.6370   -9.4640 C.3    53  LEU53       0.0001
     29  N         70.7850    9.6790   -4.8650 N.3    70  ASP70      -0.1225
     30  CA        70.5530   11.1180   -4.7480 C.3    70  ASP70       0.1805
     31  C         71.4840   12.0110   -5.5650 C.2    70  ASP70       0.2597
     32  O         71.0510   13.0240   -6.1110 O.2    70  ASP70      -0.2718
     33  CB        70.6090   11.5430   -3.2780 C.3    70  ASP70       0.1424
     34  CG        69.3430   11.1990   -2.5290 C.2    70  ASP70       0.3668
     35  OD1       68.2520   11.5470   -3.0240 O.co2  70  ASP70      -0.2456
     36  OD2       69.4380   10.5810   -1.4490 O.co2  70  ASP70      -0.2456
     37  N         72.7610   11.6500   -5.6300 N.am   71  ARG71      -0.1979
     38  CA        73.7570   12.5300   -6.2280 C.3    71  ARG71       0.1597
     39  C         74.6160   11.7920   -7.2500 C.2    71  ARG71       0.2287
     40  O         75.0360   10.6590   -7.0200 O.2    71  ARG71      -0.2864
     41  CB        74.6240   13.1610   -5.1300 C.3    71  ARG71       0.0334
     42  CG        73.8080   13.9030   -4.0680 C.3    71  ARG71       0.0492
     43  CD        74.6580   14.3880   -2.8970 C.3    71  ARG71       0.2205
     44  NE        75.3380   13.2980   -2.2010 N.pl3  71  ARG71      -0.0865
     45  CZ        74.7500   12.4680   -1.3440 C.cat  71  ARG71       0.5346
     46  NH1       73.4560   12.5880   -1.0740 N.pl3  71  ARG71       0.1354
     47  NH2       75.4570   11.5090   -0.7600 N.pl3  71  ARG71       0.1354
     48  N         73.1790   14.4150  -12.9510 N.3    75  ARG75      -0.1245
     49  CA        72.0070   15.1990  -12.5920 C.3    75  ARG75       0.1563
     50  C         72.1500   16.6530  -13.0250 C.2    75  ARG75       0.2260
     51  O         73.2010   17.2740  -12.8430 O.2    75  ARG75      -0.2867
     52  CB        71.7150   15.1050  -11.0940 C.3    75  ARG75       0.0307
     53  CG        71.5370   13.6800  -10.5970 C.3    75  ARG75       0.0489
     54  CD        70.6740   13.6290   -9.3490 C.3    75  ARG75       0.2205
     55  NE        69.2680   13.8950   -9.6430 N.pl3  75  ARG75      -0.0865
     56  CZ        68.2920   13.8280   -8.7430 C.cat  75  ARG75       0.5346
     57  NH1       68.5710   13.5040   -7.4880 N.pl3  75  ARG75       0.1354
     58  NH2       67.0380   14.0830   -9.0940 N.pl3  75  ARG75       0.1354
     59  N         72.9030   18.4460   -8.3530 N.3    98  TRP98      -0.1227
     60  CA        72.1370   17.4730   -7.5820 C.3    98  TRP98       0.1737
     61  C         71.4580   18.1100   -6.3650 C.2    98  TRP98       0.2596
     62  O         70.8230   17.4250   -5.5660 O.2    98  TRP98      -0.2718
     63  CB        72.9620   16.2310   -7.2020 C.3    98  TRP98       0.0564
     64  CG        74.3710   16.4640   -6.7070 C.ar   98  TRP98       0.0003
     65  CD1       75.5290   16.1500   -7.3640 C.ar   98  TRP98       0.0946
     66  CD2       74.7670   17.0180   -5.4430 C.ar   98  TRP98       0.0152
     67  NE1       76.6170   16.4840   -6.5930 N.ar   98  TRP98      -0.2442
     68  CE2       76.1770   17.0190   -5.4100 C.ar   98  TRP98       0.0810
     69  CE3       74.0670   17.5180   -4.3400 C.ar   98  TRP98       0.0012
     70  CZ2       76.9010   17.5010   -4.3190 C.ar   98  TRP98       0.0191
     71  CZ3       74.7880   17.9960   -3.2570 C.ar   98  TRP98       0.0001
     72  CH2       76.1900   17.9860   -3.2570 C.ar   98  TRP98       0.0015
     73  N         71.5970   19.4280   -6.2420 N.am   99  SER99      -0.1952
     74  CA        70.8250   20.2250   -5.2910 C.3    99  SER99       0.1924
     75  C         70.7120   21.6220   -5.8850 C.2    99  SER99       0.2314
     76  O         71.6520   22.0960   -6.5270 O.2    99  SER99      -0.2863
     77  CB        71.5060   20.2680   -3.9200 C.3    99  SER99       0.2116
     78  OG        70.7340   21.0060   -2.9850 O.3    99  SER99      -0.2180
     79  N         78.5050   17.2990    2.0280 N.3   142  ILE142     -0.1245
     80  CA        77.3070   17.4710    1.2070 C.3   142  ILE142      0.1561
     81  C         76.6560   18.8470    1.3210 C.2   142  ILE142      0.2260
     82  O         75.5560   18.9860    1.8600 O.2   142  ILE142     -0.2867
     83  CB        76.2530   16.3760    1.4680 C.3   142  ILE142      0.0252
     84  CG1       76.9200   15.0000    1.5180 C.3   142  ILE142      0.0019
     85  CG2       75.1770   16.4130    0.3860 C.3   142  ILE142      0.0019
     86  CD1       75.9660   13.8630    1.8170 C.3   142  ILE142      0.0001
     87  N         74.3530   21.6060    0.4930 N.3   144  ARG144     -0.1245
     88  CA        73.0230   21.3900   -0.0620 C.3   144  ARG144      0.1563
     89  C         72.1140   22.5800    0.2030 C.2   144  ARG144      0.2260
     90  O         72.3320   23.3430    1.1430 O.2   144  ARG144     -0.2867
     91  CB        72.4230   20.0900    0.4870 C.3   144  ARG144      0.0307
     92  CG        72.5040   19.9310    2.0030 C.3   144  ARG144      0.0489
     93  CD        72.3930   18.4570    2.3940 C.3   144  ARG144      0.2205
     94  NE        72.2060   18.2610    3.8310 N.pl3 144  ARG144     -0.0865
     95  CZ        73.1970   18.1640    4.7130 C.cat 144  ARG144      0.5346
     96  NH1       74.4570   18.2520    4.3090 N.pl3 144  ARG144      0.1354
     97  NH2       72.9280   17.9830    6.0010 N.pl3 144  ARG144      0.1354
     98  N         66.0180   23.1710   -2.7720 N.3   147  GLU147     -0.1245
     99  CA        65.1560   22.3850   -3.6560 C.3   147  GLU147      0.1567
    100  C         63.7890   23.0570   -3.8120 C.2   147  GLU147      0.2260
    101  O         62.7790   22.3930   -4.0510 O.2   147  GLU147     -0.2867
    102  CB        64.9840   20.9380   -3.1730 C.3   147  GLU147      0.0388
    103  CG        66.2020   20.3190   -2.4930 C.3   147  GLU147      0.1160
    104  CD        67.4210   20.2070   -3.3960 C.2   147  GLU147      0.3649
    105  OE1       67.3520   20.6220   -4.5720 O.co2 147  GLU147     -0.2457
    106  OE2       68.4570   19.6940   -2.9170 O.co2 147  GLU147     -0.2457
    107  N         73.4450   14.9860    8.4660 N.3   166  SER166     -0.1217
    108  CA        71.9920   15.0020    8.3880 C.3   166  SER166      0.1889
    109  C         71.3900   14.3230    9.6150 C.2   166  SER166      0.2288
    110  O         70.1700   14.2760    9.7710 O.2   166  SER166     -0.2866
    111  CB        71.5130   14.3080    7.1130 C.3   166  SER166      0.2089
    112  OG        71.9270   12.9540    7.0840 O.3   166  SER166     -0.2183
    113  N         67.2680   21.8360    6.8290 N.3   196  GLU196     -0.1231
    114  CA        67.5080   21.3260    5.4820 C.3   196  GLU196      0.1699
    115  C         66.3790   21.7920    4.5750 C.2   196  GLU196      0.2592
    116  O         65.2510   21.9640    5.0310 O.2   196  GLU196     -0.2718
    117  CB        67.5080   19.7950    5.4660 C.3   196  GLU196      0.0402
    118  CG        68.3650   19.1270    6.5210 C.3   196  GLU196      0.1161
    119  CD        69.6780   18.6280    5.9680 C.2   196  GLU196      0.3649
    120  OE1       70.0610   17.4770    6.2770 O.co2 196  GLU196     -0.2457
    121  OE2       70.3220   19.3880    5.2170 O.co2 196  GLU196     -0.2457
    122  N         66.6780   21.9920    3.2960 N.am  197  GLU197     -0.1979
    123  CA        65.6300   22.1200    2.2840 C.3   197  GLU197      0.1602
    124  C         64.5670   23.1670    2.6170 C.2   197  GLU197      0.2287
    125  O         63.3670   22.8920    2.5730 O.2   197  GLU197     -0.2864
    126  CB        64.9900   20.7500    2.0480 C.3   197  GLU197      0.0415
    127  CG        65.9790   19.7550    1.4640 C.3   197  GLU197      0.1163
    128  CD        65.4450   18.3430    1.3680 C.2   197  GLU197      0.3649
    129  OE1       64.4920   18.0010    2.0990 O.co2 197  GLU197     -0.2457
    130  OE2       65.9990   17.5690    0.5590 O.co2 197  GLU197     -0.2457
    131  N         63.3200   21.6110    7.1240 N.3   212  ARG212     -0.1245
    132  CA        63.2630   20.2090    7.5190 C.3   212  ARG212      0.1563
    133  C         64.3590   19.9120    8.5360 C.2   212  ARG212      0.2260
    134  O         65.5370   20.1340    8.2660 O.2   212  ARG212     -0.2867
    135  CB        63.4350   19.3260    6.2780 C.3   212  ARG212      0.0307
    136  CG        63.7720   17.8580    6.5310 C.3   212  ARG212      0.0489
    137  CD        64.0170   17.1550    5.1950 C.3   212  ARG212      0.2205
    138  NE        64.4790   15.7750    5.3320 N.pl3 212  ARG212     -0.0865
    139  CZ        64.6590   14.9460    4.3070 C.cat 212  ARG212      0.5346
    140  NH1       64.4100   15.3550    3.0700 N.pl3 212  ARG212      0.1354
    141  NH2       65.0820   13.7060    4.5160 N.pl3 212  ARG212      0.1354
    142  N         66.2310   17.0450   10.1200 N.3   214  ASN214     -0.1240
    143  CA        66.4340   15.6250    9.8560 C.3   214  ASN214      0.1653
    144  C         67.0610   14.9000   11.0380 C.2   214  ASN214      0.2266
    145  O         67.2060   13.6790   11.0330 O.2   214  ASN214     -0.2867
    146  CB        67.3130   15.4390    8.6220 C.3   214  ASN214      0.1155
    147  CG        66.9500   14.2020    7.8380 C.2   214  ASN214      0.2627
    148  OD1       65.8450   14.0970    7.3100 O.2   214  ASN214     -0.2716
    149  ND2       67.8770   13.2550    7.7570 N.am  214  ASN214     -0.0877
    150  N         65.0920   11.8490   10.5020 N.3   263  ASN263     -0.1240
    151  CA        64.6380   11.8020    9.1170 C.3   263  ASN263      0.1653
    152  C         63.5910   12.8630    8.8580 C.2   263  ASN263      0.2266
    153  O         63.3840   13.7190    9.6990 O.2   263  ASN263     -0.2867
    154  CB        64.1710   10.3990    8.7690 C.3   263  ASN263      0.1155
    155  CG        65.3160    9.4190    8.8110 C.2   263  ASN263      0.2627
    156  OD1       66.3980    9.7140    8.3040 O.2   263  ASN263     -0.2716
    157  ND2       65.1110    8.2750    9.4460 N.am  263  ASN263     -0.0877
    158  N         55.6420    8.7000    3.0450 N.3   287  ARG287     -0.1245
    159  CA        55.3170    9.7970    2.1440 C.3   287  ARG287      0.1563
    160  C         54.0560    9.4980    1.3410 C.2   287  ARG287      0.2260
    161  O         54.1050    9.2790    0.1300 O.2   287  ARG287     -0.2867
    162  CB        56.5110   10.1070    1.2420 C.3   287  ARG287      0.0307
    163  CG        57.7090   10.5990    2.0420 C.3   287  ARG287      0.0489
    164  CD        58.9930   10.6560    1.2370 C.3   287  ARG287      0.2205
    165  NE        60.0510   11.2680    2.0370 N.pl3 287  ARG287     -0.0865
    166  CZ        61.2620   11.5740    1.5870 C.cat 287  ARG287      0.5346
    167  NH1       61.5930   11.3220    0.3280 N.pl3 287  ARG287      0.1354
    168  NH2       62.1430   12.1370    2.4020 N.pl3 287  ARG287      0.1354
    169  N         57.9930   15.3940   -1.5930 N.3   321  TYR321     -0.1241
    170  CA        58.3740   16.7590   -1.2610 C.3   321  TYR321      0.1605
    171  C         57.2290   17.7290   -1.5160 C.2   321  TYR321      0.2264
    172  O         56.3510   17.4710   -2.3360 O.2   321  TYR321     -0.2867
    173  CB        59.5990   17.1820   -2.0760 C.3   321  TYR321      0.0534
    174  CG        60.9100   16.7420   -1.4710 C.ar  321  TYR321     -0.0201
    175  CD1       60.9540   15.7250   -0.5270 C.ar  321  TYR321     -0.0009
    176  CD2       62.1050   17.3430   -1.8440 C.ar  321  TYR321     -0.0009
    177  CE1       62.1490   15.3210    0.0340 C.ar  321  TYR321      0.0417
    178  CE2       63.3070   16.9440   -1.2920 C.ar  321  TYR321      0.0417
    179  CZ        63.3210   15.9330   -0.3520 C.ar  321  TYR321      0.1957
    180  OH        64.5100   15.5350    0.2070 O.3   321  TYR321     -0.2866
@<TRIPOS>BOND
     1    50    51    2
     2    50    49    1
     3    48    49    1
     4    49    52    1
     5    23    24    2
     6    23    22    1
     7    52    53    1
     8    22    21    1
     9    22    25    1
    10    53    54    1
    11     1     2    1
    12    25    26    1
    13    55    54    1
    14    55    56    2
    15    28    26    1
    16    58    56    1
    17     4     3    2
    18    26    27    1
    19    56    57    1
    20     2     3    1
    21     2     5    1
    22    59    60    1
    23     3    12   am
    24    15    14    2
    25    60    63    1
    26    60    61    1
    27     5     6    1
    28    65    64   ar
    29    65    67   ar
    30    14    13    1
    31     6     7    1
    32    39    40    2
    33    39    38    1
    34    63    64    1
    35    12    13    1
    36    64    66   ar
    37    67    68   ar
    38    20    18   ar
    39    76    75    2
    40    13    16    1
    41    61    73   am
    42    61    62    2
    43    73    74    1
    44    38    37    1
    45    38    41    1
    46    32    31    2
    47    16    17    1
    48     7     8    1
    49    75    74    1
    50    37    31   am
    51    31    30    1
    52    66    68   ar
    53    66    69   ar
    54    68    70   ar
    55    18    17    1
    56    18    19   ar
    57    74    77    1
    58    41    42    1
    59     8     9    2
    60    29    30    1
    61    30    33    1
    62   105   104   ar
    63    69    71   ar
    64    70    72   ar
    65    42    43    1
    66   101   100    2
    67    77    78    1
    68   100    99    1
    69     9    10    1
    70     9    11    1
    71    99   102    1
    72    99    98    1
    73   104   106   ar
    74   104   103    1
    75    33    34    1
    76    71    72   ar
    77   102   103    1
    78    35    34   ar
    79    43    44    1
    80    34    36   ar
    81   172   171    2
    82    44    45    2
    83   173   174    1
    84   173   170    1
    85   176   174   ar
    86   176   178   ar
    87   169   170    1
    88   171   170    1
    89   174   175   ar
    90    45    46    1
    91    45    47    1
    92   178   179   ar
    93   175   177   ar
    94   179   177   ar
    95   179   180    1
    96    88    89    1
    97    88    91    1
    98    88    87    1
    99   161   160    2
   100    89    90    2
   101   167   166    1
   102    85    83    1
   103    91    92    1
   104   130   128   ar
   105    80    81    1
   106    80    83    1
   107    80    79    1
   108   164   165    1
   109   164   163    1
   110   162   163    1
   111   162   159    1
   112    81    82    2
   113   160   159    1
   114   128   127    1
   115   128   129   ar
   116   127   126    1
   117    83    84    1
   118    84    86    1
   119   166   165    2
   120   166   168    1
   121    92    93    1
   122   126   123    1
   123   159   158    1
   124   123   124    1
   125   123   122    1
   126    93    94    1
   127   125   124    2
   128   140   139    1
   129   122   115   am
   130    94    95    2
   131   139   141    1
   132   139   138    2
   133    96    95    1
   134   115   116    2
   135   115   114    1
   136    95    97    1
   137   137   138    1
   138   137   136    1
   139   121   119   ar
   140   117   114    1
   141   117   118    1
   142   114   113    1
   143   119   120   ar
   144   119   118    1
   145   135   136    1
   146   135   132    1
   147   112   111    1
   148   111   108    1
   149   131   132    1
   150   148   147    2
   151   132   133    1
   152   149   147   am
   153   147   146    1
   154   134   133    2
   155   156   155    2
   156   108   107    1
   157   108   109    1
   158   146   143    1
   159   154   155    1
   160   154   151    1
   161   155   157   am
   162   152   151    1
   163   152   153    2
   164   151   150    1
   165   109   110    2
   166   143   142    1
   167   143   144    1
   168   145   144    2
