@<TRIPOS>MOLECULE
tmp/3ti8B02.pdb
 183 172 0 0 0
SMALL
GASTEIGER

@<TRIPOS>ATOM
      1  N         45.6670  -38.8960  -19.9480 N.3    37  ARG37      -0.1231
      2  CA        45.7740  -37.4510  -19.7860 C.3    37  ARG37       0.1694
      3  C         45.3940  -37.1400  -18.3450 C.2    37  ARG37       0.2591
      4  O         45.0860  -38.0540  -17.5730 O.2    37  ARG37      -0.2718
      5  CB        44.9080  -36.6710  -20.7850 C.3    37  ARG37       0.0321
      6  CG        45.6930  -36.0920  -21.9780 C.3    37  ARG37       0.0489
      7  CD        45.1000  -34.7620  -22.4590 C.3    37  ARG37       0.2205
      8  NE        45.1990  -33.7510  -21.4080 N.pl3  37  ARG37      -0.0865
      9  CZ        44.3510  -32.7380  -21.2470 C.cat  37  ARG37       0.5346
     10  NH1       43.3250  -32.5770  -22.0750 N.pl3  37  ARG37       0.1354
     11  NH2       44.5290  -31.8840  -20.2470 N.pl3  37  ARG37       0.1354
     12  N         45.4380  -35.8660  -17.9730 N.am   38  GLU38      -0.1979
     13  CA        45.0940  -35.4540  -16.6120 C.3    38  GLU38       0.1602
     14  C         45.8880  -36.2110  -15.5320 C.2    38  GLU38       0.2287
     15  O         45.3050  -36.7890  -14.6110 O.2    38  GLU38      -0.2864
     16  CB        43.5820  -35.5990  -16.3710 C.3    38  GLU38       0.0415
     17  CG        42.6950  -34.7540  -17.3020 C.3    38  GLU38       0.1163
     18  CD        42.4170  -35.4110  -18.6530 C.2    38  GLU38       0.3649
     19  OE1       42.2300  -34.6770  -19.6490 O.co2  38  GLU38      -0.2457
     20  OE2       42.3740  -36.6570  -18.7310 O.co2  38  GLU38      -0.2457
     21  N         44.4740  -40.5200  -15.6760 N.3    53  LEU53      -0.1245
     22  CA        43.2940  -41.0770  -16.3120 C.3    53  LEU53       0.1561
     23  C         43.7060  -41.7680  -17.6050 C.2    53  LEU53       0.2260
     24  O         44.0930  -41.1080  -18.5760 O.2    53  LEU53      -0.2867
     25  CB        42.2850  -39.9700  -16.6100 C.3    53  LEU53       0.0270
     26  CG        41.7180  -39.2710  -15.3760 C.3    53  LEU53       0.0019
     27  CD1       40.7320  -38.1940  -15.7980 C.3    53  LEU53       0.0001
     28  CD2       41.0520  -40.2900  -14.4480 C.3    53  LEU53       0.0001
     29  N         37.2770  -36.6990  -24.4110 N.3    70  ASP70      -0.1225
     30  CA        37.4250  -36.5470  -22.9620 C.3    70  ASP70       0.1805
     31  C         36.8450  -37.6630  -22.1040 C.2    70  ASP70       0.2597
     32  O         37.4100  -37.9960  -21.0610 O.2    70  ASP70      -0.2718
     33  CB        36.8240  -35.2190  -22.4940 C.3    70  ASP70       0.1424
     34  CG        37.7420  -34.0480  -22.7500 C.2    70  ASP70       0.3668
     35  OD1       37.2640  -33.0340  -23.2920 O.co2  70  ASP70      -0.2456
     36  OD2       38.9450  -34.1480  -22.4190 O.co2  70  ASP70      -0.2456
     37  N         35.7060  -38.2150  -22.5120 N.am   71  ARG71      -0.1979
     38  CA        34.9950  -39.1590  -21.6540 C.3    71  ARG71       0.1597
     39  C         34.5820  -40.4240  -22.4000 C.2    71  ARG71       0.2287
     40  O         34.1270  -40.3640  -23.5410 O.2    71  ARG71      -0.2864
     41  CB        33.7770  -38.4680  -21.0280 C.3    71  ARG71       0.0334
     42  CG        34.1470  -37.1700  -20.2950 C.3    71  ARG71       0.0492
     43  CD        32.9260  -36.4310  -19.7620 C.3    71  ARG71       0.2205
     44  NE        32.0380  -35.9950  -20.8370 N.pl3  71  ARG71      -0.0865
     45  CZ        32.2710  -34.9470  -21.6200 C.cat  71  ARG71       0.5346
     46  NH1       33.3690  -34.2130  -21.4490 N.pl3  71  ARG71       0.1354
     47  NH2       31.4060  -34.6290  -22.5740 N.pl3  71  ARG71       0.1354
     48  N         37.8730  -45.2130  -19.6710 N.3    75  ARG75      -0.1245
     49  CA        38.8410  -44.4460  -18.8930 C.3    75  ARG75       0.1563
     50  C         38.8490  -44.8990  -17.4350 C.2    75  ARG75       0.2260
     51  O         37.8010  -45.1750  -16.8490 O.2    75  ARG75      -0.2867
     52  CB        38.5680  -42.9420  -18.9910 C.3    75  ARG75       0.0307
     53  CG        38.5450  -42.4190  -20.4250 C.3    75  ARG75       0.0489
     54  CD        38.9120  -40.9440  -20.4900 C.3    75  ARG75       0.2205
     55  NE        40.3270  -40.7130  -20.2100 N.pl3  75  ARG75      -0.0865
     56  CZ        40.9120  -39.5230  -20.2790 C.cat  75  ARG75       0.5346
     57  NH1       40.1950  -38.4580  -20.6210 N.pl3  75  ARG75       0.1354
     58  NH2       42.2110  -39.3970  -20.0150 N.pl3  75  ARG75       0.1354
     59  N         36.5050  -40.8340  -15.6270 N.3    98  TRP98      -0.1227
     60  CA        36.9320  -39.8490  -16.6180 C.3    98  TRP98       0.1737
     61  C         37.1500  -38.4670  -15.9940 C.2    98  TRP98       0.2596
     62  O         37.4350  -37.4910  -16.6900 O.2    98  TRP98      -0.2718
     63  CB        36.0250  -39.7980  -17.8650 C.3    98  TRP98       0.0564
     64  CG        34.5250  -39.8330  -17.6520 C.ar   98  TRP98       0.0003
     65  CD1       33.6750  -40.8470  -18.0070 C.ar   98  TRP98       0.0946
     66  CD2       33.7010  -38.7970  -17.1000 C.ar   98  TRP98       0.0152
     67  NE1       32.3770  -40.5100  -17.6960 N.ar   98  TRP98      -0.2442
     68  CE2       32.3660  -39.2580  -17.1380 C.ar   98  TRP98       0.0810
     69  CE3       33.9610  -37.5290  -16.5670 C.ar   98  TRP98       0.0012
     70  CZ2       31.2970  -38.4970  -16.6610 C.ar   98  TRP98       0.0191
     71  CZ3       32.8990  -36.7730  -16.0960 C.ar   98  TRP98       0.0001
     72  CH2       31.5830  -37.2610  -16.1480 C.ar   98  TRP98       0.0015
     73  N         37.0240  -38.4070  -14.6700 N.am   99  SER99      -0.1952
     74  CA        37.3990  -37.2360  -13.8810 C.3    99  SER99       0.1924
     75  C         37.6740  -37.7560  -12.4730 C.2    99  SER99       0.2314
     76  O         36.9980  -38.6790  -12.0150 O.2    99  SER99      -0.2863
     77  CB        36.2710  -36.2040  -13.8700 C.3    99  SER99       0.2116
     78  OG        36.6320  -35.0630  -13.1140 O.3    99  SER99      -0.2180
     79  N         27.5240  -33.1950  -16.6280 N.3   142  ILE142     -0.1245
     80  CA        28.9400  -33.5380  -16.5230 C.3   142  ILE142      0.1561
     81  C         29.5440  -33.2200  -15.1520 C.2   142  ILE142      0.2260
     82  O         30.4000  -32.3420  -15.0190 O.2   142  ILE142     -0.2867
     83  CB        29.7800  -32.9120  -17.6660 C.3   142  ILE142      0.0252
     84  CG1       29.1030  -33.1580  -19.0210 C.3   142  ILE142      0.0019
     85  CG2       31.1980  -33.4830  -17.6600 C.3   142  ILE142      0.0019
     86  CD1       29.8080  -32.5080  -20.1970 C.3   142  ILE142      0.0001
     87  N         31.9990  -33.2090  -12.3870 N.3   144  ARG144     -0.1245
     88  CA        33.4410  -33.2270  -12.6070 C.3   144  ARG144      0.1563
     89  C         34.2030  -32.6670  -11.4170 C.2   144  ARG144      0.2260
     90  O         33.6520  -31.9270  -10.5970 O.2   144  ARG144     -0.2867
     91  CB        33.7910  -32.4670  -13.8920 C.3   144  ARG144      0.0307
     92  CG        33.2460  -31.0390  -13.9560 C.3   144  ARG144      0.0489
     93  CD        33.1720  -30.5790  -15.4050 C.3   144  ARG144      0.2205
     94  NE        32.8060  -29.1710  -15.5760 N.pl3 144  ARG144     -0.0865
     95  CZ        31.5560  -28.7200  -15.6540 C.cat 144  ARG144      0.5346
     96  NH1       30.5310  -29.5570  -15.5380 N.pl3 144  ARG144      0.1354
     97  NH2       31.3280  -27.4260  -15.8370 N.pl3 144  ARG144      0.1354
     98  N         40.9840  -33.1980  -10.8820 N.3   147  GLU147     -0.1245
     99  CA        42.1080  -33.7480  -11.6470 C.3   147  GLU147      0.1567
    100  C         43.4350  -33.4230  -10.9540 C.2   147  GLU147      0.2260
    101  O         44.4700  -33.2450  -11.6050 O.2   147  GLU147     -0.2867
    102  CB        42.1340  -33.2430  -13.0950 C.3   147  GLU147      0.0388
    103  CG        40.7690  -32.9980  -13.7340 C.3   147  GLU147      0.1160
    104  CD        39.9020  -34.2410  -13.8360 C.2   147  GLU147      0.3649
    105  OE1       40.3470  -35.3320  -13.4270 O.co2 147  GLU147     -0.2457
    106  OE2       38.7590  -34.1170  -14.3330 O.co2 147  GLU147     -0.2457
    107  N         29.7210  -25.7480  -19.1350 N.3   166  ALA166     -0.1245
    108  CA        31.1520  -25.5170  -19.2810 C.3   166  ALA166      0.1562
    109  C         31.4730  -24.0490  -19.5600 C.2   166  ALA166      0.2260
    110  O         32.5670  -23.5800  -19.2400 O.2   166  ALA166     -0.2867
    111  CB        31.7100  -26.3910  -20.4020 C.3   166  ALA166      0.0290
    112  N         36.3540  -24.6570  -11.9410 N.3   196  GLU196     -0.1231
    113  CA        36.6150  -26.0120  -12.4060 C.3   196  GLU196      0.1699
    114  C         38.0350  -26.4070  -12.0410 C.2   196  GLU196      0.2592
    115  O         38.9010  -25.5510  -11.8800 O.2   196  GLU196     -0.2718
    116  CB        36.4760  -26.1060  -13.9240 C.3   196  GLU196      0.0402
    117  CG        35.0850  -25.8780  -14.4650 C.3   196  GLU196      0.1161
    118  CD        35.0070  -26.1520  -15.9560 C.2   196  GLU196      0.3649
    119  OE1       33.9510  -26.6270  -16.4190 O.co2 196  GLU196     -0.2457
    120  OE2       36.0080  -25.9000  -16.6620 O.co2 196  GLU196     -0.2457
    121  N         38.2680  -27.7100  -11.9180 N.am  197  GLU197     -0.1979
    122  CA        39.6220  -28.2480  -11.8230 C.3   197  GLU197      0.1602
    123  C         40.4980  -27.5320  -10.8010 C.2   197  GLU197      0.2287
    124  O         41.6210  -27.1320  -11.1000 O.2   197  GLU197     -0.2864
    125  CB        40.2710  -28.2450  -13.2120 C.3   197  GLU197      0.0415
    126  CG        39.5410  -29.1630  -14.1800 C.3   197  GLU197      0.1163
    127  CD        40.0450  -29.0720  -15.6040 C.2   197  GLU197      0.3649
    128  OE1       40.6810  -28.0530  -15.9600 O.co2 197  GLU197     -0.2457
    129  OE2       39.7900  -30.0250  -16.3740 O.co2 197  GLU197     -0.2457
    130  N         40.1740  -23.0140  -12.3010 N.3   212  ARG212     -0.1245
    131  CA        40.0180  -22.6200  -13.6950 C.3   212  ARG212      0.1563
    132  C         38.6290  -22.0450  -13.9090 C.2   212  ARG212      0.2260
    133  O         37.6350  -22.6630  -13.5370 O.2   212  ARG212     -0.2867
    134  CB        40.2130  -23.8440  -14.5950 C.3   212  ARG212      0.0307
    135  CG        39.7150  -23.7070  -16.0320 C.3   212  ARG212      0.0489
    136  CD        39.8880  -25.0410  -16.7530 C.3   212  ARG212      0.2205
    137  NE        39.3830  -25.0540  -18.1260 N.pl3 212  ARG212     -0.0865
    138  CZ        39.5850  -26.0630  -18.9710 C.cat 212  ARG212      0.5346
    139  NH1       40.2970  -27.1200  -18.5870 N.pl3 212  ARG212      0.1354
    140  NH2       39.0940  -26.0160  -20.2000 N.pl3 212  ARG212      0.1354
    141  N         36.1690  -21.2810  -16.8070 N.3   214  ASN214     -0.1240
    142  CA        36.0100  -21.6360  -18.2170 C.3   214  ASN214      0.1653
    143  C         34.9500  -20.7830  -18.9000 C.2   214  ASN214      0.2266
    144  O         34.4560  -21.1250  -19.9770 O.2   214  ASN214     -0.2867
    145  CB        35.6480  -23.1210  -18.3500 C.3   214  ASN214      0.1155
    146  CG        36.1620  -23.7350  -19.6380 C.2   214  ASN214      0.2627
    147  OD1       37.3630  -23.6960  -19.9230 O.2   214  ASN214     -0.2716
    148  ND2       35.2580  -24.3160  -20.4200 N.am  214  ASN214     -0.0877
    149  N         37.0810  -20.7260  -22.4490 N.3   268  TYR268     -0.1241
    150  CA        38.0910  -21.7720  -22.3510 C.3   268  TYR268      0.1605
    151  C         39.0040  -21.4840  -21.1780 C.2   268  TYR268      0.2264
    152  O         38.7650  -20.5480  -20.4220 O.2   268  TYR268     -0.2867
    153  CB        38.8850  -21.9130  -23.6520 C.3   268  TYR268      0.0534
    154  CG        39.4650  -23.2980  -23.8590 C.ar  268  TYR268     -0.0201
    155  CD1       38.6610  -24.4300  -23.7640 C.ar  268  TYR268     -0.0009
    156  CD2       40.8100  -23.4750  -24.1550 C.ar  268  TYR268     -0.0009
    157  CE1       39.1830  -25.7020  -23.9580 C.ar  268  TYR268      0.0417
    158  CE2       41.3430  -24.7440  -24.3490 C.ar  268  TYR268      0.0417
    159  CZ        40.5220  -25.8530  -24.2520 C.ar  268  TYR268      0.1957
    160  OH        41.0440  -27.1180  -24.4460 O.3   268  TYR268     -0.2866
    161  N         48.5780  -24.0540  -25.3120 N.3   292  ARG292     -0.1245
    162  CA        49.1650  -24.7630  -24.1870 C.3   292  ARG292      0.1563
    163  C         50.6080  -25.1030  -24.5250 C.2   292  ARG292      0.2260
    164  O         50.9520  -26.2530  -24.7910 O.2   292  ARG292     -0.2867
    165  CB        48.3340  -26.0010  -23.8540 C.3   292  ARG292      0.0307
    166  CG        46.9540  -25.6280  -23.3270 C.3   292  ARG292      0.0489
    167  CD        45.9730  -26.7890  -23.3230 C.3   292  ARG292      0.2205
    168  NE        44.7180  -26.3880  -22.6900 N.pl3 292  ARG292     -0.0865
    169  CZ        43.7530  -27.2310  -22.3440 C.cat 292  ARG292      0.5346
    170  NH1       43.8920  -28.5300  -22.5900 N.pl3 292  ARG292      0.1354
    171  NH2       42.6510  -26.7760  -21.7520 N.pl3 292  ARG292      0.1354
    172  N         47.9710  -29.1850  -18.5200 N.3   326  TYR326     -0.1241
    173  CA        47.5460  -28.9820  -17.1390 C.3   326  TYR326      0.1605
    174  C         48.7290  -28.8360  -16.1830 C.2   326  TYR326      0.2264
    175  O         49.8340  -29.2900  -16.4670 O.2   326  TYR326     -0.2867
    176  CB        46.6670  -30.1550  -16.6940 C.3   326  TYR326      0.0534
    177  CG        45.2340  -30.0750  -17.1720 C.ar  326  TYR326     -0.0201
    178  CD1       44.8590  -29.1730  -18.1630 C.ar  326  TYR326     -0.0009
    179  CD2       44.2530  -30.8940  -16.6240 C.ar  326  TYR326     -0.0009
    180  CE1       43.5400  -29.0830  -18.5900 C.ar  326  TYR326      0.0417
    181  CE2       42.9350  -30.8160  -17.0470 C.ar  326  TYR326      0.0417
    182  CZ        42.5860  -29.9060  -18.0280 C.ar  326  TYR326      0.1957
    183  OH        41.2780  -29.8220  -18.4500 O.3   326  TYR326     -0.2866
@<TRIPOS>BOND
     1   161   162    1
     2   164   163    2
     3   163   162    1
     4   160   159    1
     5    29    30    1
     6   158   159   ar
     7   158   156   ar
     8   159   157   ar
     9   162   165    1
    10   156   154   ar
    11   157   155   ar
    12   154   155   ar
    13   154   153    1
    14   165   166    1
    15   153   150    1
    16    40    39    2
    17   166   167    1
    18   167   168    1
    19    35    34   ar
    20    30    33    1
    21    30    31    1
    22    34    33    1
    23    34    36   ar
    24   168   169    2
    25   170   169    1
    26    47    45    1
    27    37    31   am
    28    37    38    1
    29     7     6    1
    30     7     8    1
    31   149   150    1
    32    39    38    1
    33   150   151    1
    34   169   171    1
    35    31    32    2
    36    10     9    1
    37     6     5    1
    38    38    41    1
    39    45    46    1
    40    45    44    2
    41     8     9    2
    42     9    11    1
    43   151   152    2
    44    41    42    1
    45    44    43    1
    46     5     2    1
    47    57    56    1
    48    54    53    1
    49    54    55    1
    50    53    52    1
    51   148   146   am
    52   111   108    1
    53    42    43    1
    54    56    55    2
    55    56    58    1
    56   140   138    1
    57    86    84    1
    58   144   143    2
    59     1     2    1
    60   147   146    2
    61     2     3    1
    62    48    49    1
    63    19    18   ar
    64   146   145    1
    65   109   108    1
    66   109   110    2
    67   108   107    1
    68    84    83    1
    69    52    49    1
    70   138   139    1
    71   138   137    2
    72   143   142    1
    73    49    50    1
    74    20    18   ar
    75    18    17    1
    76   180   178   ar
    77   180   182   ar
    78    24    23    2
    79   172   173    1
    80   183   182    1
    81   145   142    1
    82     3    12   am
    83     3     4    2
    84   142   141    1
    85   178   177   ar
    86   137   136    1
    87   182   181   ar
    88    65    67   ar
    89    65    64   ar
    90    12    13    1
    91    63    64    1
    92    63    60    1
    93    67    68   ar
    94    83    85    1
    95    83    80    1
    96    64    66   ar
    97    23    22    1
    98    50    51    2
    99    17    16    1
   100   177   176    1
   101   177   179   ar
   102   173   176    1
   103   173   174    1
   104    68    66   ar
   105    68    70   ar
   106    66    69   ar
   107   181   179   ar
   108   136   135    1
   109    62    61    2
   110   120   118   ar
   111    70    72   ar
   112    79    80    1
   113    60    61    1
   114    60    59    1
   115    13    16    1
   116    13    14    1
   117    25    22    1
   118    25    26    1
   119    69    71   ar
   120    80    81    1
   121   175   174    2
   122   119   118   ar
   123   129   127   ar
   124    22    21    1
   125    72    71   ar
   126   135   134    1
   127    61    73   am
   128   128   127   ar
   129   118   117    1
   130    97    95    1
   131    27    26    1
   132    95    94    2
   133    95    96    1
   134   127   126    1
   135    94    93    1
   136    14    15    2
   137    93    92    1
   138    26    28    1
   139    81    82    2
   140    73    74    1
   141   134   131    1
   142   117   116    1
   143   106   104   ar
   144   126   125    1
   145    92    91    1
   146   116   113    1
   147   132   131    1
   148   132   133    2
   149    91    88    1
   150    74    77    1
   151    74    75    1
   152    77    78    1
   153   104   103    1
   154   104   105   ar
   155   103   102    1
   156   131   130    1
   157   125   122    1
   158   102    99    1
   159    88    87    1
   160    88    89    1
   161    75    76    2
   162   113   114    1
   163   113   112    1
   164   114   121   am
   165   114   115    2
   166   121   122    1
   167   122   123    1
   168    99   100    1
   169    99    98    1
   170   101   100    2
   171    89    90    2
   172   124   123    2
