@<TRIPOS>MOLECULE
tmp/3tiaC01.pdb
 171 160 0 0 0
SMALL
GASTEIGER

@<TRIPOS>ATOM
      1  N         18.3950   -7.9160   44.6870 N.3    37  ARG37      -0.1231
      2  CA        18.0670   -9.3410   44.7300 C.3    37  ARG37       0.1694
      3  C         16.7880   -9.5430   43.9160 C.2    37  ARG37       0.2591
      4  O         16.1990   -8.5740   43.4330 O.2    37  ARG37      -0.2718
      5  CB        17.9100   -9.8700   46.1680 C.3    37  ARG37       0.0321
      6  CG        19.1250  -10.6750   46.6710 C.3    37  ARG37       0.0489
      7  CD        18.7220  -11.8370   47.5970 C.3    37  ARG37       0.2205
      8  NE        18.0010  -12.8640   46.8500 N.pl3  37  ARG37      -0.0865
      9  CZ        17.0690  -13.6640   47.3570 C.cat  37  ARG37       0.5346
     10  NH1       16.7380  -13.5870   48.6410 N.pl3  37  ARG37       0.1354
     11  NH2       16.4630  -14.5480   46.5700 N.pl3  37  ARG37       0.1354
     12  N         16.3850  -10.7970   43.7390 N.am   38  GLU38      -0.1979
     13  CA        15.1700  -11.1290   42.9940 C.3    38  GLU38       0.1602
     14  C         15.1600  -10.5680   41.5720 C.2    38  GLU38       0.2287
     15  O         14.2190   -9.8660   41.1820 O.2    38  GLU38      -0.2864
     16  CB        13.9270  -10.6460   43.7530 C.3    38  GLU38       0.0415
     17  CG        13.7040  -11.3230   45.1080 C.3    38  GLU38       0.1163
     18  CD        14.4420  -10.6490   46.2560 C.2    38  GLU38       0.3649
     19  OE1       14.6650   -9.4220   46.2040 O.co2  38  GLU38      -0.2457
     20  OE2       14.7830  -11.3490   47.2290 O.co2  38  GLU38      -0.2457
     21  N         15.1670   -6.0840   42.1080 N.3    53  LEU53      -0.1245
     22  CA        14.7170   -5.2060   43.1750 C.3    53  LEU53       0.1561
     23  C         15.9300   -4.6010   43.8650 C.2    53  LEU53       0.2260
     24  O         16.6990   -5.3060   44.5220 O.2    53  LEU53      -0.2867
     25  CB        13.8740   -5.9910   44.1760 C.3    53  LEU53       0.0270
     26  CG        12.6080   -6.6240   43.5950 C.3    53  LEU53       0.0019
     27  CD1       11.8710   -7.3790   44.6940 C.3    53  LEU53       0.0001
     28  CD2       11.7040   -5.5550   42.9650 C.3    53  LEU53       0.0001
     29  N         14.1790   -8.5190   53.4080 N.3    70  ASP70      -0.1225
     30  CA        13.4010   -8.5980   52.1720 C.3    70  ASP70       0.1805
     31  C         12.6160   -7.3440   51.8170 C.2    70  ASP70       0.2597
     32  O         12.4270   -7.0380   50.6400 O.2    70  ASP70      -0.2718
     33  CB        12.4130   -9.7570   52.2660 C.3    70  ASP70       0.1424
     34  CG        13.0860  -11.0920   52.1290 C.2    70  ASP70       0.3668
     35  OD1       13.9140  -11.2340   51.2020 O.co2  70  ASP70      -0.2456
     36  OD2       12.7900  -11.9930   52.9410 O.co2  70  ASP70      -0.2456
     37  N         12.1210   -6.6420   52.8270 N.am   71  ARG71      -0.1979
     38  CA        11.1480   -5.5810   52.5760 C.3    71  ARG71       0.1597
     39  C         11.4710   -4.2980   53.3260 C.2    71  ARG71       0.2287
     40  O         11.3480   -4.2290   54.5500 O.2    71  ARG71      -0.2864
     41  CB         9.7320   -6.0650   52.9170 C.3    71  ARG71       0.0334
     42  CG         9.2820   -7.2750   52.0980 C.3    71  ARG71       0.0492
     43  CD         7.9230   -7.8200   52.5610 C.3    71  ARG71       0.2205
     44  NE         7.9150   -8.1390   53.9880 N.pl3  71  ARG71      -0.0865
     45  CZ         8.4080   -9.2580   54.5100 C.cat  71  ARG71       0.5346
     46  NH1        8.9650  -10.1750   53.7260 N.pl3  71  ARG71       0.1354
     47  NH2        8.3520   -9.4580   55.8240 N.pl3  71  ARG71       0.1354
     48  N         13.2600   -0.1600   48.5150 N.3    75  ARG75      -0.1245
     49  CA        13.3850   -1.0600   47.3780 C.3    75  ARG75       0.1563
     50  C         12.5900   -0.5300   46.1910 C.2    75  ARG75       0.2260
     51  O         11.4590   -0.0520   46.3420 O.2    75  ARG75      -0.2867
     52  CB        12.9550   -2.4810   47.7510 C.3    75  ARG75       0.0307
     53  CG        13.7290   -3.0220   48.9370 C.3    75  ARG75       0.0489
     54  CD        13.7910   -4.5490   48.9180 C.3    75  ARG75       0.2205
     55  NE        14.6970   -5.0720   47.8970 N.pl3  75  ARG75      -0.0865
     56  CZ        14.9660   -6.3670   47.7590 C.cat  75  ARG75       0.5346
     57  NH1       14.3900   -7.2490   48.5690 N.pl3  75  ARG75       0.1354
     58  NH2       15.8020   -6.7850   46.8200 N.pl3  75  ARG75       0.1354
     59  N          9.0000   -3.9830   46.6590 N.3    97  TRP97      -0.1227
     60  CA         9.7360   -5.0910   47.2730 C.3    97  TRP97       0.1737
     61  C          9.2440   -6.4630   46.7750 C.2    97  TRP97       0.2596
     62  O          9.6730   -7.5120   47.2590 O.2    97  TRP97      -0.2718
     63  CB         9.8190   -4.9970   48.8190 C.3    97  TRP97       0.0564
     64  CG         8.5610   -4.6640   49.6100 C.ar   97  TRP97       0.0003
     65  CD1        8.3500   -3.5530   50.3810 C.ar   97  TRP97       0.0946
     66  CD2        7.3830   -5.4740   49.7520 C.ar   97  TRP97       0.0152
     67  NE1        7.1090   -3.6140   50.9780 N.ar   97  TRP97      -0.2442
     68  CE2        6.4960   -4.7810   50.6050 C.ar   97  TRP97       0.0810
     69  CE3        6.9880   -6.7080   49.2270 C.ar   97  TRP97       0.0012
     70  CZ2        5.2360   -5.2860   50.9480 C.ar   97  TRP97       0.0191
     71  CZ3        5.7400   -7.2120   49.5730 C.ar   97  TRP97       0.0001
     72  CH2        4.8770   -6.4970   50.4220 C.ar   97  TRP97       0.0015
     73  N          8.3510   -6.4260   45.7870 N.am   98  SER98      -0.1952
     74  CA         7.9250   -7.6010   45.0380 C.3    98  SER98       0.1924
     75  C          7.3770   -7.0810   43.7140 C.2    98  SER98       0.2314
     76  O          6.6920   -6.0560   43.6910 O.2    98  SER98      -0.2863
     77  CB         6.8520   -8.3830   45.8070 C.3    98  SER98       0.2116
     78  OG         6.4030   -9.5040   45.0660 O.3    98  SER98      -0.2180
     79  N          1.4980   -9.7790   53.7970 N.3   141  ILE141     -0.1245
     80  CA         2.5200   -9.7410   52.7510 C.3   141  ILE141      0.1561
     81  C          2.0040  -10.0940   51.3530 C.2   141  ILE141      0.2260
     82  O          2.3370  -11.1320   50.7880 O.2   141  ILE141     -0.2867
     83  CB         3.7470  -10.6010   53.1150 C.3   141  ILE141      0.0252
     84  CG1        4.1950  -10.3080   54.5500 C.3   141  ILE141      0.0019
     85  CG2        4.8950  -10.3310   52.1510 C.3   141  ILE141      0.0019
     86  CD1        5.2640  -11.2350   55.0640 C.3   141  ILE141      0.0001
     87  N          2.0990  -10.4180   47.6560 N.3   143  ARG143     -0.1245
     88  CA         3.3360  -10.7010   46.9260 C.3   143  ARG143      0.1563
     89  C          3.0740  -11.3490   45.5700 C.2   143  ARG143      0.2260
     90  O          2.0390  -11.9840   45.3620 O.2   143  ARG143     -0.2867
     91  CB         4.2720  -11.5620   47.7810 C.3   143  ARG143      0.0307
     92  CG         3.6620  -12.8800   48.2780 C.3   143  ARG143      0.0489
     93  CD         4.3730  -13.3630   49.5430 C.3   143  ARG143      0.2205
     94  NE         3.9370  -14.6910   49.9840 N.pl3 143  ARG143     -0.0865
     95  CZ         2.9470  -14.9130   50.8450 C.cat 143  ARG143      0.5346
     96  NH1        2.6320  -16.1590   51.1880 N.pl3 143  ARG143      0.1354
     97  NH2        2.2660  -13.8950   51.3620 N.pl3 143  ARG143      0.1354
     98  N          7.9410  -12.1570   40.8760 N.3   146  GLU146     -0.1245
     99  CA         9.3840  -11.8950   40.7450 C.3   146  GLU146      0.1567
    100  C          9.9360  -12.4360   39.4240 C.2   146  GLU146      0.2260
    101  O         11.1200  -12.7810   39.3190 O.2   146  GLU146     -0.2867
    102  CB        10.1990  -12.4540   41.9220 C.3   146  GLU146      0.0388
    103  CG         9.4810  -12.4840   43.2700 C.3   146  GLU146      0.1160
    104  CD         9.1350  -11.1100   43.8020 C.2   146  GLU146      0.3649
    105  OE1        9.5100  -10.1000   43.1640 O.co2 146  GLU146     -0.2457
    106  OE2        8.4810  -11.0450   44.8700 O.co2 146  GLU146     -0.2457
    107  N          2.9250  -17.7990   54.8860 N.3   165  ALA165     -0.1245
    108  CA         4.0590  -18.3240   54.1370 C.3   165  ALA165      0.1562
    109  C          4.2600  -19.8050   54.4400 C.2   165  ALA165      0.2260
    110  O          5.0330  -20.4770   53.7660 O.2   165  ALA165     -0.2867
    111  CB         5.3180  -17.5490   54.4760 C.3   165  ALA165      0.0290
    112  N          3.5730  -19.6460   45.3760 N.3   195  GLU195     -0.1231
    113  CA         4.3680  -18.4330   45.4570 C.3   195  GLU195      0.1699
    114  C          5.2680  -18.3280   44.2380 C.2   195  GLU195      0.2592
    115  O          5.6450  -19.3410   43.6390 O.2   195  GLU195     -0.2718
    116  CB         5.2290  -18.4320   46.7210 C.3   195  GLU195      0.0402
    117  CG         4.4320  -18.3670   48.0120 C.3   195  GLU195      0.1161
    118  CD         5.3180  -18.2440   49.2280 C.2   195  GLU195      0.3649
    119  OE1        4.8840  -17.6080   50.2130 O.co2 195  GLU195     -0.2457
    120  OE2        6.4530  -18.7790   49.1940 O.co2 195  GLU195     -0.2457
    121  N          5.5930  -17.0940   43.8720 N.am  196  GLU196     -0.1979
    122  CA         6.6680  -16.8210   42.9250 C.3   196  GLU196      0.1602
    123  C          6.5780  -17.6400   41.6400 C.2   196  GLU196      0.2287
    124  O          7.5280  -18.3120   41.2430 O.2   196  GLU196     -0.2864
    125  CB         8.0140  -17.0130   43.6270 C.3   196  GLU196      0.0415
    126  CG         8.1780  -16.0550   44.8070 C.3   196  GLU196      0.1163
    127  CD         9.4590  -16.2590   45.5930 C.2   196  GLU196      0.3649
    128  OE1       10.0210  -17.3800   45.5730 O.co2 196  GLU196     -0.2457
    129  OE2        9.9060  -15.2820   46.2350 O.co2 196  GLU196     -0.2457
    130  N          6.3570  -22.0980   43.4070 N.3   211  ARG211     -0.1245
    131  CA         7.0180  -22.5350   44.6310 C.3   211  ARG211      0.1563
    132  C          5.9600  -22.8110   45.7010 C.2   211  ARG211      0.2260
    133  O          5.1560  -21.9360   46.0250 O.2   211  ARG211     -0.2867
    134  CB         7.9740  -21.4350   45.1110 C.3   211  ARG211      0.0307
    135  CG         8.4460  -21.5440   46.5640 C.3   211  ARG211      0.0489
    136  CD         9.2910  -20.3120   46.9070 C.3   211  ARG211      0.2205
    137  NE         9.6790  -20.2340   48.3120 N.pl3 211  ARG211     -0.0865
    138  CZ        10.5470  -19.3450   48.7870 C.cat 211  ARG211      0.5346
    139  NH1       11.1230  -18.4760   47.9630 N.pl3 211  ARG211      0.1354
    140  NH2       10.8470  -19.3270   50.0780 N.pl3 211  ARG211      0.1354
    141  N          5.6110  -23.3430   49.4990 N.3   213  ASN213     -0.1240
    142  CA         6.4770  -23.0150   50.6290 C.3   213  ASN213      0.1653
    143  C          6.0450  -23.7350   51.8930 C.2   213  ASN213      0.2266
    144  O          6.6140  -23.5240   52.9620 O.2   213  ASN213     -0.2867
    145  CB         6.4700  -21.5000   50.8810 C.3   213  ASN213      0.1155
    146  CG         7.7740  -21.0030   51.4920 C.2   213  ASN213      0.2627
    147  OD1        8.8520  -21.2030   50.9280 O.2   213  ASN213     -0.2716
    148  ND2        7.6810  -20.3500   52.6440 N.am  213  ASN213     -0.0877
    149  N         20.9490  -23.0940   48.5520 N.3   290  ARG290     -0.1245
    150  CA        20.9300  -22.4850   47.2330 C.3   290  ARG290      0.1563
    151  C         22.3390  -22.4410   46.6710 C.2   290  ARG290      0.2260
    152  O         22.9640  -21.3820   46.5580 O.2   290  ARG290     -0.2867
    153  CB        20.3010  -21.1030   47.3110 C.3   290  ARG290      0.0307
    154  CG        18.8540  -21.2050   47.7880 C.3   290  ARG290      0.0489
    155  CD        18.3080  -19.8650   48.2320 C.3   290  ARG290      0.2205
    156  NE        16.8960  -19.9810   48.5880 N.pl3 290  ARG290     -0.0865
    157  CZ        16.1190  -18.9390   48.8560 C.cat 290  ARG290      0.5346
    158  NH1       16.6250  -17.7110   48.8170 N.pl3 290  ARG290      0.1354
    159  NH2       14.8430  -19.1200   49.1600 N.pl3 290  ARG290      0.1354
    160  N         17.4620  -17.7130   43.2460 N.3   325  TYR325     -0.1241
    161  CA        16.2550  -17.7750   42.4400 C.3   325  TYR325      0.1605
    162  C         16.5690  -18.0760   40.9840 C.2   325  TYR325      0.2264
    163  O         17.6500  -17.7610   40.4790 O.2   325  TYR325     -0.2867
    164  CB        15.5070  -16.4400   42.5130 C.3   325  TYR325      0.0534
    165  CG        14.6090  -16.2670   43.7220 C.ar  325  TYR325     -0.0201
    166  CD1       14.7890  -17.0320   44.8690 C.ar  325  TYR325     -0.0009
    167  CD2       13.5800  -15.3260   43.7150 C.ar  325  TYR325     -0.0009
    168  CE1       13.9690  -16.8760   45.9720 C.ar  325  TYR325      0.0417
    169  CE2       12.7510  -15.1640   44.8140 C.ar  325  TYR325      0.0417
    170  CZ        12.9550  -15.9500   45.9410 C.ar  325  TYR325      0.1957
    171  OH        12.1360  -15.8080   47.0440 O.3   325  TYR325     -0.2866
@<TRIPOS>BOND
     1   101   100    2
     2   100    99    1
     3   163   162    2
     4    99    98    1
     5    99   102    1
     6   162   161    1
     7    15    14    2
     8   124   123    2
     9    14    13    1
    10   123   122    1
    11   102   103    1
    12    21    22    1
    13   161   164    1
    14   161   160    1
    15   164   165    1
    16   122   125    1
    17   122   121    1
    18    28    26    1
    19    13    12    1
    20    13    16    1
    21   105   104   ar
    22    22    23    1
    23    22    25    1
    24   103   104    1
    25   130   131    1
    26     4     3    2
    27    26    25    1
    28    26    27    1
    29   125   126    1
    30   115   114    2
    31    76    75    2
    32    75    74    1
    33   167   165   ar
    34   167   169   ar
    35   165   166   ar
    36    12     3   am
    37    16    17    1
    38   104   106   ar
    39    23    24    2
    40   121   114   am
    41     3     2    1
    42   114   113    1
    43   131   134    1
    44   131   132    1
    45     1     2    1
    46     2     5    1
    47   126   127    1
    48   169   170   ar
    49   166   168   ar
    50    74    73    1
    51    74    77    1
    52    78    77    1
    53    17    18    1
    54   134   135    1
    55    90    89    2
    56   112   113    1
    57   113   116    1
    58    89    88    1
    59   128   127   ar
    60   127   129   ar
    61   132   133    2
    62    73    61   am
    63   170   168   ar
    64   170   171    1
    65     5     6    1
    66    50    51    2
    67    50    49    1
    68    19    18   ar
    69    18    20   ar
    70   152   151    2
    71   135   136    1
    72    11     9    1
    73    59    60    1
    74     6     7    1
    75   151   150    1
    76   116   117    1
    77    61    62    2
    78    61    60    1
    79    58    56    1
    80     8     9    2
    81     8     7    1
    82   136   137    1
    83    88    87    1
    84    88    91    1
    85   150   153    1
    86   150   149    1
    87    60    63    1
    88   153   154    1
    89     9    10    1
    90    49    52    1
    91    49    48    1
    92    52    53    1
    93    56    55    2
    94    56    57    1
    95    91    92    1
    96   154   155    1
    97    55    54    1
    98   139   138    1
    99   117   118    1
   100   155   156    1
   101    92    93    1
   102   137   138    2
   103   156   157    2
   104   138   140    1
   105   158   157    1
   106    63    64    1
   107   157   159    1
   108    54    53    1
   109   120   118   ar
   110    69    71   ar
   111    69    66   ar
   112   118   119   ar
   113   141   142    1
   114    93    94    1
   115    71    72   ar
   116    64    66   ar
   117    64    65   ar
   118    66    68   ar
   119    94    95    2
   120    65    67   ar
   121    72    70   ar
   122    68    70   ar
   123    68    67   ar
   124   142   145    1
   125   142   143    1
   126    32    31    2
   127    82    81    2
   128    95    96    1
   129    95    97    1
   130   145   146    1
   131   147   146    2
   132    35    34   ar
   133    81    80    1
   134   146   148   am
   135    31    30    1
   136    31    37   am
   137   143   144    2
   138    42    43    1
   139    42    41    1
   140    34    33    1
   141    34    36   ar
   142    85    83    1
   143    30    33    1
   144    30    29    1
   145    43    44    1
   146    38    37    1
   147    38    41    1
   148    38    39    1
   149    80    83    1
   150    80    79    1
   151    83    84    1
   152    39    40    2
   153    46    45    1
   154   110   109    2
   155    44    45    2
   156   108   109    1
   157   108   111    1
   158   108   107    1
   159    45    47    1
   160    84    86    1
