@<TRIPOS>MOLECULE
tmp/3tibB01.pdb
 183 171 0 0 0
SMALL
GASTEIGER

@<TRIPOS>ATOM
      1  N         -3.9640   14.4670   17.1450 N.3    37  ARG37      -0.1231
      2  CA        -4.1300   15.8750   17.4890 C.3    37  ARG37       0.1694
      3  C         -3.6110   16.0950   18.9090 C.2    37  ARG37       0.2591
      4  O         -3.2850   15.1400   19.6150 O.2    37  ARG37      -0.2718
      5  CB        -5.5870   16.3340   17.3600 C.3    37  ARG37       0.0321
      6  CG        -5.8760   17.1320   16.0880 C.3    37  ARG37       0.0489
      7  CD        -6.8710   18.2660   16.3470 C.3    37  ARG37       0.2205
      8  NE        -6.2890   19.3110   17.1870 N.pl3  37  ARG37      -0.0865
      9  CZ        -6.9960   20.1770   17.9050 C.cat  37  ARG37       0.5346
     10  NH1       -8.3230   20.1300   17.8920 N.pl3  37  ARG37       0.1354
     11  NH2       -6.3750   21.0880   18.6440 N.pl3  37  ARG37       0.1354
     12  N         -3.5110   17.3550   19.3140 N.am   38  GLU38      -0.1979
     13  CA        -3.0330   17.6880   20.6510 C.3    38  GLU38       0.1602
     14  C         -1.6310   17.1230   20.9040 C.2    38  GLU38       0.2287
     15  O         -1.4150   16.3800   21.8650 O.2    38  GLU38      -0.2864
     16  CB        -4.0200   17.1750   21.7120 C.3    38  GLU38       0.0415
     17  CG        -5.4120   17.8320   21.6610 C.3    38  GLU38       0.1163
     18  CD        -6.3720   17.1610   20.6880 C.2    38  GLU38       0.3649
     19  OE1       -6.2660   15.9340   20.4850 O.co2  38  GLU38      -0.2457
     20  OE2       -7.2500   17.8560   20.1360 O.co2  38  GLU38      -0.2457
     21  N         -2.1240   12.5990   20.8290 N.3    53  LEU53      -0.1245
     22  CA        -3.2720   11.7390   21.0420 C.3    53  LEU53       0.1561
     23  C         -3.7190   11.1310   19.7150 C.2    53  LEU53       0.2260
     24  O         -4.2190   11.8290   18.8320 O.2    53  LEU53      -0.2867
     25  CB        -4.4100   12.5170   21.7040 C.3    53  LEU53       0.0270
     26  CG        -4.0840   13.0870   23.0900 C.3    53  LEU53       0.0019
     27  CD1       -5.2540   13.9030   23.6360 C.3    53  LEU53       0.0001
     28  CD2       -3.6960   11.9760   24.0720 C.3    53  LEU53       0.0001
     29  N        -13.4120   15.0430   19.6280 N.3    70  ASP70      -0.1225
     30  CA       -12.3670   15.1310   20.6480 C.3    70  ASP70       0.1805
     31  C        -12.1900   13.8890   21.5070 C.2    70  ASP70       0.2597
     32  O        -11.0930   13.6130   21.9820 O.2    70  ASP70      -0.2718
     33  CB       -12.6270   16.3260   21.5700 C.3    70  ASP70       0.1424
     34  CG       -12.3680   17.6450   20.8890 C.2    70  ASP70       0.3668
     35  OD1      -11.3080   17.7700   20.2390 O.co2  70  ASP70      -0.2456
     36  OD2      -13.2190   18.5520   21.0000 O.co2  70  ASP70      -0.2456
     37  N        -13.2670   13.1510   21.7350 N.am   71  ARG71      -0.1979
     38  CA       -13.2090   12.0840   22.7220 C.3    71  ARG71       0.1597
     39  C        -13.8790   10.7990   22.2580 C.2    71  ARG71       0.2287
     40  O        -15.0980   10.7350   22.1060 O.2    71  ARG71      -0.2864
     41  CB       -13.8010   12.5660   24.0550 C.3    71  ARG71       0.0334
     42  CG       -13.1260   13.8250   24.5960 C.3    71  ARG71       0.0492
     43  CD       -13.7890   14.3560   25.8730 C.3    71  ARG71       0.2205
     44  NE       -15.2060   14.6660   25.6910 N.pl3  71  ARG71      -0.0865
     45  CZ       -15.6660   15.7550   25.0800 C.cat  71  ARG71       0.5346
     46  NH1      -14.8230   16.6470   24.5780 N.pl3  71  ARG71       0.1354
     47  NH2      -16.9720   15.9490   24.9670 N.pl3  71  ARG71       0.1354
     48  N         -8.8620    6.6220   21.4940 N.3    75  ARG75      -0.1245
     49  CA        -7.7430    7.5490   21.5810 C.3    75  ARG75       0.1563
     50  C         -6.7220    7.0290   22.5840 C.2    75  ARG75       0.2260
     51  O         -7.0770    6.5750   23.6750 O.2    75  ARG75      -0.2867
     52  CB        -8.2070    8.9580   21.9540 C.3    75  ARG75       0.0307
     53  CG        -9.1820    9.5570   20.9500 C.3    75  ARG75       0.0489
     54  CD        -9.1620   11.0810   20.9630 C.3    75  ARG75       0.2205
     55  NE        -8.0110   11.6280   20.2510 N.pl3  75  ARG75      -0.0865
     56  CZ        -7.8480   12.9200   19.9770 C.cat  75  ARG75       0.5346
     57  NH1       -8.7640   13.8060   20.3600 N.pl3  75  ARG75       0.1354
     58  NH2       -6.7710   13.3280   19.3190 N.pl3  75  ARG75       0.1354
     59  N         -7.8300   10.5480   25.9570 N.3    97  TRP97      -0.1227
     60  CA        -8.2580   11.6510   25.1020 C.3    97  TRP97       0.1737
     61  C         -7.8700   13.0020   25.7030 C.2    97  TRP97       0.2596
     62  O         -8.2340   14.0600   25.1860 O.2    97  TRP97      -0.2718
     63  CB        -9.7500   11.5930   24.7420 C.3    97  TRP97       0.0564
     64  CG       -10.7450   11.2780   25.8400 C.ar   97  TRP97       0.0003
     65  CD1      -11.5550   10.1760   25.9070 C.ar   97  TRP97       0.0946
     66  CD2      -11.0930   12.0960   26.9710 C.ar   97  TRP97       0.0152
     67  NE1      -12.3620   10.2450   27.0140 N.ar   97  TRP97      -0.2442
     68  CE2      -12.1000   11.4110   27.6840 C.ar   97  TRP97       0.0810
     69  CE3      -10.6480   13.3310   27.4540 C.ar   97  TRP97       0.0012
     70  CZ2      -12.6660   11.9180   28.8550 C.ar   97  TRP97       0.0191
     71  CZ3      -11.2110   13.8310   28.6220 C.ar   97  TRP97       0.0001
     72  CH2      -12.2120   13.1250   29.3060 C.ar   97  TRP97       0.0015
     73  N         -7.1180   12.9430   26.7970 N.am   98  SER98      -0.1952
     74  CA        -6.4600   14.1070   27.3770 C.3    98  SER98       0.1924
     75  C         -5.2710   13.5850   28.1800 C.2    98  SER98       0.2314
     76  O         -5.3790   12.5550   28.8420 O.2    98  SER98      -0.2863
     77  CB        -7.4200   14.8800   28.2850 C.3    98  SER98       0.2116
     78  OG        -6.7780   15.9970   28.8730 O.3    98  SER98      -0.2180
     79  N        -18.0200   16.5040   34.5180 N.3   140  ASN140     -0.1225
     80  CA       -18.1280   17.2660   33.2810 C.3   140  ASN140      0.1785
     81  C        -16.7960   17.4040   32.5550 C.2   140  ASN140      0.2597
     82  O        -16.1680   18.4600   32.5830 O.2   140  ASN140     -0.2718
     83  CB       -18.7460   18.6410   33.5380 C.3   140  ASN140      0.1169
     84  CG       -19.1010   19.3700   32.2500 C.2   140  ASN140      0.2627
     85  OD1      -18.8160   18.8890   31.1500 O.2   140  ASN140     -0.2716
     86  ND2      -19.7320   20.5360   32.3810 N.am  140  ASN140     -0.0877
     87  N        -16.3800   16.3180   31.9110 N.am  141  ILE141     -0.1980
     88  CA       -15.1580   16.2800   31.1100 C.3   141  ILE141      0.1595
     89  C        -13.8930   16.6370   31.8860 C.2   141  ILE141      0.2287
     90  O        -13.3100   17.6990   31.6860 O.2   141  ILE141     -0.2864
     91  CB       -15.2690   17.1720   29.8540 C.3   141  ILE141      0.0276
     92  CG1      -16.6070   16.9150   29.1510 C.3   141  ILE141      0.0022
     93  CG2      -14.0910   16.9230   28.9150 C.3   141  ILE141      0.0022
     94  CD1      -16.8430   17.7690   27.9210 C.3   141  ILE141      0.0001
     95  N        -10.1830   16.9420   32.5490 N.3   143  ARG143     -0.1245
     96  CA        -9.1910   17.2450   31.5120 C.3   143  ARG143      0.1563
     97  C         -7.9160   17.8830   32.0610 C.2   143  ARG143      0.2260
     98  O         -7.9290   18.5070   33.1220 O.2   143  ARG143     -0.2867
     99  CB        -9.8110   18.1320   30.4220 C.3   143  ARG143      0.0307
    100  CG       -10.5440   19.3710   30.9370 C.3   143  ARG143      0.0489
    101  CD       -11.6170   19.8190   29.9370 C.3   143  ARG143      0.2205
    102  NE       -12.1280   21.1620   30.2080 N.pl3 143  ARG143     -0.0865
    103  CZ       -13.1320   21.4320   31.0350 C.cat 143  ARG143      0.5346
    104  NH1      -13.5280   22.6850   31.2120 N.pl3 143  ARG143      0.1354
    105  NH2      -13.7370   20.4490   31.6900 N.pl3 143  ARG143      0.1354
    106  N         -2.3760   18.7570   28.1430 N.3   146  GLU146     -0.1245
    107  CA        -1.9890   18.4900   26.7510 C.3   146  GLU146      0.1567
    108  C         -0.5850   19.0090   26.4550 C.2   146  GLU146      0.2260
    109  O         -0.2690   19.3210   25.3150 O.2   146  GLU146     -0.2867
    110  CB        -2.9740   19.0870   25.7360 C.3   146  GLU146      0.0388
    111  CG        -4.4410   19.0460   26.1440 C.3   146  GLU146      0.1160
    112  CD        -4.9450   17.6410   26.4380 C.2   146  GLU146      0.3649
    113  OE1       -4.2150   16.6660   26.1560 O.co2 146  GLU146     -0.2457
    114  OE2       -6.0800   17.5140   26.9500 O.co2 146  GLU146     -0.2457
    115  N        -15.5240   20.3940   34.8550 N.3   163  GLY163     -0.1225
    116  CA       -16.6310   21.3330   34.8980 C.3   163  GLY163      0.1811
    117  C        -16.8040   22.1240   33.6130 C.2   163  GLY163      0.2280
    118  O        -16.2100   21.7920   32.5840 O.2   163  GLY163     -0.2866
    119  N        -17.1120   24.4400   30.3090 N.3   165  ALA165     -0.1245
    120  CA       -16.1680   25.0000   29.3450 C.3   165  ALA165      0.1562
    121  C        -16.4130   26.4880   29.1130 C.2   165  ALA165      0.2260
    122  O        -15.5640   27.1850   28.5580 O.2   165  ALA165     -0.2867
    123  CB       -16.2700   24.2650   28.0340 C.3   165  ALA165      0.0290
    124  N         -7.6060   26.1570   31.6390 N.3   195  GLU195     -0.1231
    125  CA        -7.5570   24.9670   30.8020 C.3   195  GLU195      0.1699
    126  C         -6.2020   24.8580   30.1270 C.2   195  GLU195      0.2592
    127  O         -5.5620   25.8710   29.8380 O.2   195  GLU195     -0.2718
    128  CB        -8.6440   25.0180   29.7290 C.3   195  GLU195      0.0402
    129  CG       -10.0540   24.8180   30.2450 C.3   195  GLU195      0.1161
    130  CD       -11.0630   24.7270   29.1210 C.2   195  GLU195      0.3649
    131  OE1      -10.7390   25.1780   28.0020 O.co2 195  GLU195     -0.2457
    132  OE2      -12.1760   24.2070   29.3510 O.co2 195  GLU195     -0.2457
    133  N         -5.7700   23.6250   29.8820 N.am  196  GLU196     -0.1979
    134  CA        -4.6190   23.3630   29.0270 C.3   196  GLU196      0.1602
    135  C         -3.4120   24.2440   29.3480 C.2   196  GLU196      0.2287
    136  O         -2.9080   24.9710   28.4920 O.2   196  GLU196     -0.2864
    137  CB        -5.0290   23.5060   27.5590 C.3   196  GLU196      0.0415
    138  CG        -6.1180   22.5100   27.1530 C.3   196  GLU196      0.1163
    139  CD        -6.7070   22.7870   25.7800 C.2   196  GLU196      0.3649
    140  OE1       -6.4710   23.8890   25.2390 O.co2 196  GLU196     -0.2457
    141  OE2       -7.4100   21.8990   25.2470 O.co2 196  GLU196     -0.2457
    142  N         -5.2110   28.6310   29.2990 N.3   211  ARG211     -0.1245
    143  CA        -6.2590   29.0560   28.3890 C.3   211  ARG211      0.1563
    144  C         -7.5260   29.3430   29.1860 C.2   211  ARG211      0.2260
    145  O         -8.0270   28.4790   29.9040 O.2   211  ARG211     -0.2867
    146  CB        -6.5120   27.9590   27.3460 C.3   211  ARG211      0.0307
    147  CG        -7.8510   28.0270   26.6130 C.3   211  ARG211      0.0489
    148  CD        -8.0200   26.7980   25.7160 C.3   211  ARG211      0.2205
    149  NE        -9.3150   26.7510   25.0420 N.pl3 211  ARG211     -0.0865
    150  CZ        -9.6300   25.8740   24.0920 C.cat 211  ARG211      0.5346
    151  NH1       -8.7420   24.9630   23.7020 N.pl3 211  ARG211      0.1354
    152  NH2      -10.8320   25.9040   23.5300 N.pl3 211  ARG211      0.1354
    153  N        -11.2830   29.8870   28.7460 N.3   213  ASN213     -0.1240
    154  CA       -12.2300   29.5820   27.6770 C.3   213  ASN213      0.1653
    155  C        -13.5610   30.3060   27.8620 C.2   213  ASN213      0.2266
    156  O        -14.5020   30.1180   27.0860 O.2   213  ASN213     -0.2867
    157  CB       -12.4670   28.0690   27.6150 C.3   213  ASN213      0.1155
    158  CG       -12.7920   27.5810   26.2160 C.2   213  ASN213      0.2627
    159  OD1      -12.0080   27.7690   25.2850 O.2   213  ASN213     -0.2716
    160  ND2      -13.9420   26.9300   26.0640 N.am  213  ASN213     -0.0877
    161  N         -7.3770   29.7410   13.9120 N.3   290  ARG290     -0.1245
    162  CA        -6.0940   29.1110   14.1870 C.3   290  ARG290      0.1563
    163  C         -5.2440   29.0570   12.9210 C.2   290  ARG290      0.2260
    164  O         -4.9540   27.9860   12.3770 O.2   290  ARG290     -0.2867
    165  CB        -6.3140   27.7280   14.7840 C.3   290  ARG290      0.0307
    166  CG        -7.1320   27.7910   16.0650 C.3   290  ARG290      0.0489
    167  CD        -7.4640   26.4170   16.5970 C.3   290  ARG290      0.2205
    168  NE        -8.1550   26.5120   17.8740 N.pl3 290  ARG290     -0.0865
    169  CZ        -8.5730   25.4660   18.5760 C.cat 290  ARG290      0.5346
    170  NH1       -8.3730   24.2330   18.1230 N.pl3 290  ARG290      0.1354
    171  NH2       -9.1940   25.6560   19.7290 N.pl3 290  ARG290      0.1354
    172  N         -2.8370   24.2670   18.3310 N.3   325  TYR325     -0.1241
    173  CA        -2.2680   24.2960   19.6740 C.3   325  TYR325      0.1605
    174  C         -0.7820   24.6120   19.6450 C.2   325  TYR325      0.2264
    175  O         -0.1000   24.3620   18.6510 O.2   325  TYR325     -0.2867
    176  CB        -2.4790   22.9550   20.3820 C.3   325  TYR325      0.0534
    177  CG        -3.8390   22.8030   21.0340 C.ar  325  TYR325     -0.0201
    178  CD1       -4.9240   23.5470   20.5960 C.ar  325  TYR325     -0.0009
    179  CD2       -4.0350   21.9130   22.0860 C.ar  325  TYR325     -0.0009
    180  CE1       -6.1650   23.4180   21.1850 C.ar  325  TYR325      0.0417
    181  CE2       -5.2810   21.7770   22.6860 C.ar  325  TYR325      0.0417
    182  CZ        -6.3380   22.5350   22.2260 C.ar  325  TYR325      0.1957
    183  OH        -7.5820   22.4240   22.7990 O.3   325  TYR325     -0.2866
@<TRIPOS>BOND
     1   164   163    2
     2   163   162    1
     3   161   162    1
     4   162   165    1
     5   165   166    1
     6   166   167    1
     7     6     7    1
     8     6     5    1
     9     7     8    1
    10   167   168    1
    11     1     2    1
    12     8     9    2
    13     5     2    1
    14     2     3    1
    15   168   169    2
    16    10     9    1
    17     9    11    1
    18   170   169    1
    19   172   173    1
    20   169   171    1
    21   175   174    2
    22    24    23    2
    23     3    12   am
    24     3     4    2
    25    12    13    1
    26    58    56    1
    27    29    30    1
    28   174   173    1
    29   173   176    1
    30    23    22    1
    31    56    55    2
    32    56    57    1
    33    20    18   ar
    34    35    34   ar
    35    55    54    1
    36   176   177    1
    37    19    18   ar
    38   178   177   ar
    39   178   180   ar
    40    30    31    1
    41    30    33    1
    42    13    14    1
    43    13    16    1
    44    18    17    1
    45    21    22    1
    46    34    36   ar
    47    34    33    1
    48    14    15    2
    49    53    54    1
    50    53    52    1
    51   177   179   ar
    52    22    25    1
    53   180   182   ar
    54    48    49    1
    55    31    37   am
    56    31    32    2
    57    49    52    1
    58    49    50    1
    59    17    16    1
    60    25    26    1
    61    37    38    1
    62   179   181   ar
    63    40    39    2
    64   182   181   ar
    65   182   183    1
    66    39    38    1
    67    50    51    2
    68    38    41    1
    69    26    27    1
    70    26    28    1
    71   152   150    1
    72   151   150    1
    73    41    42    1
    74   150   149    2
    75    46    45    1
    76    42    43    1
    77    63    60    1
    78    63    64    1
    79    47    45    1
    80   149   148    1
    81    45    44    2
    82    60    61    1
    83    60    59    1
    84    62    61    2
    85   140   139   ar
    86   141   139   ar
    87   159   158    2
    88   109   108    2
    89    44    43    1
    90    61    73   am
    91   148   147    1
    92   110   111    1
    93   110   107    1
    94   139   138    1
    95    64    65   ar
    96    64    66   ar
    97    65    67   ar
    98   160   158   am
    99   111   112    1
   100   113   112   ar
   101   158   157    1
   102   112   114   ar
   103   108   107    1
   104   147   146    1
   105   107   106    1
   106    73    74    1
   107    66    69   ar
   108    66    68   ar
   109    67    68   ar
   110   156   155    2
   111   138   137    1
   112   146   143    1
   113    74    75    1
   114    74    77    1
   115    69    71   ar
   116   137   134    1
   117   157   154    1
   118   154   155    1
   119   154   153    1
   120    68    70   ar
   121    94    92    1
   122   131   130   ar
   123   123   120    1
   124    75    76    2
   125    77    78    1
   126   143   144    1
   127   143   142    1
   128   136   135    2
   129   122   121    2
   130    71    72   ar
   131    70    72   ar
   132    93    91    1
   133   134   135    1
   134   134   133    1
   135   121   120    1
   136   130   132   ar
   137   130   129    1
   138    92    91    1
   139   144   145    2
   140   120   119    1
   141   128   129    1
   142   128   125    1
   143   127   126    2
   144    91    88    1
   145   133   126   am
   146   101   102    1
   147   101   100    1
   148   126   125    1
   149   102   103    2
   150    99   100    1
   151    99    96    1
   152   125   124    1
   153   103   104    1
   154   103   105    1
   155    88    89    1
   156    88    87    1
   157    85    84    2
   158    96    97    1
   159    96    95    1
   160    90    89    2
   161    87    81   am
   162    97    98    2
   163    84    86   am
   164    84    83    1
   165    81    82    2
   166    81    80    1
   167   118   117    2
   168    80    83    1
   169    80    79    1
   170   117   116    1
   171   115   116    1
