@<TRIPOS>MOLECULE
tmp/3tibB02.pdb
 98 94 0 0 0
SMALL
GASTEIGER

@<TRIPOS>ATOM
      1  N         17.5820   35.6100   22.5500 N.3    14  THR14      -0.1218
      2  CA        17.3770   36.7190   21.6280 C.3    14  THR14       0.1862
      3  C         16.2380   36.3900   20.6720 C.2    14  THR14       0.2287
      4  O         15.8760   37.1930   19.8140 O.2    14  THR14      -0.2866
      5  CB        18.6300   36.9460   20.7940 C.3    14  THR14       0.1770
      6  OG1       18.9630   35.7270   20.1190 O.3    14  THR14      -0.2211
      7  CG2       19.7920   37.3530   21.6890 C.3    14  THR14       0.0375
      8  N         -4.8170   44.3500   17.9340 N.3   249  ASP249     -0.1239
      9  CA        -3.8480   44.9370   18.8500 C.3   249  ASP249      0.1674
     10  C         -4.2060   46.3310   19.3670 C.2   249  ASP249      0.2266
     11  O         -3.7500   46.7260   20.4340 O.2   249  ASP249     -0.2867
     12  CB        -2.4560   44.9430   18.2140 C.3   249  ASP249      0.1410
     13  CG        -1.8790   43.5440   18.0740 C.2   249  ASP249      0.3668
     14  OD1       -2.4490   42.6090   18.6810 O.co2 249  ASP249     -0.2456
     15  OD2       -0.8590   43.3800   17.3700 O.co2 249  ASP249     -0.2456
     16  N          3.1910   33.2870   15.2490 N.3   294  GLU294     -0.1245
     17  CA         4.2740   34.2510   15.4290 C.3   294  GLU294      0.1567
     18  C          4.7630   34.2560   16.8750 C.2   294  GLU294      0.2260
     19  O          4.0030   33.9580   17.7950 O.2   294  GLU294     -0.2867
     20  CB         3.8050   35.6580   15.0410 C.3   294  GLU294      0.0388
     21  CG         2.6150   36.1690   15.8620 C.3   294  GLU294      0.1160
     22  CD         2.1370   37.5510   15.4320 C.2   294  GLU294      0.3649
     23  OE1        2.8260   38.1890   14.6090 O.co2 294  GLU294     -0.2457
     24  OE2        1.0730   37.9990   15.9170 O.co2 294  GLU294     -0.2457
     25  N          6.3840   45.7600   21.3970 N.3   310  GLN310     -0.1231
     26  CA         6.8870   44.4740   20.9420 C.3   310  GLN310      0.1698
     27  C          8.2660   44.6010   20.2950 C.2   310  GLN310      0.2592
     28  O          8.6250   45.6600   19.7790 O.2   310  GLN310     -0.2718
     29  CB         5.8840   43.8890   19.9490 C.3   310  GLN310      0.0381
     30  CG         6.3980   42.7610   19.1110 C.3   310  GLN310      0.0905
     31  CD         5.5380   42.5230   17.8960 C.2   310  GLN310      0.2608
     32  OE1        6.0380   42.1400   16.8420 O.2   310  GLN310     -0.2717
     33  NE2        4.2350   42.7580   18.0290 N.am  310  GLN310     -0.0878
     34  N          9.0400   43.5190   20.3340 N.am  311  VAL311     -0.1966
     35  CA        10.3320   43.4750   19.6530 C.3   311  VAL311      0.1727
     36  C         10.7430   42.0240   19.3720 C.2   311  VAL311      0.2616
     37  O         10.1930   41.0920   19.9610 O.2   311  VAL311     -0.2715
     38  CB        11.4280   44.1810   20.4720 C.3   311  VAL311      0.0290
     39  CG1       11.7940   43.3600   21.6960 C.3   311  VAL311      0.0023
     40  CG2       12.6640   44.4380   19.6050 C.3   311  VAL311      0.0023
     41  N         11.6930   41.8390   18.4590 N.am  312  ASN312     -0.1958
     42  CA        12.2180   40.5110   18.1390 C.3   312  ASN312      0.1819
     43  C         11.1560   39.5430   17.6350 C.2   312  ASN312      0.2621
     44  O         11.1520   38.3680   18.0010 O.2   312  ASN312     -0.2715
     45  CB        12.9410   39.9010   19.3450 C.3   312  ASN312      0.1195
     46  CG        14.2340   40.6200   19.6760 C.2   312  ASN312      0.2630
     47  OD1       14.8190   40.4170   20.7380 O.2   312  ASN312     -0.2716
     48  ND2       14.6840   41.4680   18.7640 N.am  312  ASN312     -0.0877
     49  N         10.2570   40.0420   16.7960 N.am  313  ARG313     -0.1963
     50  CA         9.2200   39.2080   16.2140 C.3   313  ARG313      0.1729
     51  C          9.8100   38.1840   15.2490 C.2   313  ARG313      0.2616
     52  O         10.7890   38.4560   14.5580 O.2   313  ARG313     -0.2715
     53  CB         8.1900   40.0710   15.4890 C.3   313  ARG313      0.0348
     54  CG         7.1090   39.2750   14.7820 C.3   313  ARG313      0.0492
     55  CD         6.0890   40.1980   14.1560 C.3   313  ARG313      0.2205
     56  NE         4.9320   39.4840   13.6270 N.pl3 313  ARG313     -0.0865
     57  CZ         4.7560   39.1920   12.3420 C.cat 313  ARG313      0.5346
     58  NH1        5.6700   39.5470   11.4510 N.pl3 313  ARG313      0.1354
     59  NH2        3.6630   38.5490   11.9460 N.pl3 313  ARG313      0.1354
     60  N          9.2120   36.9990   15.2250 N.am  314  GLN314     -0.1977
     61  CA         9.5560   35.9730   14.2520 C.3   314  GLN314      0.1601
     62  C          8.2870   35.3150   13.7460 C.2   314  GLN314      0.2287
     63  O          7.4250   34.9220   14.5300 O.2   314  GLN314     -0.2864
     64  CB        10.4400   34.8970   14.8760 C.3   314  GLN314      0.0394
     65  CG        11.8630   35.3170   15.1640 C.3   314  GLN314      0.0908
     66  CD        12.6270   34.2330   15.8980 C.2   314  GLN314      0.2608
     67  OE1       12.7370   34.2670   17.1220 O.2   314  GLN314     -0.2717
     68  NE2       13.1490   33.2580   15.1540 N.am  314  GLN314     -0.0878
     69  N         22.1700   34.3120   16.7740 N.3   371  THR371     -0.1203
     70  CA        21.4110   35.0800   15.7970 C.3   371  THR371      0.1994
     71  C         20.6730   34.1350   14.8520 C.2   371  THR371      0.2618
     72  O         20.8270   32.9160   14.9370 O.2   371  THR371     -0.2717
     73  CB        22.3140   36.0340   14.9850 C.3   371  THR371      0.1784
     74  OG1       23.3360   35.2800   14.3200 O.3   371  THR371     -0.2211
     75  CG2       22.9630   37.0760   15.8980 C.3   371  THR371      0.0376
     76  N         19.8720   34.7020   13.9560 N.am  372  TYR372     -0.1961
     77  CA        18.9840   33.9110   13.1130 C.3   372  TYR372      0.1771
     78  C         18.3700   34.7960   12.0380 C.2   372  TYR372      0.2620
     79  O         18.4770   36.0200   12.1040 O.2   372  TYR372     -0.2715
     80  CB        17.8690   33.2880   13.9600 C.3   372  TYR372      0.0574
     81  CG        17.1720   34.2950   14.8590 C.ar  372  TYR372     -0.0198
     82  CD1       16.1330   35.0850   14.3810 C.ar  372  TYR372     -0.0009
     83  CD2       17.5670   34.4670   16.1800 C.ar  372  TYR372     -0.0009
     84  CE1       15.4980   36.0150   15.1960 C.ar  372  TYR372      0.0417
     85  CE2       16.9420   35.3960   17.0050 C.ar  372  TYR372      0.0417
     86  CZ        15.9060   36.1640   16.5060 C.ar  372  TYR372      0.1957
     87  OH        15.2810   37.0850   17.3140 O.3   372  TYR372     -0.2866
     88  N         17.7210   34.1730   11.0580 N.am  373  GLY373     -0.1940
     89  CA        17.0700   34.9010    9.9850 C.3   373  GLY373      0.2014
     90  C         15.5590   34.7810   10.0300 C.2   373  GLY373      0.2639
     91  O         14.9440   34.9540   11.0800 O.2   373  GLY373     -0.2714
     92  N         14.9570   34.4870    8.8840 N.am  374  THR374     -0.1950
     93  CA        13.5060   34.4140    8.7810 C.3   374  THR374      0.1897
     94  C         13.0950   33.2400    7.9160 C.2   374  THR374      0.2313
     95  O         13.9080   32.6900    7.1760 O.2   374  THR374     -0.2863
     96  CB        12.9270   35.6800    8.1340 C.3   374  THR374      0.1794
     97  OG1       13.5790   35.9030    6.8760 O.3   374  THR374     -0.2208
     98  CG2       13.1370   36.8950    9.0360 C.3   374  THR374      0.0378
@<TRIPOS>BOND
     1    97    96    1
     2    95    94    2
     3    94    93    1
     4    96    93    1
     5    96    98    1
     6    93    92    1
     7    92    90   am
     8    89    90    1
     9    89    88    1
    10    90    91    2
    11    88    78   am
    12    58    57    1
    13    59    57    1
    14    78    79    2
    15    78    77    1
    16    57    56    2
    17    77    76    1
    18    77    80    1
    19    56    55    1
    20    62    61    1
    21    62    63    2
    22    76    71   am
    23    80    81    1
    24    55    54    1
    25    61    64    1
    26    61    60    1
    27    74    73    1
    28    82    81   ar
    29    82    84   ar
    30    52    51    2
    31    23    22   ar
    32    54    53    1
    33    71    72    2
    34    71    70    1
    35    81    83   ar
    36    64    65    1
    37    73    70    1
    38    73    75    1
    39    20    17    1
    40    20    21    1
    41    68    66   am
    42    65    66    1
    43    84    86   ar
    44    60    51   am
    45    16    17    1
    46    51    50    1
    47    17    18    1
    48    22    21    1
    49    22    24   ar
    50    53    50    1
    51    70    69    1
    52    66    67    2
    53    83    85   ar
    54    50    49    1
    55    86    85   ar
    56    86    87    1
    57    49    43   am
    58    32    31    2
    59    18    19    2
    60    15    13   ar
    61    43    44    2
    62    43    42    1
    63    31    33   am
    64    31    30    1
    65     8     9    1
    66    13    12    1
    67    13    14   ar
    68    42    41    1
    69    42    45    1
    70    12     9    1
    71    41    36   am
    72    48    46   am
    73     9    10    1
    74    30    29    1
    75    45    46    1
    76    10    11    2
    77    36    35    1
    78    36    37    2
    79    40    38    1
    80    35    34    1
    81    35    38    1
    82    46    47    2
    83    28    27    2
    84     4     3    2
    85    29    26    1
    86     6     5    1
    87    27    34   am
    88    27    26    1
    89    38    39    1
    90     3     2    1
    91     5     2    1
    92     5     7    1
    93    26    25    1
    94     2     1    1
