@<TRIPOS>MOLECULE
tmp/3ticC01.pdb
 171 160 0 0 0
SMALL
GASTEIGER

@<TRIPOS>ATOM
      1  N         40.2700    8.3830   27.1130 N.3    37  ARG37      -0.1231
      2  CA        40.3940    9.8000   26.7750 C.3    37  ARG37       0.1694
      3  C         39.8510    9.9680   25.3580 C.2    37  ARG37       0.2591
      4  O         39.4740    8.9840   24.7170 O.2    37  ARG37      -0.2718
      5  CB        41.8400   10.3060   26.8790 C.3    37  ARG37       0.0321
      6  CG        42.1450   11.0590   28.1810 C.3    37  ARG37       0.0489
      7  CD        43.1160   12.2270   27.9650 C.3    37  ARG37       0.2205
      8  NE        42.5290   13.2670   27.1170 N.pl3  37  ARG37      -0.0865
      9  CZ        43.2290   14.0880   26.3400 C.cat  37  ARG37       0.5346
     10  NH1       44.5540   14.0050   26.2940 N.pl3  37  ARG37       0.1354
     11  NH2       42.6020   14.9930   25.5990 N.pl3  37  ARG37       0.1354
     12  N         39.8000   11.2050   24.8800 N.am   38  GLU38      -0.1979
     13  CA        39.2850   11.5050   23.5460 C.3    38  GLU38       0.1602
     14  C         37.8790   10.9400   23.2960 C.2    38  GLU38       0.2287
     15  O         37.6500   10.2420   22.3060 O.2    38  GLU38      -0.2864
     16  CB        40.2620   11.0190   22.4640 C.3    38  GLU38       0.0415
     17  CG        41.6450   11.6770   22.5160 C.3    38  GLU38       0.1163
     18  CD        42.5900   11.0220   23.5130 C.2    38  GLU38       0.3649
     19  OE1       42.4820    9.7980   23.7390 O.co2  38  GLU38      -0.2457
     20  OE2       43.4630   11.7280   24.0560 O.co2  38  GLU38      -0.2457
     21  N         38.3510    6.4990   23.4310 N.3    53  LEU53      -0.1245
     22  CA        39.4990    5.6360   23.2130 C.3    53  LEU53       0.1561
     23  C         39.9370    5.0280   24.5440 C.2    53  LEU53       0.2260
     24  O         40.3950    5.7340   25.4360 O.2    53  LEU53      -0.2867
     25  CB        40.6430    6.4270   22.5640 C.3    53  LEU53       0.0270
     26  CG        40.3210    7.0220   21.1880 C.3    53  LEU53       0.0019
     27  CD1       41.4990    7.8310   20.6420 C.3    53  LEU53       0.0001
     28  CD2       39.9210    5.9240   20.2080 C.3    53  LEU53       0.0001
     29  N         49.6150    8.9490   24.6990 N.3    70  ASP70      -0.1225
     30  CA        48.5550    9.0430   23.6940 C.3    70  ASP70       0.1805
     31  C         48.3470    7.7810   22.8630 C.2    70  ASP70       0.2597
     32  O         47.2300    7.4750   22.4550 O.2    70  ASP70      -0.2718
     33  CB        48.8480   10.2040   22.7430 C.3    70  ASP70       0.1424
     34  CG        48.5700   11.5450   23.3690 C.2    70  ASP70       0.3668
     35  OD1       47.4460   11.7320   23.8840 O.co2  70  ASP70      -0.2456
     36  OD2       49.4640   12.4170   23.3300 O.co2  70  ASP70      -0.2456
     37  N         49.4280    7.0610   22.5940 N.am   71  ARG71      -0.1979
     38  CA        49.3690    5.9880   21.6110 C.3    71  ARG71       0.1597
     39  C         50.0430    4.7080   22.0790 C.2    71  ARG71       0.2287
     40  O         51.2680    4.6470   22.2160 O.2    71  ARG71      -0.2864
     41  CB        49.9820    6.4590   20.2840 C.3    71  ARG71       0.0334
     42  CG        49.3350    7.7220   19.7210 C.3    71  ARG71       0.0492
     43  CD        50.0340    8.2050   18.4520 C.3    71  ARG71       0.2205
     44  NE        51.4400    8.5300   18.6870 N.pl3  71  ARG71      -0.0865
     45  CZ        51.8640    9.6650   19.2360 C.cat  71  ARG71       0.5346
     46  NH1       50.9900   10.5890   19.6220 N.pl3  71  ARG71       0.1354
     47  NH2       53.1630    9.8770   19.4070 N.pl3  71  ARG71       0.1354
     48  N         44.9900    0.5430   22.8300 N.3    75  ARG75      -0.1245
     49  CA        43.8560    1.4560   22.7620 C.3    75  ARG75       0.1563
     50  C         42.8550    0.9430   21.7400 C.2    75  ARG75       0.2260
     51  O         43.2270    0.5460   20.6320 O.2    75  ARG75      -0.2867
     52  CB        44.3040    2.8800   22.4130 C.3    75  ARG75       0.0307
     53  CG        45.3240    3.4480   23.3840 C.3    75  ARG75       0.0489
     54  CD        45.3100    4.9770   23.4020 C.3    75  ARG75       0.2205
     55  NE        44.1440    5.5020   24.1160 N.pl3  75  ARG75      -0.0865
     56  CZ        43.9530    6.7920   24.3810 C.cat  75  ARG75       0.5346
     57  NH1       44.8530    7.6860   23.9890 N.pl3  75  ARG75       0.1354
     58  NH2       42.8690    7.1880   25.0400 N.pl3  75  ARG75       0.1354
     59  N         44.0620    4.4390   18.3390 N.3    97  TRP97      -0.1227
     60  CA        44.5070    5.5430   19.1900 C.3    97  TRP97       0.1737
     61  C         44.1300    6.9050   18.5880 C.2    97  TRP97       0.2596
     62  O         44.5200    7.9590   19.0900 O.2    97  TRP97      -0.2718
     63  CB        46.0000    5.4590   19.5640 C.3    97  TRP97       0.0564
     64  CG        46.9950    5.0970   18.4720 C.ar   97  TRP97       0.0003
     65  CD1       47.7610    3.9640   18.4090 C.ar   97  TRP97       0.0946
     66  CD2       47.3700    5.8930   17.3330 C.ar   97  TRP97       0.0152
     67  NE1       48.5740    4.0000   17.2980 N.ar   97  TRP97      -0.2442
     68  CE2       48.3500    5.1690   16.6200 C.ar   97  TRP97       0.0810
     69  CE3       46.9640    7.1380   16.8420 C.ar   97  TRP97       0.0012
     70  CZ2       48.9300    5.6500   15.4430 C.ar   97  TRP97       0.0191
     71  CZ3       47.5430    7.6150   15.6710 C.ar   97  TRP97       0.0001
     72  CH2       48.5140    6.8720   14.9870 C.ar   97  TRP97       0.0015
     73  N         43.3470    6.8550   17.5150 N.am   98  SER98      -0.1952
     74  CA        42.7100    8.0280   16.9290 C.3    98  SER98       0.1924
     75  C         41.5130    7.5070   16.1410 C.2    98  SER98       0.2314
     76  O         41.6170    6.4720   15.4810 O.2    98  SER98      -0.2863
     77  CB        43.6770    8.7760   16.0070 C.3    98  SER98       0.2116
     78  OG        43.0760    9.9550   15.4990 O.3    98  SER98      -0.2180
     79  N         52.5200   10.1810   12.3110 N.3   141  ILE141     -0.1245
     80  CA        51.3040   10.1250   13.1260 C.3   141  ILE141      0.1561
     81  C         50.0380   10.5120   12.3610 C.2   141  ILE141      0.2260
     82  O         49.4540   11.5760   12.5880 O.2   141  ILE141     -0.2867
     83  CB        51.4330   10.9700   14.4130 C.3   141  ILE141      0.0252
     84  CG1       52.7470   10.6430   15.1310 C.3   141  ILE141      0.0019
     85  CG2       50.2420   10.7240   15.3360 C.3   141  ILE141      0.0019
     86  CD1       53.0320   11.5250   16.3300 C.3   141  ILE141      0.0001
     87  N         46.3590   10.8440   11.7430 N.3   143  ARG143     -0.1245
     88  CA        45.4050   11.1460   12.8090 C.3   143  ARG143      0.1563
     89  C         44.1290   11.7860   12.2780 C.2   143  ARG143      0.2260
     90  O         44.1180   12.3540   11.1890 O.2   143  ARG143     -0.2867
     91  CB        46.0570   12.0430   13.8650 C.3   143  ARG143      0.0307
     92  CG        46.7250   13.3060   13.3130 C.3   143  ARG143      0.0489
     93  CD        47.8330   13.7930   14.2470 C.3   143  ARG143      0.2205
     94  NE        48.3240   15.1370   13.9160 N.pl3 143  ARG143     -0.0865
     95  CZ        49.3620   15.3850   13.1220 C.cat 143  ARG143      0.5346
     96  NH1       49.7380   16.6370   12.8900 N.pl3 143  ARG143      0.1354
     97  NH2       50.0250   14.3840   12.5540 N.pl3 143  ARG143      0.1354
     98  N         38.5600   12.6130   16.1720 N.3   146  GLU146     -0.1245
     99  CA        38.1780   12.3310   17.5590 C.3   146  GLU146      0.1567
    100  C         36.7670   12.8430   17.8550 C.2   146  GLU146      0.2260
    101  O         36.4280   13.1470   18.9970 O.2   146  GLU146     -0.2867
    102  CB        39.1780   12.9060   18.5690 C.3   146  GLU146      0.0388
    103  CG        40.6390   12.9200   18.1110 C.3   146  GLU146      0.1160
    104  CD        41.2100   11.5410   17.8250 C.2   146  GLU146      0.3649
    105  OE1       40.4830   10.5290   17.9660 O.co2 146  GLU146     -0.2457
    106  OE2       42.4040   11.4750   17.4540 O.co2 146  GLU146     -0.2457
    107  N         53.3130   18.2060   14.0010 N.3   165  ALA165     -0.1245
    108  CA        52.3620   18.7200   14.9840 C.3   165  ALA165      0.1562
    109  C         52.6010   20.2050   15.2360 C.2   165  ALA165      0.2260
    110  O         51.8030   20.8680   15.8960 O.2   165  ALA165     -0.2867
    111  CB        52.4770   17.9450   16.2910 C.3   165  ALA165      0.0290
    112  N         43.8210   20.0320   12.6510 N.3   195  GLU195     -0.1231
    113  CA        43.7590   18.8410   13.4840 C.3   195  GLU195      0.1699
    114  C         42.3900   18.7190   14.1270 C.2   195  GLU195      0.2592
    115  O         41.7180   19.7210   14.3800 O.2   195  GLU195     -0.2718
    116  CB        44.8260   18.8860   14.5840 C.3   195  GLU195      0.0402
    117  CG        46.2630   18.8340   14.0780 C.3   195  GLU195      0.1161
    118  CD        47.2660   18.6250   15.1970 C.2   195  GLU195      0.3649
    119  OE1       48.3190   18.0040   14.9430 O.co2 195  GLU195     -0.2457
    120  OE2       47.0010   19.0770   16.3340 O.co2 195  GLU195     -0.2457
    121  N         41.9830   17.4800   14.3790 N.am  196  GLU196     -0.1979
    122  CA        40.8440   17.1980   15.2450 C.3   196  GLU196      0.1602
    123  C         39.6010   18.0200   14.9180 C.2   196  GLU196      0.2287
    124  O         39.0240   18.6710   15.7880 O.2   196  GLU196     -0.2864
    125  CB        41.2630   17.3840   16.7080 C.3   196  GLU196      0.0415
    126  CG        42.3700   16.4180   17.1170 C.3   196  GLU196      0.1163
    127  CD        42.8740   16.6350   18.5310 C.2   196  GLU196      0.3649
    128  OE1       42.7370   17.7640   19.0570 O.co2 196  GLU196     -0.2457
    129  OE2       43.4250   15.6720   19.1100 O.co2 196  GLU196     -0.2457
    130  N         41.3770   22.4390   14.9970 N.3   211  ARG211     -0.1245
    131  CA        42.4500   22.8850   15.8770 C.3   211  ARG211      0.1563
    132  C         43.7080   23.1660   15.0660 C.2   211  ARG211      0.2260
    133  O         44.2160   22.2850   14.3710 O.2   211  ARG211     -0.2867
    134  CB        42.7190   21.8120   16.9360 C.3   211  ARG211      0.0307
    135  CG        44.0620   21.8940   17.6670 C.3   211  ARG211      0.0489
    136  CD        44.2210   20.6660   18.5720 C.3   211  ARG211      0.2205
    137  NE        45.5130   20.5970   19.2460 N.pl3 211  ARG211     -0.0865
    138  CZ        45.8200   19.7040   20.1820 C.cat 211  ARG211      0.5346
    139  NH1       44.9210   18.8040   20.5720 N.pl3 211  ARG211      0.1354
    140  NH2       47.0230   19.7140   20.7430 N.pl3 211  ARG211      0.1354
    141  N         47.4070   23.6380   15.4760 N.3   213  ASN213     -0.1240
    142  CA        48.3680   23.3420   16.5390 C.3   213  ASN213      0.1653
    143  C         49.7010   24.0560   16.3410 C.2   213  ASN213      0.2266
    144  O         50.6510   23.8390   17.0960 O.2   213  ASN213     -0.2867
    145  CB        48.6000   21.8250   16.6510 C.3   213  ASN213      0.1155
    146  CG        48.9940   21.3920   18.0610 C.2   213  ASN213      0.2627
    147  OD1       48.2070   21.5150   19.0010 O.2   213  ASN213     -0.2716
    148  ND2       50.2090   20.8740   18.2090 N.am  213  ASN213     -0.0877
    149  N         43.5850   23.5450   30.4330 N.3   290  ARG290     -0.1245
    150  CA        42.3200   22.8760   30.1520 C.3   290  ARG290      0.1563
    151  C         41.4570   22.8060   31.4110 C.2   290  ARG290      0.2260
    152  O         41.2040   21.7320   31.9680 O.2   290  ARG290     -0.2867
    153  CB        42.5780   21.4960   29.5500 C.3   290  ARG290      0.0307
    154  CG        43.3600   21.5900   28.2390 C.3   290  ARG290      0.0489
    155  CD        43.8900   20.2480   27.7700 C.3   290  ARG290      0.2205
    156  NE        44.4490   20.3540   26.4250 N.pl3 290  ARG290     -0.0865
    157  CZ        44.8590   19.3200   25.6980 C.cat 290  ARG290      0.5346
    158  NH1       44.7750   18.0900   26.1860 N.pl3 290  ARG290      0.1354
    159  NH2       45.3490   19.5200   24.4830 N.pl3 290  ARG290      0.1354
    160  N         38.9890   18.0600   25.9620 N.3   325  TYR325     -0.1241
    161  CA        38.4590   18.1190   24.6060 C.3   325  TYR325      0.1605
    162  C         36.9690   18.4460   24.5990 C.2   325  TYR325      0.2264
    163  O         36.2510   18.1610   25.5550 O.2   325  TYR325     -0.2867
    164  CB        38.6960   16.7880   23.8820 C.3   325  TYR325      0.0534
    165  CG        40.0650   16.6540   23.2420 C.ar  325  TYR325     -0.0201
    166  CD1       41.1290   17.4440   23.6580 C.ar  325  TYR325     -0.0009
    167  CD2       40.2930   15.7310   22.2200 C.ar  325  TYR325     -0.0009
    168  CE1       42.3830   17.3300   23.0690 C.ar  325  TYR325      0.0417
    169  CE2       41.5460   15.6100   21.6270 C.ar  325  TYR325      0.0417
    170  CZ        42.5850   16.4170   22.0580 C.ar  325  TYR325      0.1957
    171  OH        43.8390   16.3100   21.4840 O.3   325  TYR325     -0.2866
@<TRIPOS>BOND
     1    90    89    2
     2    87    88    1
     3    89    88    1
     4    79    80    1
     5    81    82    2
     6    81    80    1
     7    97    95    1
     8   112   113    1
     9    88    91    1
    10    96    95    1
    11    95    94    2
    12    80    83    1
    13    92    91    1
    14    92    93    1
    15   113   114    1
    16   113   116    1
    17    94    93    1
    18   107   108    1
    19   117   116    1
    20   117   118    1
    21   114   121   am
    22   114   115    2
    23   133   132    2
    24   121   122    1
    25    83    84    1
    26    83    85    1
    27   123   122    1
    28   123   124    2
    29   119   118   ar
    30   108   109    1
    31   108   111    1
    32    72    70   ar
    33    72    71   ar
    34   130   131    1
    35   132   131    1
    36    84    86    1
    37   118   120   ar
    38   109   110    2
    39   122   125    1
    40    70    68   ar
    41   141   142    1
    42    76    75    2
    43    78    77    1
    44    71    69   ar
    45   131   134    1
    46    77    74    1
    47    75    74    1
    48    98    99    1
    49   143   142    1
    50   143   144    2
    51   142   145    1
    52    68    67   ar
    53    68    66   ar
    54   145   146    1
    55   125   126    1
    56    69    66   ar
    57    74    73    1
    58   134   135    1
    59   126   127    1
    60    67    65   ar
    61    66    64   ar
    62   106   104   ar
    63    73    61   am
    64    99   100    1
    65    99   102    1
    66   135   136    1
    67   104   105   ar
    68   104   103    1
    69   100   101    2
    70   146   148   am
    71   146   147    2
    72   103   102    1
    73    59    60    1
    74    65    64   ar
    75    43    44    1
    76    43    42    1
    77    64    63    1
    78   127   128   ar
    79   127   129   ar
    80   136   137    1
    81    61    62    2
    82    61    60    1
    83    44    45    2
    84    60    63    1
    85    45    47    1
    86    45    46    1
    87   137   138    2
    88    42    41    1
    89   138   139    1
    90   138   140    1
    91    28    26    1
    92    41    38    1
    93    51    50    2
    94    27    26    1
    95    26    25    1
    96   171   170    1
    97    38    39    1
    98    38    37    1
    99   169   170   ar
   100   169   167   ar
   101    50    49    1
   102   170   168   ar
   103    39    40    2
   104   167   165   ar
   105    15    14    2
   106    52    49    1
   107    52    53    1
   108    32    31    2
   109    16    17    1
   110    16    13    1
   111    17    18    1
   112    25    22    1
   113    37    31   am
   114    33    34    1
   115    33    30    1
   116    49    48    1
   117    31    30    1
   118   168   166   ar
   119    22    21    1
   120    22    23    1
   121   165   166   ar
   122   165   164    1
   123    14    13    1
   124    36    34   ar
   125    34    35   ar
   126    53    54    1
   127    54    55    1
   128    18    19   ar
   129    18    20   ar
   130    13    12    1
   131    30    29    1
   132   164   161    1
   133    57    56    1
   134    55    56    2
   135    56    58    1
   136   159   157    1
   137    23    24    2
   138   162   161    1
   139   162   163    2
   140   161   160    1
   141     4     3    2
   142    12     3   am
   143     3     2    1
   144    11     9    1
   145   157   158    1
   146   157   156    2
   147    10     9    1
   148     9     8    2
   149   156   155    1
   150     2     5    1
   151     2     1    1
   152     5     6    1
   153     8     7    1
   154   155   154    1
   155     7     6    1
   156   154   153    1
   157   153   150    1
   158   150   149    1
   159   150   151    1
   160   151   152    2
