@<TRIPOS>MOLECULE
tmp/3tifB01.pdb
 112 107 0 0 0
SMALL
GASTEIGER

@<TRIPOS>ATOM
      1  N         33.3120   39.5210  -24.4260 N.3    11  TYR11      -0.1241
      2  CA        33.5180   38.7840  -25.6650 C.3    11  TYR11       0.1605
      3  C         32.6960   39.4380  -26.7660 C.2    11  TYR11       0.2264
      4  O         31.5590   39.8440  -26.5360 O.2    11  TYR11      -0.2867
      5  CB        33.0590   37.3330  -25.5190 C.3    11  TYR11       0.0534
      6  CG        33.8820   36.5310  -24.5490 C.ar   11  TYR11      -0.0201
      7  CD1       33.4190   36.2740  -23.2650 C.ar   11  TYR11      -0.0009
      8  CD2       35.1280   36.0260  -24.9140 C.ar   11  TYR11      -0.0009
      9  CE1       34.1700   35.5410  -22.3670 C.ar   11  TYR11       0.0417
     10  CE2       35.8910   35.2850  -24.0130 C.ar   11  TYR11       0.0417
     11  CZ        35.3980   35.0470  -22.7430 C.ar   11  TYR11       0.1957
     12  OH        36.1380   34.3180  -21.8380 O.3    11  TYR11      -0.2866
     13  N         30.6120   38.9220  -29.9880 N.3    13  MET13      -0.1245
     14  CA        29.8960   37.9060  -30.7560 C.3    13  MET13       0.1570
     15  C         29.0820   38.5560  -31.8730 C.2    13  MET13       0.2261
     16  O         27.8840   38.7810  -31.7220 O.2    13  MET13      -0.2867
     17  CB        28.9630   37.1110  -29.8380 C.3    13  MET13       0.0387
     18  CG        29.6750   36.3060  -28.7610 C.3    13  MET13       0.0595
     19  SD        30.7210   35.0240  -29.4660 S.3    13  MET13      -0.1393
     20  CE        29.4790   33.9640  -30.2060 C.3    13  MET13       0.0692
     21  N         29.4230   40.9760  -25.3360 N.3    18  ILE18      -0.1231
     22  CA        28.8920   40.2290  -24.1890 C.3    18  ILE18       0.1692
     23  C         29.7470   40.4570  -22.9500 C.2    18  ILE18       0.2592
     24  O         30.9710   40.4310  -23.0240 O.2    18  ILE18      -0.2718
     25  CB        28.8550   38.7130  -24.4790 C.3    18  ILE18       0.0266
     26  CG1       28.0410   38.4430  -25.7400 C.3    18  ILE18       0.0019
     27  CG2       28.2920   37.9440  -23.2900 C.3    18  ILE18       0.0020
     28  CD1       26.6870   39.1250  -25.7230 C.3    18  ILE18       0.0001
     29  N         29.0990   40.6740  -21.8100 N.am   19  TYR19      -0.1962
     30  CA        29.8060   40.8390  -20.5510 C.3    19  TYR19       0.1771
     31  C         29.7540   39.5650  -19.7130 C.2    19  TYR19       0.2619
     32  O         28.7370   39.2770  -19.0870 O.2    19  TYR19      -0.2715
     33  CB        29.2090   42.0000  -19.7630 C.3    19  TYR19       0.0574
     34  CG        29.3890   43.3380  -20.4340 C.ar   19  TYR19      -0.0198
     35  CD1       28.5070   43.7700  -21.4160 C.ar   19  TYR19      -0.0009
     36  CD2       30.4450   44.1630  -20.0950 C.ar   19  TYR19      -0.0009
     37  CE1       28.6710   44.9900  -22.0360 C.ar   19  TYR19       0.0417
     38  CE2       30.6170   45.3880  -20.7070 C.ar   19  TYR19       0.0417
     39  CZ        29.7250   45.7950  -21.6750 C.ar   19  TYR19       0.1957
     40  OH        29.8960   47.0100  -22.2880 O.3    19  TYR19      -0.2866
     41  N         30.8500   38.8050  -19.7240 N.am   20  ALA20      -0.1977
     42  CA        31.0050   37.6180  -18.8740 C.3    20  ALA20       0.1597
     43  C         31.0940   38.0300  -17.4020 C.2    20  ALA20       0.2287
     44  O         30.5100   37.3870  -16.5210 O.2    20  ALA20      -0.2864
     45  CB        32.2450   36.8200  -19.2830 C.3    20  ALA20       0.0319
     46  N         23.8340   28.8980  -14.2640 N.3    40  SER40      -0.1202
     47  CA        24.6670   28.4790  -15.3740 C.3    40  SER40       0.2020
     48  C         24.8890   29.7020  -16.2530 C.2    40  SER40       0.2619
     49  O         23.9420   30.4080  -16.5970 O.2    40  SER40      -0.2717
     50  CB        23.9910   27.3300  -16.1460 C.3    40  SER40       0.2103
     51  OG        24.6840   27.0100  -17.3380 O.3    40  SER40      -0.2182
     52  N         26.1480   29.9890  -16.5600 N.am   41  GLY41      -0.1942
     53  CA        26.4860   31.1140  -17.4100 C.3    41  GLY41       0.2014
     54  C         26.6010   32.4730  -16.7440 C.2    41  GLY41       0.2640
     55  O         26.7210   33.4840  -17.4390 O.2    41  GLY41      -0.2714
     56  N         26.5770   32.5160  -15.4120 N.am   42  SER42      -0.1935
     57  CA        26.5900   33.7950  -14.6920 C.3    42  SER42       0.2055
     58  C         27.9840   34.4270  -14.5470 C.2    42  SER42       0.2644
     59  O         28.1070   35.5670  -14.1020 O.2    42  SER42      -0.2714
     60  CB        25.9150   33.6660  -13.3180 C.3    42  SER42       0.2130
     61  OG        26.6500   32.8190  -12.4420 O.3    42  SER42      -0.2179
     62  N         29.0280   33.6900  -14.9110 N.am   43  GLY43      -0.1939
     63  CA        30.3710   34.2410  -14.8740 C.3    43  GLY43       0.2014
     64  C         31.3140   33.6270  -13.8470 C.2    43  GLY43       0.2639
     65  O         32.3870   34.1760  -13.5790 O.2    43  GLY43      -0.2714
     66  N         30.9390   32.4780  -13.2880 N.am   44  LYS44      -0.1963
     67  CA        31.7430   31.8380  -12.2460 C.3    44  LYS44       0.1728
     68  C         33.0870   31.3260  -12.7420 C.2    44  LYS44       0.2617
     69  O         34.1290   31.5930  -12.1280 O.2    44  LYS44      -0.2715
     70  CB        30.9490   30.6960  -11.5860 C.3    44  LYS44       0.0311
     71  CG        29.5420   31.1220  -11.1710 C.3    44  LYS44       0.0038
     72  CD        28.7180   29.9770  -10.5500 C.3    44  LYS44       0.0206
     73  CE        28.5080   28.8160  -11.5220 C.3    44  LYS44       0.1093
     74  NZ        27.7130   29.2120  -12.7370 N.3    44  LYS44      -0.1314
     75  N         33.0670   30.5730  -13.8410 N.am   45  SER45      -0.1936
     76  CA        34.3080   30.0680  -14.4040 C.3    45  SER45       0.2055
     77  C         35.1960   31.2080  -14.8470 C.2    45  SER45       0.2643
     78  O         36.4010   31.1830  -14.6330 O.2    45  SER45      -0.2714
     79  CB        34.0390   29.1390  -15.5850 C.3    45  SER45       0.2130
     80  OG        33.8830   27.8230  -15.1140 O.3    45  SER45      -0.2179
     81  N         34.5950   32.2050  -15.4800 N.am   46  THR46      -0.1950
     82  CA        35.3690   33.3660  -15.8870 C.3    46  THR46       0.1897
     83  C         36.0600   33.9750  -14.6670 C.2    46  THR46       0.2313
     84  O         37.2580   34.2850  -14.7000 O.2    46  THR46      -0.2863
     85  CB        34.4830   34.4190  -16.5480 C.3    46  THR46       0.1794
     86  OG1       33.8470   33.8350  -17.6870 O.3    46  THR46      -0.2208
     87  CG2       35.3380   35.6110  -16.9870 C.3    46  THR46       0.0378
     88  N         36.6780   22.3920  -14.3570 N.3    90  GLN90      -0.1245
     89  CA        35.3190   21.8420  -14.4200 C.3    90  GLN90       0.1566
     90  C         35.2690   20.5490  -15.2290 C.2    90  GLN90       0.2260
     91  O         34.6040   19.5890  -14.8430 O.2    90  GLN90      -0.2867
     92  CB        34.3370   22.8550  -15.0070 C.3    90  GLN90       0.0367
     93  CG        32.8700   22.4290  -14.8780 C.3    90  GLN90       0.0905
     94  CD        31.9450   23.4640  -15.4610 C.2    90  GLN90       0.2608
     95  OE1       32.4020   24.5250  -15.8580 O.2    90  GLN90      -0.2717
     96  NE2       30.6480   23.1720  -15.5200 N.am   90  GLN90      -0.0878
     97  N         33.5880   23.4020   -9.4240 N.3   171  GLN171     -0.1245
     98  CA        32.6360   22.3050   -9.2730 C.3   171  GLN171      0.1566
     99  C         33.3470   20.9790   -8.9710 C.2   171  GLN171      0.2260
    100  O         33.1480   19.9850   -9.6670 O.2   171  GLN171     -0.2867
    101  CB        31.7450   22.2280  -10.5300 C.3   171  GLN171      0.0367
    102  CG        31.1580   23.6080  -10.8850 C.3   171  GLN171      0.0905
    103  CD        30.2130   23.6020  -12.0730 C.2   171  GLN171      0.2608
    104  OE1       29.6290   22.5850  -12.3960 O.2   171  GLN171     -0.2717
    105  NE2       30.0570   24.7610  -12.7240 N.am  171  GLN171     -0.0878
    106  N         33.8250   26.9590   -6.7650 N.3   202  VAL202     -0.1245
    107  CA        32.5960   27.2360   -7.5050 C.3   202  VAL202      0.1561
    108  C         31.7450   25.9810   -7.3910 C.2   202  VAL202      0.2260
    109  O         32.2620   24.8850   -7.5230 O.2   202  VAL202     -0.2867
    110  CB        32.8690   27.5040   -9.0000 C.3   202  VAL202      0.0252
    111  CG1       31.5700   27.5250   -9.7850 C.3   202  VAL202      0.0019
    112  CG2       33.6060   28.8280   -9.1750 C.3   202  VAL202      0.0019
@<TRIPOS>BOND
     1    15    16    2
     2    15    14    1
     3    14    13    1
     4    14    17    1
     5    20    19    1
     6    17    18    1
     7    19    18    1
     8     3     4    2
     9     3     2    1
    10    26    28    1
    11    26    25    1
    12     2     5    1
    13     2     1    1
    14     5     6    1
    15    21    22    1
    16     8     6   ar
    17     8    10   ar
    18     6     7   ar
    19    25    22    1
    20    25    27    1
    21    22    23    1
    22    10    11   ar
    23     7     9   ar
    24    24    23    2
    25    23    29   am
    26    11     9   ar
    27    11    12    1
    28    40    39    1
    29    37    39   ar
    30    37    35   ar
    31    29    30    1
    32    39    38   ar
    33    35    34   ar
    34    38    36   ar
    35    30    33    1
    36    30    31    1
    37    34    36   ar
    38    34    33    1
    39    41    31   am
    40    41    42    1
    41    31    32    2
    42    45    42    1
    43    42    43    1
    44    86    85    1
    45    55    54    2
    46    53    54    1
    47    53    52    1
    48    43    44    2
    49    51    50    1
    50    87    85    1
    51    54    56   am
    52    49    48    2
    53    52    48   am
    54    85    82    1
    55    48    47    1
    56    50    47    1
    57    82    81    1
    58    82    83    1
    59    95    94    2
    60    79    80    1
    61    79    76    1
    62    96    94   am
    63    81    77   am
    64    94    93    1
    65    56    57    1
    66    47    46    1
    67    90    91    2
    68    90    89    1
    69    92    93    1
    70    92    89    1
    71    62    63    1
    72    62    58   am
    73    63    64    1
    74    77    78    2
    75    77    76    1
    76    84    83    2
    77    57    58    1
    78    57    60    1
    79    58    59    2
    80    89    88    1
    81    76    75    1
    82    64    65    2
    83    64    66   am
    84    75    68   am
    85    60    61    1
    86    66    67    1
    87    68    67    1
    88    68    69    2
    89    74    73    1
    90   105   103   am
    91   104   103    2
    92    67    70    1
    93   103   102    1
    94    70    71    1
    95    73    72    1
    96    71    72    1
    97   102   101    1
    98   101    98    1
    99   111   110    1
   100   100    99    2
   101    97    98    1
   102    98    99    1
   103   112   110    1
   104   110   107    1
   105   109   108    2
   106   107   108    1
   107   107   106    1
