@<TRIPOS>MOLECULE
tmp/3tiiB00.pdb
 176 167 0 0 0
SMALL
GASTEIGER

@<TRIPOS>ATOM
      1  N         -8.1740   -7.7240   63.6950 N.3    77  LYS77      -0.1245
      2  CA        -8.1340   -6.8760   64.8870 C.3    77  LYS77       0.1561
      3  C         -6.7720   -6.8070   65.5880 C.2    77  LYS77       0.2260
      4  O         -6.1040   -5.7650   65.5870 O.2    77  LYS77      -0.2867
      5  CB        -9.1950   -7.3480   65.8800 C.3    77  LYS77       0.0271
      6  CG       -10.6440   -7.3160   65.3720 C.3    77  LYS77       0.0035
      7  CD       -11.1540   -5.9030   65.1590 C.3    77  LYS77       0.0206
      8  CE       -12.6620   -5.9060   64.9710 C.3    77  LYS77       0.1093
      9  NZ       -13.0720   -6.8790   63.9210 N.3    77  LYS77      -0.1314
     10  N         -8.9970    3.9460   68.0720 N.3    98  PRO98      -0.2116
     11  CA        -9.2180    3.7090   69.5020 C.3    98  PRO98       0.1372
     12  C         -8.0530    2.9920   70.1910 C.2    98  PRO98       0.2244
     13  O         -7.5210    2.0010   69.6860 O.2    98  PRO98      -0.2868
     14  CB       -10.5040    2.8900   69.5160 C.3    98  PRO98       0.0268
     15  CG       -11.2570    3.4560   68.3410 C.3    98  PRO98       0.0207
     16  CD       -10.1680    3.5270   67.2830 C.3    98  PRO98       0.0892
     17  N        -14.0940   -2.2020   75.7010 N.3   128  ILE128     -0.1245
     18  CA       -14.8350   -3.2590   75.0190 C.3   128  ILE128      0.1561
     19  C        -13.8860   -4.3420   74.5080 C.2   128  ILE128      0.2260
     20  O        -12.9230   -4.0510   73.7950 O.2   128  ILE128     -0.2867
     21  CB       -15.6460   -2.6870   73.8340 C.3   128  ILE128      0.0252
     22  CG1      -16.2350   -3.8300   73.0090 C.3   128  ILE128      0.0019
     23  CG2      -14.7660   -1.7910   72.9770 C.3   128  ILE128      0.0019
     24  CD1      -17.1130   -3.3620   71.8750 C.3   128  ILE128      0.0001
     25  N        -13.2950   -7.4320   72.1650 N.3   130  LYS130     -0.1231
     26  CA       -13.7980   -8.0580   70.9450 C.3   130  LYS130      0.1693
     27  C        -12.9530   -9.2670   70.5360 C.2   130  LYS130      0.2592
     28  O        -11.7480   -9.3200   70.8020 O.2   130  LYS130     -0.2718
     29  CB       -13.8260   -7.0290   69.8040 C.3   130  LYS130      0.0285
     30  CG       -14.7600   -5.8510   70.0600 C.3   130  LYS130      0.0035
     31  CD       -14.7390   -4.8310   68.9270 C.3   130  LYS130      0.0206
     32  CE       -13.3670   -4.2060   68.7670 C.3   130  LYS130      0.1093
     33  NZ       -13.3570   -3.1900   67.6840 N.3   130  LYS130     -0.1314
     34  N        -13.5920  -10.2340   69.8870 N.am  131  SER131     -0.1952
     35  CA       -12.8970  -11.4320   69.4360 C.3   131  SER131      0.1924
     36  C        -12.1650  -11.1440   68.1280 C.2   131  SER131      0.2314
     37  O        -12.7850  -10.7290   67.1450 O.2   131  SER131     -0.2863
     38  CB       -13.9010  -12.5620   69.2340 C.3   131  SER131      0.2116
     39  OG       -14.8840  -12.2720   68.2640 O.3   131  SER131     -0.2180
     40  N        -11.3030  -12.6960   65.5090 N.3   133  SER133     -0.1217
     41  CA       -11.4800  -13.8570   64.6460 C.3   133  SER133      0.1889
     42  C        -12.7630  -13.7350   63.8330 C.2   133  SER133      0.2288
     43  O        -13.1020  -12.6530   63.3500 O.2   133  SER133     -0.2866
     44  CB       -11.5110  -15.1410   65.4860 C.3   133  SER133      0.2089
     45  OG       -12.5720  -15.1330   66.4290 O.3   133  SER133     -0.2183
     46  N        -18.4820  -14.3820   67.1990 N.3   134  GLU134     -0.1231
     47  CA       -19.6110  -13.5660   67.6280 C.3   134  GLU134      0.1699
     48  C        -19.7150  -13.5330   69.1520 C.2   134  GLU134      0.2593
     49  O        -20.3600  -14.3890   69.7550 O.2   134  GLU134     -0.2718
     50  CB       -20.9060  -14.1070   67.0220 C.3   134  GLU134      0.0402
     51  CG       -22.1390  -13.2650   67.2840 C.3   134  GLU134      0.1161
     52  CD       -22.2140  -12.0370   66.4570 C.2   134  GLU134      0.3649
     53  OE1      -21.8900  -12.1000   65.2430 O.co2 134  GLU134     -0.2457
     54  OE2      -22.7480  -11.0300   67.0440 O.co2 134  GLU134     -0.2457
     55  N        -19.0740  -12.5450   69.7710 N.am  135  GLY135     -0.1942
     56  CA       -19.1180  -12.4340   71.2170 C.3   135  GLY135      0.2014
     57  C        -18.1410  -11.4200   71.7780 C.2   135  GLY135      0.2638
     58  O        -16.9340  -11.6630   71.8060 O.2   135  GLY135     -0.2714
     59  N        -18.6600  -10.2800   72.2230 N.am  136  ILE136     -0.1977
     60  CA       -17.8310   -9.2270   72.7960 C.3   136  ILE136      0.1596
     61  C        -18.4160   -8.7820   74.1380 C.2   136  ILE136      0.2287
     62  O        -19.5500   -9.1390   74.4790 O.2   136  ILE136     -0.2864
     63  CB       -17.7510   -8.0350   71.8320 C.3   136  ILE136      0.0276
     64  CG1      -19.1130   -7.3590   71.6210 C.3   136  ILE136      0.0022
     65  CG2      -17.1550   -8.5060   70.5230 C.3   136  ILE136      0.0022
     66  CD1      -19.0160   -6.0790   70.8170 C.3   136  ILE136      0.0001
     67  N        -10.4340   -2.6040   73.5450 N.3   159  GLN159     -0.1231
     68  CA       -10.4580   -1.3110   72.8980 C.3   159  GLN159      0.1698
     69  C        -11.3320   -0.3200   73.6460 C.2   159  GLN159      0.2592
     70  O        -12.4210   -0.6650   74.1210 O.2   159  GLN159     -0.2718
     71  CB       -10.9820   -1.4940   71.4830 C.3   159  GLN159      0.0381
     72  CG       -10.8700   -0.3000   70.5880 C.3   159  GLN159      0.0905
     73  CD       -11.2930   -0.6620   69.2000 C.2   159  GLN159      0.2608
     74  OE1      -12.4820   -0.7640   68.9000 O.2   159  GLN159     -0.2717
     75  NE2      -10.3160   -0.8990   68.3410 N.am  159  GLN159     -0.0878
     76  N        -10.8550    0.9140   73.7480 N.am  160  LYS160     -0.1966
     77  CA       -11.6080    1.9480   74.4370 C.3   160  LYS160      0.1728
     78  C        -12.9240    2.1480   73.7070 C.2   160  LYS160      0.2616
     79  O        -12.9460    2.4380   72.5100 O.2   160  LYS160     -0.2715
     80  CB       -10.8200    3.2610   74.4520 C.3   160  LYS160      0.0311
     81  CG       -11.5820    4.4280   75.0600 C.3   160  LYS160      0.0038
     82  CD       -11.6890    4.2960   76.5730 C.3   160  LYS160      0.0206
     83  CE       -12.6440    5.3290   77.1600 C.3   160  LYS160      0.1093
     84  NZ       -14.0660    4.9880   76.8600 N.3   160  LYS160     -0.1314
     85  N        -14.0170    1.9800   74.4380 N.am  161  TYR161     -0.1960
     86  CA       -15.3630    2.1370   73.8970 C.3   161  TYR161      0.1771
     87  C        -15.6790    3.6270   73.7250 C.2   161  TYR161      0.2619
     88  O        -15.3050    4.4430   74.5700 O.2   161  TYR161     -0.2715
     89  CB       -16.3560    1.4980   74.8670 C.3   161  TYR161      0.0574
     90  CG       -17.7820    1.4220   74.3820 C.ar  161  TYR161     -0.0198
     91  CD1      -18.1940    0.4000   73.5270 C.ar  161  TYR161     -0.0009
     92  CD2      -18.7290    2.3640   74.7940 C.ar  161  TYR161     -0.0009
     93  CE1      -19.5180    0.3150   73.0940 C.ar  161  TYR161      0.0417
     94  CE2      -20.0570    2.2920   74.3690 C.ar  161  TYR161      0.0417
     95  CZ       -20.4460    1.2660   73.5160 C.ar  161  TYR161      0.1957
     96  OH       -21.7500    1.1980   73.0660 O.3   161  TYR161     -0.2866
     97  N        -16.3430    3.9730   72.6220 N.am  162  LEU162     -0.1977
     98  CA       -16.7360    5.3540   72.3320 C.3   162  LEU162      0.1596
     99  C        -18.0630    5.6200   73.0170 C.2   162  LEU162      0.2287
    100  O        -19.1270    5.3690   72.4560 O.2   162  LEU162     -0.2864
    101  CB       -16.8880    5.5770   70.8220 C.3   162  LEU162      0.0297
    102  CG       -15.6190    5.9010   70.0260 C.3   162  LEU162      0.0022
    103  CD1      -14.5330    4.8750   70.3100 C.3   162  LEU162      0.0001
    104  CD2      -15.9490    5.9250   68.5490 C.3   162  LEU162      0.0001
    105  N        -27.6850    4.3430   67.1190 N.3   174  LYS174     -0.1231
    106  CA       -26.2380    4.3300   66.8800 C.3   174  LYS174      0.1693
    107  C        -25.9760    3.6560   65.5210 C.2   174  LYS174      0.2592
    108  O        -26.8030    2.8740   65.0310 O.2   174  LYS174     -0.2718
    109  CB       -25.5560    3.5450   67.9960 C.3   174  LYS174      0.0285
    110  CG       -24.0400    3.5140   67.9660 C.3   174  LYS174      0.0035
    111  CD       -23.5780    2.4950   69.0060 C.3   174  LYS174      0.0206
    112  CE       -22.0740    2.3220   69.0580 C.3   174  LYS174      0.1093
    113  NZ       -21.7530    1.1840   69.9720 N.3   174  LYS174     -0.1314
    114  N        -24.8260    3.9320   64.9170 N.am  175  PHE175     -0.1962
    115  CA       -24.5350    3.3550   63.6160 C.3   175  PHE175      0.1771
    116  C        -23.0490    3.2570   63.3180 C.2   175  PHE175      0.2619
    117  O        -22.2000    3.6620   64.1140 O.2   175  PHE175     -0.2715
    118  CB       -25.1940    4.2150   62.5380 C.3   175  PHE175      0.0574
    119  CG       -24.5770    5.5800   62.4000 C.ar  175  PHE175     -0.0200
    120  CD1      -23.6510    5.8440   61.3980 C.ar  175  PHE175     -0.0042
    121  CD2      -24.8860    6.5900   63.3060 C.ar  175  PHE175     -0.0042
    122  CE1      -23.0390    7.1000   61.3010 C.ar  175  PHE175     -0.0003
    123  CE2      -24.2790    7.8440   63.2160 C.ar  175  PHE175     -0.0003
    124  CZ       -23.3550    8.0990   62.2130 C.ar  175  PHE175     -0.0000
    125  N        -22.7450    2.6950   62.1580 N.am  176  ASP176     -0.1971
    126  CA       -21.3720    2.5920   61.7060 C.3   176  ASP176      0.1709
    127  C        -21.4340    2.7840   60.2120 C.2   176  ASP176      0.2293
    128  O        -22.4470    2.4580   59.5790 O.2   176  ASP176     -0.2864
    129  CB       -20.7320    1.2330   62.0640 C.3   176  ASP176      0.1436
    130  CG       -21.4470    0.0480   61.4440 C.2   176  ASP176      0.3671
    131  OD1      -22.2690    0.2400   60.5260 O.co2 176  ASP176     -0.2456
    132  OD2      -21.1700   -1.0900   61.8780 O.co2 176  ASP176     -0.2456
    133  N        -24.9320    0.9820   58.9870 N.3   198  ARG198     -0.1245
    134  CA       -25.5900   -0.1290   59.6410 C.3   198  ARG198      0.1563
    135  C        -26.0680    0.4980   60.9420 C.2   198  ARG198      0.2260
    136  O        -25.2730    0.8050   61.8280 O.2   198  ARG198     -0.2867
    137  CB       -24.5850   -1.2720   59.8870 C.3   198  ARG198      0.0307
    138  CG       -25.2000   -2.5220   60.5410 C.3   198  ARG198      0.0489
    139  CD       -24.1250   -3.6370   60.7190 C.3   198  ARG198      0.2205
    140  NE       -23.1270   -3.2920   61.7450 N.pl3 198  ARG198     -0.0865
    141  CZ       -22.0160   -4.0080   61.9360 C.cat 198  ARG198      0.5346
    142  NH1      -21.8080   -5.0800   61.1770 N.pl3 198  ARG198      0.1354
    143  NH2      -21.0930   -3.6390   62.8380 N.pl3 198  ARG198      0.1354
    144  N        -14.5980   -0.0490   58.2170 N.3   263  ASP263     -0.1239
    145  CA       -15.7260    0.1820   59.1240 C.3   263  ASP263      0.1674
    146  C        -15.4240    1.4140   59.9810 C.2   263  ASP263      0.2266
    147  O        -14.4160    1.4480   60.6920 O.2   263  ASP263     -0.2867
    148  CB       -15.9280   -1.0350   60.0270 C.3   263  ASP263      0.1410
    149  CG       -17.3670   -1.1970   60.4720 C.2   263  ASP263      0.3668
    150  OD1      -17.6150   -1.9300   61.4590 O.co2 263  ASP263     -0.2456
    151  OD2      -18.2510   -0.6010   59.8210 O.co2 263  ASP263     -0.2456
    152  N        -16.7900    4.8310   62.6420 N.3   265  MET265     -0.1245
    153  CA       -17.6930    5.3590   63.6600 C.3   265  MET265      0.1570
    154  C        -17.4410    6.8630   63.8470 C.2   265  MET265      0.2261
    155  O        -16.3160    7.3450   63.6990 O.2   265  MET265     -0.2867
    156  CB       -17.4880    4.6410   64.9880 C.3   265  MET265      0.0387
    157  CG       -18.3460    3.4230   65.1650 C.3   265  MET265      0.0595
    158  SD       -18.3430    2.9200   66.8850 S.3   265  MET265     -0.1393
    159  CE       -19.8000    3.7790   67.4750 C.3   265  MET265      0.0692
    160  N        -12.7190    1.4870   63.2130 N.3   275  ILE275     -0.1231
    161  CA       -12.8600    0.3400   64.0940 C.3   275  ILE275      0.1692
    162  C        -12.2870   -0.9290   63.4830 C.2   275  ILE275      0.2591
    163  O        -11.6820   -1.7380   64.1910 O.2   275  ILE275     -0.2718
    164  CB       -14.3330    0.1200   64.5560 C.3   275  ILE275      0.0266
    165  CG1      -15.3080    0.5970   63.4860 C.3   275  ILE275      0.0019
    166  CG2      -14.5580    0.8380   65.8900 C.3   275  ILE275      0.0020
    167  CD1      -16.7770    0.6110   63.8970 C.3   275  ILE275      0.0001
    168  N        -12.4470   -1.1040   62.1740 N.am  276  GLU276     -0.1979
    169  CA       -11.8810   -2.2820   61.5450 C.3   276  GLU276      0.1602
    170  C        -11.8070   -2.2430   60.0310 C.2   276  GLU276      0.2287
    171  O        -12.4550   -1.4290   59.3840 O.2   276  GLU276     -0.2864
    172  CB       -12.6340   -3.5330   61.9810 C.3   276  GLU276      0.0415
    173  CG       -13.7730   -3.9390   61.0840 C.3   276  GLU276      0.1163
    174  CD       -14.1760   -5.3930   61.3030 C.2   276  GLU276      0.3649
    175  OE1      -14.7780   -5.6980   62.3590 O.co2 276  GLU276     -0.2457
    176  OE2      -13.8800   -6.2350   60.4240 O.co2 276  GLU276     -0.2457
@<TRIPOS>BOND
     1   144   145    1
     2   133   134    1
     3   145   146    1
     4   145   148    1
     5   171   170    2
     6   128   127    2
     7   134   137    1
     8   134   135    1
     9   151   149   ar
    10   137   138    1
    11   146   147    2
    12   148   149    1
    13   170   169    1
    14   127   126    1
    15   176   174   ar
    16   149   150   ar
    17   131   130   ar
    18   138   139    1
    19   139   140    1
    20   135   136    2
    21   173   174    1
    22   173   172    1
    23   142   141    1
    24   122   120   ar
    25   122   124   ar
    26   174   175   ar
    27   120   119   ar
    28   130   132   ar
    29   130   129    1
    30   169   172    1
    31   169   168    1
    32   126   129    1
    33   126   125    1
    34   140   141    2
    35   141   143    1
    36   125   116   am
    37   168   162   am
    38   124   123   ar
    39   119   118    1
    40   119   121   ar
    41   118   115    1
    42   152   153    1
    43   160   161    1
    44   123   121   ar
    45   116   115    1
    46   116   117    2
    47    43    42    2
    48   162   161    1
    49   162   163    2
    50   165   167    1
    51   165   164    1
    52   115   114    1
    53   153   154    1
    54   153   156    1
    55     1     2    1
    56   155   154    2
    57    42    41    1
    58     9     8    1
    59   161   164    1
    60   164   166    1
    61    41    44    1
    62    41    40    1
    63     2     3    1
    64     2     5    1
    65   114   107   am
    66     8     7    1
    67   156   157    1
    68   108   107    2
    69     7     6    1
    70   157   158    1
    71    53    52   ar
    72     6     5    1
    73    44    45    1
    74   107   106    1
    75     4     3    2
    76    52    54   ar
    77    52    51    1
    78   106   105    1
    79   106   109    1
    80   158   159    1
    81    50    51    1
    82    50    47    1
    83    37    36    2
    84    46    47    1
    85    16    10    1
    86    16    15    1
    87    47    48    1
    88    33    32    1
    89   110   109    1
    90   110   111    1
    91    10    11    1
    92    36    35    1
    93    39    38    1
    94    15    14    1
    95    75    73   am
    96   104   102    1
    97    32    31    1
    98    74    73    2
    99    31    30    1
   100   111   112    1
   101   112   113    1
   102    48    49    2
   103    48    55   am
   104    73    72    1
   105    38    35    1
   106    35    34    1
   107    11    14    1
   108    11    12    1
   109    13    12    2
   110    55    56    1
   111    29    30    1
   112    29    26    1
   113    34    27   am
   114   102   103    1
   115   102   101    1
   116    65    63    1
   117    27    28    2
   118    27    26    1
   119    72    71    1
   120    66    64    1
   121   101    98    1
   122    26    25    1
   123    56    57    1
   124    71    68    1
   125    64    63    1
   126    57    58    2
   127    57    59   am
   128    63    60    1
   129    24    22    1
   130    59    60    1
   131    98    97    1
   132    98    99    1
   133   100    99    2
   134    79    78    2
   135    97    87   am
   136    60    61    1
   137    68    67    1
   138    68    69    1
   139    23    21    1
   140    22    21    1
   141    96    95    1
   142    93    95   ar
   143    93    91   ar
   144    95    94   ar
   145    91    90   ar
   146    69    76   am
   147    69    70    2
   148    78    77    1
   149    78    85   am
   150    87    86    1
   151    87    88    2
   152    76    77    1
   153    20    19    2
   154    21    18    1
   155    86    85    1
   156    86    89    1
   157    61    62    2
   158    94    92   ar
   159    90    92   ar
   160    90    89    1
   161    77    80    1
   162    80    81    1
   163    19    18    1
   164    18    17    1
   165    81    82    1
   166    82    83    1
   167    84    83    1
