@<TRIPOS>MOLECULE
tmp/3tiiA00.pdb
 171 161 0 0 0
SMALL
GASTEIGER

@<TRIPOS>ATOM
      1  N          7.0070   -7.8790   -5.2920 N.3    77  LYS77      -0.1245
      2  CA         6.9130   -6.9880   -6.4340 C.3    77  LYS77       0.1561
      3  C          5.5500   -6.9740   -7.1100 C.2    77  LYS77       0.2260
      4  O          4.8770   -5.9410   -7.1550 O.2    77  LYS77      -0.2867
      5  CB         7.9810   -7.3460   -7.4590 C.3    77  LYS77       0.0271
      6  CG         9.3390   -6.7020   -7.2270 C.3    77  LYS77       0.0035
      7  CD         9.9910   -7.1660   -5.9430 C.3    77  LYS77       0.0206
      8  CE        11.4460   -6.7300   -5.9050 C.3    77  LYS77       0.1093
      9  NZ        12.2070   -7.3430   -7.0300 N.3    77  LYS77      -0.1314
     10  N          7.5690    3.9200   -9.7720 N.3    96  PRO96      -0.2116
     11  CA         7.8180    3.6400  -11.1870 C.3    96  PRO96       0.1372
     12  C          6.6270    2.9650  -11.8630 C.2    96  PRO96       0.2244
     13  O          5.9580    2.1260  -11.2700 O.2    96  PRO96      -0.2868
     14  CB         9.0430    2.7360  -11.1390 C.3    96  PRO96       0.0268
     15  CG         9.7770    3.2710   -9.9710 C.3    96  PRO96       0.0207
     16  CD         8.6950    3.4650   -8.9430 C.3    96  PRO96       0.0892
     17  N         12.8780   -2.3680  -17.1490 N.3   127  ILE127     -0.1245
     18  CA        13.6380   -3.4150  -16.4630 C.3   127  ILE127      0.1561
     19  C         12.7080   -4.5100  -15.9880 C.2   127  ILE127      0.2260
     20  O         11.7280   -4.2530  -15.2800 O.2   127  ILE127     -0.2867
     21  CB        14.4340   -2.9050  -15.2390 C.3   127  ILE127      0.0252
     22  CG1       15.0170   -4.1160  -14.4910 C.3   127  ILE127      0.0019
     23  CG2       13.5620   -2.0600  -14.3370 C.3   127  ILE127      0.0019
     24  CD1       15.9420   -3.7720  -13.3200 C.3   127  ILE127      0.0001
     25  N         12.0430   -7.6240  -13.6740 N.3   129  LYS129     -0.1231
     26  CA        12.4910   -8.2820  -12.4410 C.3   129  LYS129      0.1693
     27  C         11.5560   -9.4260  -11.9980 C.2   129  LYS129      0.2592
     28  O         10.3810   -9.5020  -12.4050 O.2   129  LYS129     -0.2718
     29  CB        12.6160   -7.2450  -11.3100 C.3   129  LYS129      0.0285
     30  CG        13.7220   -6.2180  -11.5160 C.3   129  LYS129      0.0035
     31  CD        13.2230   -4.7810  -11.3190 C.3   129  LYS129      0.0206
     32  CE        12.7060   -4.5450   -9.9140 C.3   129  LYS129      0.1093
     33  NZ        12.3360   -3.1140   -9.6640 N.3   129  LYS129     -0.1314
     34  N         12.0980  -10.3110  -11.1640 N.am  130  SER130     -0.1952
     35  CA        11.3570  -11.4510  -10.6350 C.3   130  SER130      0.1924
     36  C         10.7340  -11.0480   -9.3010 C.2   130  SER130      0.2314
     37  O         11.3920  -10.4090   -8.4760 O.2   130  SER130     -0.2863
     38  CB        12.2950  -12.6300  -10.4400 C.3   130  SER130      0.2116
     39  OG        11.7110  -13.7140   -9.9130 O.3   130  SER130     -0.2180
     40  N         10.0400  -12.7650   -6.6270 N.3   132  SER132     -0.1217
     41  CA        10.7750  -13.3110   -5.4800 C.3   132  SER132      0.1889
     42  C         11.9990  -14.0860   -5.9600 C.2   132  SER132      0.2288
     43  O         13.1120  -13.8860   -5.4680 O.2   132  SER132     -0.2866
     44  CB         9.8890  -14.2260   -4.6090 C.3   132  SER132      0.2089
     45  OG         9.4850  -15.4320   -5.3110 O.3   132  SER132     -0.2183
     46  N         17.8540  -10.1670  -13.7150 N.3   134  ILE134     -0.1245
     47  CA        17.1090   -9.0260  -14.2330 C.3   134  ILE134      0.1561
     48  C         17.5430   -8.5830  -15.6360 C.2   134  ILE134      0.2260
     49  O         18.7120   -8.7030  -16.0060 O.2   134  ILE134     -0.2867
     50  CB        17.2280   -7.8190  -13.2800 C.3   134  ILE134      0.0252
     51  CG1       18.6670   -7.3030  -13.2620 C.3   134  ILE134      0.0019
     52  CG2       16.7920   -8.2330  -11.8750 C.3   134  ILE134      0.0019
     53  CD1       18.8570   -6.0240  -12.4730 C.3   134  ILE134      0.0001
     54  N         17.3400   -5.3310  -18.5500 N.3   136  ILE136     -0.1245
     55  CA        17.0930   -3.9030  -18.7570 C.3   136  ILE136      0.1561
     56  C         17.2080   -3.5740  -20.2420 C.2   136  ILE136      0.2260
     57  O         18.3160   -3.5100  -20.7740 O.2   136  ILE136     -0.2867
     58  CB        18.1220   -3.0080  -18.0190 C.3   136  ILE136      0.0252
     59  CG1       18.2360   -3.4000  -16.5490 C.3   136  ILE136      0.0019
     60  CG2       17.7060   -1.5450  -18.1380 C.3   136  ILE136      0.0019
     61  CD1       19.3000   -2.6300  -15.7960 C.3   136  ILE136      0.0001
     62  N          9.1490   -2.9460  -15.0890 N.3   157  GLN157     -0.1231
     63  CA         9.1030   -1.6310  -14.4980 C.3   157  GLN157      0.1698
     64  C          9.8570   -0.5890  -15.2890 C.2   157  GLN157      0.2592
     65  O         10.8820   -0.8880  -15.8980 O.2   157  GLN157     -0.2718
     66  CB         9.6720   -1.7060  -13.0900 C.3   157  GLN157      0.0381
     67  CG         9.5230   -0.4360  -12.3170 C.3   157  GLN157      0.0905
     68  CD         9.8340   -0.6310  -10.8710 C.2   157  GLN157      0.2608
     69  OE1       10.9940   -0.7440  -10.4860 O.2   157  GLN157     -0.2717
     70  NE2        8.7950   -0.6870  -10.0510 N.am  157  GLN157     -0.0878
     71  N          9.3540    0.6410  -15.2730 N.am  158  LYS158     -0.1966
     72  CA        10.0250    1.7230  -15.9900 C.3   158  LYS158      0.1728
     73  C         11.3740    1.9770  -15.3340 C.2   158  LYS158      0.2616
     74  O         11.4650    2.2790  -14.1470 O.2   158  LYS158     -0.2715
     75  CB         9.2150    3.0200  -15.9500 C.3   158  LYS158      0.0311
     76  CG         9.8980    4.1940  -16.6620 C.3   158  LYS158      0.0038
     77  CD         9.8420    4.0270  -18.1910 C.3   158  LYS158      0.0206
     78  CE        10.6390    5.1120  -18.9170 C.3   158  LYS158      0.1093
     79  NZ        12.1210    4.8880  -18.8410 N.3   158  LYS158     -0.1314
     80  N         12.4200    1.8760  -16.1360 N.am  159  TYR159     -0.1960
     81  CA        13.7750    2.0760  -15.6510 C.3   159  TYR159      0.1771
     82  C         14.1280    3.5530  -15.5310 C.2   159  TYR159      0.2619
     83  O         13.8260    4.3320  -16.4380 O.2   159  TYR159     -0.2715
     84  CB        14.7470    1.3980  -16.6020 C.3   159  TYR159      0.0574
     85  CG        16.1580    1.3290  -16.0820 C.ar  159  TYR159     -0.0198
     86  CD1       16.5660    0.2980  -15.2410 C.ar  159  TYR159     -0.0009
     87  CD2       17.0770    2.3240  -16.3890 C.ar  159  TYR159     -0.0009
     88  CE1       17.8640    0.2630  -14.7120 C.ar  159  TYR159      0.0417
     89  CE2       18.3700    2.3040  -15.8650 C.ar  159  TYR159      0.0417
     90  CZ        18.7580    1.2740  -15.0270 C.ar  159  TYR159      0.1957
     91  OH        20.0310    1.2680  -14.5020 O.3   159  TYR159     -0.2866
     92  N         14.7690    3.9280  -14.4200 N.am  160  LEU160     -0.1977
     93  CA        15.2020    5.3110  -14.1770 C.3   160  LEU160      0.1596
     94  C         16.4700    5.6270  -14.9500 C.2   160  LEU160      0.2287
     95  O         17.5790    5.3180  -14.5050 O.2   160  LEU160     -0.2864
     96  CB        15.4650    5.5490  -12.6850 C.3   160  LEU160      0.0297
     97  CG        14.2840    5.8810  -11.7770 C.3   160  LEU160      0.0022
     98  CD1       13.1150    4.9790  -12.0860 C.3   160  LEU160      0.0001
     99  CD2       14.7160    5.7320  -10.3260 C.3   160  LEU160      0.0001
    100  N         26.3140    4.5670   -9.1070 N.3   172  LYS172     -0.1231
    101  CA        24.8850    4.5950   -8.8420 C.3   172  LYS172      0.1693
    102  C         24.6750    4.0060   -7.4520 C.2   172  LYS172      0.2592
    103  O         25.5200    3.2500   -6.9650 O.2   172  LYS172     -0.2718
    104  CB        24.1650    3.7560   -9.9020 C.3   172  LYS172      0.0285
    105  CG        22.6600    3.6600   -9.7660 C.3   172  LYS172      0.0035
    106  CD        22.1160    2.6980  -10.8130 C.3   172  LYS172      0.0206
    107  CE        20.6200    2.5030  -10.6730 C.3   172  LYS172      0.1093
    108  NZ        19.9150    3.7630  -11.0020 N.3   172  LYS172     -0.1314
    109  N         23.5590    4.3550   -6.8150 N.am  173  PHE173     -0.1962
    110  CA        23.2510    3.8580   -5.4770 C.3   173  PHE173      0.1771
    111  C         21.7500    3.7270   -5.2630 C.2   173  PHE173      0.2619
    112  O         20.9520    3.9450   -6.1720 O.2   173  PHE173     -0.2715
    113  CB        23.8170    4.8140   -4.4230 C.3   173  PHE173      0.0574
    114  CG        23.0180    6.0760   -4.2630 C.ar  173  PHE173     -0.0200
    115  CD1       21.9380    6.1240   -3.3940 C.ar  173  PHE173     -0.0042
    116  CD2       23.3340    7.2090   -4.9930 C.ar  173  PHE173     -0.0042
    117  CE1       21.1830    7.2870   -3.2540 C.ar  173  PHE173     -0.0003
    118  CE2       22.5870    8.3780   -4.8610 C.ar  173  PHE173     -0.0003
    119  CZ        21.5100    8.4180   -3.9920 C.ar  173  PHE173     -0.0000
    120  N         21.3880    3.3680   -4.0370 N.am  174  ASP174     -0.1971
    121  CA        19.9950    3.2150   -3.6280 C.3   174  ASP174      0.1709
    122  C         19.9840    3.2760   -2.1120 C.2   174  ASP174      0.2293
    123  O         20.9030    2.7860   -1.4690 O.2   174  ASP174     -0.2864
    124  CB        19.4100    1.8820   -4.1340 C.3   174  ASP174      0.1436
    125  CG        19.7480    0.6780   -3.2400 C.2   174  ASP174      0.3671
    126  OD1       19.3450    0.6550   -2.0590 O.co2 174  ASP174     -0.2456
    127  OD2       20.3990   -0.2720   -3.7280 O.co2 174  ASP174     -0.2456
    128  N         23.6660    1.5030   -1.0360 N.3   196  ARG196     -0.1245
    129  CA        24.3470    0.3960   -1.7000 C.3   196  ARG196      0.1563
    130  C         24.9930    0.8830   -2.9970 C.2   196  ARG196      0.2260
    131  O         24.5610    0.5220   -4.0930 O.2   196  ARG196     -0.2867
    132  CB        23.3520   -0.7330   -2.0030 C.3   196  ARG196      0.0307
    133  CG        23.7850   -2.1120   -1.5370 C.3   196  ARG196      0.0489
    134  CD        22.5690   -2.9800   -1.2430 C.3   196  ARG196      0.2205
    135  NE        21.8070   -3.3400   -2.4390 N.pl3 196  ARG196     -0.0865
    136  CZ        20.5850   -3.8710   -2.4230 C.cat 196  ARG196      0.5346
    137  NH1       19.9630   -4.1050   -1.2700 N.pl3 196  ARG196      0.1354
    138  NH2       19.9830   -4.1750   -3.5660 N.pl3 196  ARG196      0.1354
    139  N         13.2770    0.2850    0.0770 N.3   261  ASP261     -0.1239
    140  CA        14.3560    0.5640   -0.8780 C.3   261  ASP261      0.1674
    141  C         13.9800    1.6970   -1.8180 C.2   261  ASP261      0.2266
    142  O         13.0490    1.5770   -2.6110 O.2   261  ASP261     -0.2867
    143  CB        14.6940   -0.6790   -1.7110 C.3   261  ASP261      0.1410
    144  CG        15.9650   -1.3740   -1.2450 C.2   261  ASP261      0.3668
    145  OD1       15.9240   -2.0660   -0.2020 O.co2 261  ASP261     -0.2456
    146  OD2       17.0090   -1.2210   -1.9200 O.co2 261  ASP261     -0.2456
    147  N         15.2560    5.2050   -4.4440 N.3   263  MET263     -0.1245
    148  CA        16.2030    5.6860   -5.4310 C.3   263  MET263      0.1570
    149  C         15.9350    7.1480   -5.6540 C.2   263  MET263      0.2261
    150  O         14.8050    7.6110   -5.4840 O.2   263  MET263     -0.2867
    151  CB        16.0680    4.9440   -6.7500 C.3   263  MET263      0.0387
    152  CG        16.8830    3.6880   -6.8050 C.3   263  MET263      0.0595
    153  SD        17.1500    3.2630   -8.4930 S.3   263  MET263     -0.1393
    154  CE        18.2730    4.4790   -8.8610 C.3   263  MET263      0.0692
    155  N         11.1620    1.5410   -4.9420 N.3   273  ILE273     -0.1231
    156  CA        11.3940    0.4030   -5.8220 C.3   273  ILE273      0.1692
    157  C         11.0390   -0.9310   -5.1780 C.2   273  ILE273      0.2591
    158  O         10.5950   -1.8540   -5.8600 O.2   273  ILE273     -0.2718
    159  CB        12.8530    0.3710   -6.3550 C.3   273  ILE273      0.0266
    160  CG1       13.8540    0.4840   -5.2070 C.3   273  ILE273      0.0019
    161  CG2       13.0490    1.5040   -7.3640 C.3   273  ILE273      0.0020
    162  CD1       15.3180    0.4960   -5.6590 C.3   273  ILE273      0.0001
    163  N         11.1990   -1.0320   -3.8630 N.am  274  GLU274     -0.1979
    164  CA        10.8860   -2.2850   -3.1800 C.3   274  GLU274      0.1602
    165  C         10.7760   -2.1320   -1.6810 C.2   274  GLU274      0.2287
    166  O         11.3060   -1.1900   -1.0920 O.2   274  GLU274     -0.2864
    167  CB        11.9730   -3.3270   -3.4720 C.3   274  GLU274      0.0415
    168  CG        11.6890   -4.7030   -2.8810 C.3   274  GLU274      0.1163
    169  CD        12.9190   -5.5970   -2.8150 C.2   274  GLU274      0.3649
    170  OE1       13.5860   -5.7780   -3.8550 O.co2 274  GLU274     -0.2457
    171  OE2       13.2140   -6.1260   -1.7220 O.co2 274  GLU274     -0.2457
@<TRIPOS>BOND
     1    57    56    2
     2    56    55    1
     3    78    79    1
     4    78    77    1
     5    55    54    1
     6    55    58    1
     7    77    76    1
     8    60    58    1
     9    58    59    1
    10    17    18    1
    11    76    75    1
    12    84    85    1
    13    84    81    1
    14    59    61    1
    15    18    19    1
    16    18    21    1
    17    83    82    2
    18    87    85   ar
    19    87    89   ar
    20    80    81    1
    21    80    73   am
    22    85    86   ar
    23    49    48    2
    24    72    75    1
    25    72    73    1
    26    72    71    1
    27    19    20    2
    28    65    64    2
    29    89    90   ar
    30    81    82    1
    31    48    47    1
    32    82    92   am
    33    73    74    2
    34    64    71   am
    35    64    63    1
    36    86    88   ar
    37    21    22    1
    38    21    23    1
    39    62    63    1
    40    90    88   ar
    41    90    91    1
    42    94    95    2
    43    94    93    1
    44    63    66    1
    45    22    24    1
    46    92    93    1
    47    47    46    1
    48    47    50    1
    49    93    96    1
    50    25    26    1
    51    50    51    1
    52    50    52    1
    53    51    53    1
    54    66    67    1
    55    96    97    1
    56    26    27    1
    57    26    29    1
    58    28    27    2
    59    67    68    1
    60    98    97    1
    61    27    34   am
    62    12    13    2
    63    12    11    1
    64    97    99    1
    65    30    31    1
    66    30    29    1
    67    31    32    1
    68    11    14    1
    69    11    10    1
    70    34    35    1
    71    14    15    1
    72   108   107    1
    73    68    69    2
    74    68    70   am
    75   106   107    1
    76   106   105    1
    77    35    38    1
    78    35    36    1
    79    38    39    1
    80    15    16    1
    81    32    33    1
    82   104   105    1
    83   104   101    1
    84    10    16    1
    85    36    37    2
    86   100   101    1
    87   154   153    1
    88   101   102    1
    89   153   152    1
    90     5     6    1
    91     5     2    1
    92   102   103    2
    93   102   109   am
    94   161   159    1
    95     6     7    1
    96     4     3    2
    97     3     2    1
    98     9     8    1
    99   109   110    1
   100   152   151    1
   101   151   148    1
   102    40    41    1
   103     2     1    1
   104   159   156    1
   105   159   160    1
   106   112   111    2
   107    42    41    1
   108    42    43    2
   109     7     8    1
   110   158   157    2
   111   156   157    1
   112   156   155    1
   113   162   160    1
   114   149   150    2
   115   149   148    1
   116    41    44    1
   117   110   111    1
   118   110   113    1
   119   148   147    1
   120    45    44    1
   121   111   120   am
   122   157   163   am
   123   116   118   ar
   124   116   114   ar
   125   118   119   ar
   126   113   114    1
   127   114   115   ar
   128   124   121    1
   129   124   125    1
   130   131   130    2
   131   120   121    1
   132   119   117   ar
   133   163   164    1
   134   170   169   ar
   135   127   125   ar
   136   121   122    1
   137   138   136    1
   138   167   164    1
   139   167   168    1
   140   115   117   ar
   141   125   126   ar
   142   164   165    1
   143   130   129    1
   144   168   169    1
   145   169   171   ar
   146   142   141    2
   147   135   136    2
   148   135   134    1
   149   136   137    1
   150   122   123    2
   151   132   129    1
   152   132   133    1
   153   146   144   ar
   154   141   140    1
   155   143   144    1
   156   143   140    1
   157   129   128    1
   158   165   166    2
   159   133   134    1
   160   144   145   ar
   161   140   139    1
