@<TRIPOS>MOLECULE
tmp/3tijA00.pdb
 143 134 0 0 0
SMALL
GASTEIGER

@<TRIPOS>ATOM
      1  N         43.9050  -21.7990  -10.9410 N.3   152  GLY152     -0.1210
      2  CA        45.0200  -20.9390  -11.2710 C.3   152  GLY152      0.1956
      3  C         45.0420  -20.4370  -12.6980 C.2   152  GLY152      0.2612
      4  O         44.3310  -20.9390  -13.5680 O.2   152  GLY152     -0.2717
      5  N         45.8960  -19.4490  -12.9270 N.am  153  GLN153     -0.1965
      6  CA        45.9890  -18.7330  -14.1960 C.3   153  GLN153      0.1733
      7  C         46.2630  -19.6110  -15.4270 C.2   153  GLN153      0.2617
      8  O         45.8640  -19.2600  -16.5380 O.2   153  GLN153     -0.2715
      9  CB        47.0750  -17.6550  -14.0850 C.3   153  GLN153      0.0408
     10  CG        48.4630  -18.2110  -13.8290 C.3   153  GLN153      0.0908
     11  CD        49.4420  -17.1470  -13.3710 C.2   153  GLN153      0.2608
     12  OE1       49.3220  -15.9770  -13.7350 O.2   153  GLN153     -0.2717
     13  NE2       50.4190  -17.5480  -12.5630 N.am  153  GLN153     -0.0878
     14  N         46.9570  -20.7310  -15.2430 N.am  154  THR154     -0.1937
     15  CA        47.2880  -21.6070  -16.3740 C.3   154  THR154      0.2028
     16  C         46.2320  -22.7020  -16.5630 C.2   154  THR154      0.2642
     17  O         46.1810  -23.3460  -17.5960 O.2   154  THR154     -0.2714
     18  CB        48.7030  -22.2530  -16.2400 C.3   154  THR154      0.1808
     19  OG1       48.8210  -22.9290  -14.9830 O.3   154  THR154     -0.2208
     20  CG2       49.7990  -21.2050  -16.3270 C.3   154  THR154      0.0379
     21  N         45.3810  -22.8910  -15.5600 N.am  155  GLU155     -0.1976
     22  CA        44.3420  -23.9150  -15.6040 C.3   155  GLU155      0.1602
     23  C         43.0190  -23.3610  -16.1260 C.2   155  GLU155      0.2287
     24  O         42.2920  -24.0440  -16.8320 O.2   155  GLU155     -0.2864
     25  CB        44.1300  -24.5320  -14.2140 C.3   155  GLU155      0.0415
     26  CG        45.2710  -25.4290  -13.7280 C.3   155  GLU155      0.1163
     27  CD        46.4310  -24.6450  -13.0960 C.2   155  GLU155      0.3649
     28  OE1       46.6150  -23.4490  -13.4190 O.co2 155  GLU155     -0.2457
     29  OE2       47.1650  -25.2260  -12.2630 O.co2 155  GLU155     -0.2457
     30  N         44.0110  -19.3990   -6.6240 N.3   184  ALA184     -0.1245
     31  CA        43.5180  -20.7350   -6.9600 C.3   184  ALA184      0.1562
     32  C         43.1320  -21.4830   -5.6880 C.2   184  ALA184      0.2260
     33  O         43.6690  -21.2010   -4.6120 O.2   184  ALA184     -0.2867
     34  CB        44.5700  -21.5140   -7.7490 C.3   184  ALA184      0.0290
     35  N         46.0840  -23.0200   -3.2210 N.3   187  VAL187     -0.1245
     36  CA        46.8320  -22.0820   -2.3860 C.3   187  VAL187      0.1561
     37  C         45.9250  -21.3030   -1.4410 C.2   187  VAL187      0.2260
     38  O         46.3550  -20.9080   -0.3570 O.2   187  VAL187     -0.2867
     39  CB        47.7210  -21.1170   -3.2210 C.3   187  VAL187      0.0252
     40  CG1       48.8490  -21.8880   -3.9040 C.3   187  VAL187      0.0019
     41  CG2       46.8870  -20.3460   -4.2430 C.3   187  VAL187      0.0019
     42  N         46.7820  -20.5450    2.3820 N.3   191  TYR191     -0.1241
     43  CA        46.7440  -19.2720    3.0960 C.3   191  TYR191      0.1605
     44  C         45.8290  -19.3380    4.3140 C.2   191  TYR191      0.2264
     45  O         46.1470  -18.7900    5.3710 O.2   191  TYR191     -0.2867
     46  CB        46.3100  -18.1470    2.1470 C.3   191  TYR191      0.0534
     47  CG        47.2310  -18.0280    0.9640 C.ar  191  TYR191     -0.0201
     48  CD1       48.5840  -18.3220    1.0960 C.ar  191  TYR191     -0.0009
     49  CD2       46.7550  -17.6580   -0.2910 C.ar  191  TYR191     -0.0009
     50  CE1       49.4390  -18.2450    0.0230 C.ar  191  TYR191      0.0417
     51  CE2       47.6150  -17.5730   -1.3840 C.ar  191  TYR191      0.0417
     52  CZ        48.9530  -17.8650   -1.2130 C.ar  191  TYR191      0.1957
     53  OH        49.8220  -17.7770   -2.2700 O.3   191  TYR191     -0.2866
     54  N         53.2090  -29.0880   -7.6410 N.3   247  LEU247     -0.1245
     55  CA        53.0260  -27.7210   -7.1870 C.3   247  LEU247      0.1561
     56  C         53.5670  -27.5310   -5.7720 C.2   247  LEU247      0.2260
     57  O         54.2510  -26.5480   -5.5010 O.2   247  LEU247     -0.2867
     58  CB        51.5540  -27.3210   -7.2640 C.3   247  LEU247      0.0270
     59  CG        51.1800  -25.9340   -6.7320 C.3   247  LEU247      0.0019
     60  CD1       51.9090  -24.8150   -7.5060 C.3   247  LEU247      0.0001
     61  CD2       49.6790  -25.7480   -6.8060 C.3   247  LEU247      0.0001
     62  N         56.5400  -24.8980   -4.6840 N.3   251  VAL251     -0.1245
     63  CA        56.2720  -23.8090   -3.7480 C.3   251  VAL251      0.1561
     64  C         57.2020  -23.9010   -2.5390 C.2   251  VAL251      0.2260
     65  O         57.6950  -22.8860   -2.0500 O.2   251  VAL251     -0.2867
     66  CB        54.7830  -23.7800   -3.3130 C.3   251  VAL251      0.0252
     67  CG1       54.5990  -22.9580   -2.0080 C.3   251  VAL251      0.0019
     68  CG2       53.8940  -23.2560   -4.4650 C.3   251  VAL251      0.0019
     69  N         60.7680  -22.8120   -3.6020 N.3   254  MET254     -0.1245
     70  CA        60.7470  -21.3680   -3.7960 C.3   254  MET254      0.1570
     71  C         60.7790  -20.6140   -2.4500 C.2   254  MET254      0.2261
     72  O         61.4480  -19.5900   -2.3200 O.2   254  MET254     -0.2867
     73  CB        59.5370  -20.9520   -4.6410 C.3   254  MET254      0.0387
     74  CG        59.3100  -19.4340   -4.7400 C.3   254  MET254      0.0595
     75  SD        58.5200  -18.6710   -3.2930 S.3   254  MET254     -0.1393
     76  CE        56.8890  -19.4180   -3.3420 C.3   254  MET254      0.0692
     77  N         56.2540  -12.5240   -4.7250 N.3   319  ASN319     -0.1225
     78  CA        54.9400  -13.1220   -4.9890 C.3   319  ASN319      0.1785
     79  C         54.0540  -13.1290   -3.7290 C.2   319  ASN319      0.2597
     80  O         54.5310  -12.8530   -2.6410 O.2   319  ASN319     -0.2718
     81  CB        55.0640  -14.5300   -5.5950 C.3   319  ASN319      0.1169
     82  CG        55.7820  -15.5140   -4.6720 C.2   319  ASN319      0.2627
     83  OD1       55.2890  -15.8500   -3.5960 O.2   319  ASN319     -0.2716
     84  ND2       56.9460  -15.9930   -5.1080 N.am  319  ASN319     -0.0877
     85  N         52.7720  -13.4450   -3.8700 N.am  320  GLU320     -0.1965
     86  CA        51.8530  -13.3360   -2.7370 C.3   320  GLU320      0.1733
     87  C         52.1310  -14.3750   -1.6530 C.2   320  GLU320      0.2616
     88  O         51.7940  -14.1760   -0.4790 O.2   320  GLU320     -0.2715
     89  CB        50.3870  -13.3950   -3.1920 C.3   320  GLU320      0.0429
     90  CG        49.8200  -14.7950   -3.3710 C.3   320  GLU320      0.1163
     91  CD        50.4510  -15.5680   -4.5460 C.2   320  GLU320      0.3649
     92  OE1       51.1910  -14.9540   -5.3600 O.co2 320  GLU320     -0.2457
     93  OE2       50.1940  -16.7910   -4.6490 O.co2 320  GLU320     -0.2457
     94  N         52.7550  -15.4770   -2.0410 N.am  321  PHE321     -0.1974
     95  CA        53.0240  -16.5400   -1.0880 C.3   321  PHE321      0.1639
     96  C         54.0990  -16.1400   -0.0720 C.2   321  PHE321      0.2290
     97  O         53.9340  -16.3680    1.1300 O.2   321  PHE321     -0.2864
     98  CB        53.4100  -17.8120   -1.8300 C.3   321  PHE321      0.0560
     99  CG        52.8900  -19.0520   -1.1950 C.ar  321  PHE321     -0.0200
    100  CD1       52.1910  -19.9840   -1.9260 C.ar  321  PHE321     -0.0042
    101  CD2       53.1090  -19.3050    0.1410 C.ar  321  PHE321     -0.0042
    102  CE1       51.7150  -21.1440   -1.3220 C.ar  321  PHE321     -0.0003
    103  CE2       52.6340  -20.4660    0.7320 C.ar  321  PHE321     -0.0003
    104  CZ        51.9410  -21.3770    0.0040 C.ar  321  PHE321     -0.0000
    105  N         47.7790  -13.3970   -8.0980 N.3   354  PHE354     -0.1241
    106  CA        49.0030  -13.9200   -8.6990 C.3   354  PHE354      0.1605
    107  C         49.7590  -12.8270   -9.4750 C.2   354  PHE354      0.2264
    108  O         50.7350  -13.1070  -10.1780 O.2   354  PHE354     -0.2867
    109  CB        48.6930  -15.0980   -9.6370 C.3   354  PHE354      0.0534
    110  CG        48.3620  -16.3940   -8.9230 C.ar  354  PHE354     -0.0203
    111  CD1       48.4870  -16.5060   -7.5480 C.ar  354  PHE354     -0.0042
    112  CD2       47.9270  -17.4950   -9.6360 C.ar  354  PHE354     -0.0042
    113  CE1       48.1860  -17.6880   -6.9060 C.ar  354  PHE354     -0.0003
    114  CE2       47.6200  -18.6740   -8.9960 C.ar  354  PHE354     -0.0003
    115  CZ        47.7540  -18.7730   -7.6280 C.ar  354  PHE354     -0.0000
    116  N         52.3410  -10.5990  -10.3230 N.3   356  ASN356     -0.1240
    117  CA        53.7550  -10.2900  -10.1220 C.3   356  ASN356      0.1653
    118  C         54.4890  -10.6030  -11.4260 C.2   356  ASN356      0.2266
    119  O         53.9340  -11.2680  -12.2990 O.2   356  ASN356     -0.2867
    120  CB        54.3670  -11.0530   -8.9340 C.3   356  ASN356      0.1155
    121  CG        54.2880  -12.5720   -9.0930 C.2   356  ASN356      0.2627
    122  OD1       55.0670  -13.1770   -9.8390 O.2   356  ASN356     -0.2716
    123  ND2       53.3570  -13.1940   -8.3770 N.am  356  ASN356     -0.0877
    124  N         56.9630  -12.5650  -12.1340 N.3   358  SER358     -0.1202
    125  CA        57.2810  -13.9770  -12.3700 C.3   358  SER358      0.2020
    126  C         56.1140  -14.7850  -12.9470 C.2   358  SER358      0.2619
    127  O         56.3250  -15.8070  -13.6180 O.2   358  SER358     -0.2717
    128  CB        57.8220  -14.6410  -11.1050 C.3   358  SER358      0.2103
    129  OG        59.1550  -14.2200  -10.8620 O.3   358  SER358     -0.2182
    130  N         54.8890  -14.3250  -12.7000 N.am  359  SER359     -0.1951
    131  CA        53.7210  -14.9680  -13.2820 C.3   359  SER359      0.1924
    132  C         53.6910  -14.8640  -14.8060 C.2   359  SER359      0.2314
    133  O         52.9740  -15.6300  -15.4580 O.2   359  SER359     -0.2863
    134  CB        52.4330  -14.4180  -12.6790 C.3   359  SER359      0.2116
    135  OG        52.2410  -14.9060  -11.3650 O.3   359  SER359     -0.2180
    136  N         55.2800  -17.9340  -16.2950 N.3   362  ILE362     -0.1245
    137  CA        54.3670  -19.0450  -16.0810 C.3   362  ILE362      0.1561
    138  C         53.2340  -19.0270  -17.0930 C.2   362  ILE362      0.2260
    139  O         52.8720  -20.0670  -17.6400 O.2   362  ILE362     -0.2867
    140  CB        53.8570  -19.0700  -14.6240 C.3   362  ILE362      0.0252
    141  CG1       54.9990  -19.5050  -13.6970 C.3   362  ILE362      0.0019
    142  CG2       52.6510  -20.0020  -14.4690 C.3   362  ILE362      0.0019
    143  CD1       54.6560  -19.4430  -12.2340 C.3   362  ILE362      0.0001
@<TRIPOS>BOND
     1   139   138    2
     2    17    16    2
     3   138   137    1
     4    24    23    2
     5    16    15    1
     6    16    21   am
     7     8     7    2
     8    15    18    1
     9    15    14    1
    10    20    18    1
    11   136   137    1
    12    18    19    1
    13    23    22    1
    14   137   140    1
    15    22    21    1
    16    22    25    1
    17   133   132    2
    18     7    14   am
    19     7     6    1
    20   132   131    1
    21   140   142    1
    22   140   141    1
    23    25    26    1
    24     6     9    1
    25     6     5    1
    26     9    10    1
    27    10    11    1
    28    12    11    2
    29    26    27    1
    30   141   143    1
    31   127   126    2
    32     4     3    2
    33    28    27   ar
    34    11    13   am
    35   131   130    1
    36   131   134    1
    37    27    29   ar
    38   126   130   am
    39   126   125    1
    40     5     3   am
    41     3     2    1
    42   134   135    1
    43   125   124    1
    44   125   128    1
    45   119   118    2
    46   118   117    1
    47     2     1    1
    48   128   129    1
    49   116   117    1
    50   108   107    2
    51   117   120    1
    52   122   121    2
    53   109   110    1
    54   109   106    1
    55   112   114   ar
    56   112   110   ar
    57   107   106    1
    58   121   120    1
    59   121   123   am
    60   114   115   ar
    61   110   111   ar
    62   106   105    1
    63    34    31    1
    64    54    55    1
    65   115   113   ar
    66   111   113   ar
    67    60    59    1
    68    58    55    1
    69    58    59    1
    70    55    56    1
    71    31    30    1
    72    31    32    1
    73    61    59    1
    74    56    57    2
    75    32    33    2
    76    81    78    1
    77    81    82    1
    78    92    91   ar
    79    84    82   am
    80    78    77    1
    81    78    79    1
    82    74    73    1
    83    74    75    1
    84    62    63    1
    85    82    83    2
    86    93    91   ar
    87    73    70    1
    88    91    90    1
    89    68    66    1
    90    41    39    1
    91    40    39    1
    92    85    79   am
    93    85    86    1
    94    70    69    1
    95    70    71    1
    96    63    66    1
    97    63    64    1
    98    79    80    2
    99    90    89    1
   100    76    75    1
   101    66    67    1
   102    39    36    1
   103    35    36    1
   104    89    86    1
   105    86    87    1
   106    64    65    2
   107    71    72    2
   108    36    37    1
   109    53    52    1
   110    94    87   am
   111    94    95    1
   112   100   102   ar
   113   100    99   ar
   114    98    99    1
   115    98    95    1
   116    87    88    2
   117    37    38    2
   118    51    52   ar
   119    51    49   ar
   120   102   104   ar
   121    52    50   ar
   122    99   101   ar
   123    95    96    1
   124    49    47   ar
   125    96    97    2
   126   104   103   ar
   127    50    48   ar
   128   101   103   ar
   129    47    48   ar
   130    47    46    1
   131    46    43    1
   132    42    43    1
   133    43    44    1
   134    44    45    2
