@<TRIPOS>MOLECULE
tmp/3tikD01.pdb
 191 183 0 0 0
SMALL
GASTEIGER

@<TRIPOS>ATOM
      1  N        -13.6130   22.5030   -0.3610 N.3    76  TYR76      -0.1241
      2  CA       -14.0490   22.6200    1.0020 C.3    76  TYR76       0.1605
      3  C        -15.3800   21.8870    1.1800 C.2    76  TYR76       0.2264
      4  O        -16.0310   22.0560    2.1920 O.2    76  TYR76      -0.2867
      5  CB       -14.1600   24.1000    1.4120 C.3    76  TYR76       0.0534
      6  CG       -12.8280   24.7820    1.7170 C.ar   76  TYR76      -0.0201
      7  CD1      -12.1530   25.5110    0.7330 C.ar   76  TYR76      -0.0009
      8  CD2      -12.2620   24.7300    2.9970 C.ar   76  TYR76      -0.0009
      9  CE1      -10.9500   26.1590    1.0070 C.ar   76  TYR76       0.0417
     10  CE2      -11.0510   25.3770    3.2830 C.ar   76  TYR76       0.0417
     11  CZ       -10.4010   26.0830    2.2760 C.ar   76  TYR76       0.1957
     12  OH        -9.2060   26.7200    2.5290 O.3    76  TYR76      -0.2866
     13  N        -16.1120   18.8560    1.8780 N.3    78  PHE78      -0.1227
     14  CA       -16.1620   17.8700    2.9550 C.3    78  PHE78       0.1736
     15  C        -16.6130   18.5510    4.2530 C.2    78  PHE78       0.2595
     16  O        -16.9690   17.8760    5.2180 O.2    78  PHE78      -0.2718
     17  CB       -14.8080   17.1890    3.1500 C.3    78  PHE78       0.0547
     18  CG       -13.7660   18.0880    3.7320 C.ar   78  PHE78      -0.0202
     19  CD1      -13.4960   18.0720    5.0870 C.ar   78  PHE78      -0.0042
     20  CD2      -13.0640   18.9740    2.9190 C.ar   78  PHE78      -0.0042
     21  CE1      -12.5260   18.9250    5.6340 C.ar   78  PHE78      -0.0003
     22  CE2      -12.1000   19.8170    3.4530 C.ar   78  PHE78      -0.0003
     23  CZ       -11.8400   19.8000    4.8180 C.ar   78  PHE78      -0.0000
     24  N        -16.6220   19.8880    4.2550 N.am   79  MET79      -0.1979
     25  CA       -17.0150   20.6610    5.4510 C.3    79  MET79       0.1605
     26  C        -18.4710   21.0800    5.4390 C.2    79  MET79       0.2287
     27  O        -18.9200   21.7640    6.3480 O.2    79  MET79      -0.2864
     28  CB       -16.1490   21.9140    5.6140 C.3    79  MET79       0.0413
     29  CG       -14.6560   21.6250    5.7030 C.3    79  MET79       0.0598
     30  SD       -13.7580   22.7500    6.7910 S.3    79  MET79      -0.1393
     31  CE       -14.6400   22.4860    8.3300 C.3    79  MET79       0.0692
     32  N        -20.5490   23.3970    8.2110 N.3    83  PHE83      -0.1241
     33  CA       -21.1010   24.7260    7.9290 C.3    83  PHE83       0.1605
     34  C        -22.6100   24.7200    7.7630 C.2    83  PHE83       0.2264
     35  O        -23.2810   25.6540    8.1890 O.2    83  PHE83      -0.2867
     36  CB       -20.4750   25.3530    6.6720 C.3    83  PHE83       0.0534
     37  CG       -19.0130   25.6630    6.7990 C.ar   83  PHE83      -0.0203
     38  CD1      -18.2150   25.7220    5.6660 C.ar   83  PHE83      -0.0042
     39  CD2      -18.4310   25.8760    8.0430 C.ar   83  PHE83      -0.0042
     40  CE1      -16.8660   26.0050    5.7660 C.ar   83  PHE83      -0.0003
     41  CE2      -17.0900   26.1390    8.1550 C.ar   83  PHE83      -0.0003
     42  CZ       -16.3030   26.2160    7.0130 C.ar   83  PHE83      -0.0000
     43  N        -21.5050   29.5710    3.5510 N.3    88  ALA88      -0.1231
     44  CA       -20.1220   29.7330    3.0930 C.3    88  ALA88       0.1694
     45  C        -19.9320   29.2460    1.6440 C.2    88  ALA88       0.2592
     46  O        -20.7840   29.5120    0.7970 O.2    88  ALA88      -0.2718
     47  CB       -19.1570   29.0490    4.0540 C.3    88  ALA88       0.0304
     48  N        -18.8180   28.5670    1.3510 N.am   89  TYR89      -0.1976
     49  CA       -18.4780   28.1930   -0.0390 C.3    89  TYR89       0.1639
     50  C        -19.5660   27.3510   -0.7150 C.2    89  TYR89       0.2290
     51  O        -19.6500   27.3140   -1.9520 O.2    89  TYR89      -0.2864
     52  CB       -17.1140   27.4890   -0.1440 C.3    89  TYR89       0.0560
     53  CG       -15.9430   28.2690    0.4230 C.ar   89  TYR89      -0.0198
     54  CD1      -14.8420   27.6170    0.9420 C.ar   89  TYR89      -0.0009
     55  CD2      -15.9480   29.6590    0.4450 C.ar   89  TYR89      -0.0009
     56  CE1      -13.7700   28.3180    1.4660 C.ar   89  TYR89       0.0417
     57  CE2      -14.8830   30.3740    0.9650 C.ar   89  TYR89       0.0417
     58  CZ       -13.7890   29.7010    1.4720 C.ar   89  TYR89       0.1957
     59  OH       -12.7260   30.4120    1.9930 O.3    89  TYR89      -0.2866
     60  N        -19.8950   36.1730    4.6960 N.3   100  LEU100     -0.1245
     61  CA       -18.5700   36.4190    5.2360 C.3   100  LEU100      0.1561
     62  C        -18.3680   37.9070    5.5550 C.2   100  LEU100      0.2260
     63  O        -17.7220   38.2400    6.5270 O.2   100  LEU100     -0.2867
     64  CB       -17.4670   35.8540    4.3220 C.3   100  LEU100      0.0270
     65  CG       -17.4790   34.3430    4.0250 C.3   100  LEU100      0.0019
     66  CD1      -16.2300   33.9600    3.2180 C.3   100  LEU100      0.0001
     67  CD2      -17.5690   33.4840    5.2810 C.3   100  LEU100      0.0001
     68  N        -19.8610   38.3820    9.0310 N.3   103  LEU103     -0.1245
     69  CA       -18.9290   37.8980   10.0410 C.3   103  LEU103      0.1561
     70  C        -17.8080   38.9340   10.2630 C.2   103  LEU103      0.2260
     71  O        -17.4740   39.2680   11.3940 O.2   103  LEU103     -0.2867
     72  CB       -18.3590   36.5390    9.6120 C.3   103  LEU103      0.0270
     73  CG       -17.3770   35.8820   10.5760 C.3   103  LEU103      0.0019
     74  CD1      -17.9120   35.9090   12.0270 C.3   103  LEU103      0.0001
     75  CD2      -17.0470   34.4540   10.1450 C.3   103  LEU103      0.0001
     76  N        -15.7950   18.0910   14.4790 N.3   178  GLU178     -0.1245
     77  CA       -14.4700   18.0080   13.8760 C.3   178  GLU178      0.1567
     78  C        -14.0120   16.5550   13.6220 C.2   178  GLU178      0.2260
     79  O        -13.3920   16.2390   12.5990 O.2   178  GLU178     -0.2867
     80  CB       -13.4770   18.7420   14.7790 C.3   178  GLU178      0.0388
     81  CG       -11.9920   18.5730   14.4370 C.3   178  GLU178      0.1160
     82  CD       -11.0920   18.9080   15.6300 C.2   178  GLU178      0.3649
     83  OE1      -11.2640   18.3120   16.7340 O.co2 178  GLU178     -0.2457
     84  OE2      -10.2140   19.7750   15.4710 O.co2 178  GLU178     -0.2457
     85  N        -15.0660   14.8560   10.3720 N.3   181  LEU181     -0.1245
     86  CA       -14.6110   15.3620    9.0730 C.3   181  LEU181      0.1561
     87  C        -13.6770   14.3830    8.4010 C.2   181  LEU181      0.2260
     88  O        -12.8280   13.7710    9.0550 O.2   181  LEU181     -0.2867
     89  CB       -13.8900   16.7030    9.2230 C.3   181  LEU181      0.0270
     90  CG       -14.7580   17.8830    9.6590 C.3   181  LEU181      0.0019
     91  CD1      -13.9040   19.1570    9.8140 C.3   181  LEU181      0.0001
     92  CD2      -15.8770   18.1030    8.6580 C.3   181  LEU181      0.0001
     93  N        -18.1720   28.2360   11.8670 N.3   260  ALA260     -0.1245
     94  CA       -17.0520   28.5940   11.0000 C.3   260  ALA260      0.1562
     95  C        -16.0280   29.4310   11.7590 C.2   260  ALA260      0.2260
     96  O        -14.8140   29.1560   11.7120 O.2   260  ALA260     -0.2867
     97  CB       -17.5410   29.3340    9.7030 C.3   260  ALA260      0.0290
     98  N        -14.2630   27.2310   14.4620 N.3   263  PHE263     -0.1227
     99  CA       -13.3090   26.3280   13.8040 C.3   263  PHE263      0.1736
    100  C        -12.0950   27.0890   13.3000 C.2   263  PHE263      0.2595
    101  O        -10.9770   26.6080   13.4100 O.2   263  PHE263     -0.2718
    102  CB       -13.9500   25.5820   12.6250 C.3   263  PHE263      0.0547
    103  CG       -14.5010   24.2250   12.9890 C.ar  263  PHE263     -0.0202
    104  CD1      -15.7990   24.0850   13.4520 C.ar  263  PHE263     -0.0042
    105  CD2      -13.7270   23.0820   12.8410 C.ar  263  PHE263     -0.0042
    106  CE1      -16.3340   22.8130   13.7690 C.ar  263  PHE263     -0.0003
    107  CE2      -14.2480   21.8200   13.1690 C.ar  263  PHE263     -0.0003
    108  CZ       -15.5710   21.6930   13.6370 C.ar  263  PHE263     -0.0000
    109  N        -12.3170   28.2690   12.7350 N.am  264  ALA264     -0.1980
    110  CA       -11.2360   28.9830   12.0550 C.3   264  ALA264      0.1597
    111  C        -10.1170   29.3310   13.0250 C.2   264  ALA264      0.2287
    112  O         -8.9390   29.1000   12.7490 O.2   264  ALA264     -0.2864
    113  CB       -11.7710   30.2480   11.3970 C.3   264  ALA264      0.0319
    114  N         -7.7240   26.2730   16.7350 N.3   267  HIS267     -0.1226
    115  CA        -6.3690   25.7170   16.7550 C.3   267  HIS267      0.1752
    116  C         -5.3100   26.7010   16.2160 C.2   267  HIS267      0.2596
    117  O         -4.2130   26.8030   16.7540 O.2   267  HIS267     -0.2718
    118  CB        -6.3120   24.3840   15.9930 C.3   267  HIS267      0.0759
    119  CG        -7.2140   23.3300   16.5550 C.ar  267  HIS267      0.0818
    120  ND1       -7.2240   22.9980   17.8930 N.ar  267  HIS267     -0.2268
    121  CD2       -8.1290   22.5270   15.9580 C.ar  267  HIS267      0.1154
    122  CE1       -8.1220   22.0490   18.1010 C.ar  267  HIS267      0.1986
    123  NE2       -8.6880   21.7490   16.9440 N.ar  267  HIS267     -0.2212
    124  N         -5.6440   27.4400   15.1650 N.am  268  THR268     -0.1953
    125  CA        -4.6520   28.3140   14.5420 C.3   268  THR268      0.1897
    126  C         -4.1470   29.3350   15.5550 C.2   268  THR268      0.2313
    127  O         -2.9260   29.5660   15.6710 O.2   268  THR268     -0.2863
    128  CB        -5.2450   29.0690   13.3630 C.3   268  THR268      0.1794
    129  OG1       -6.4570   29.6820   13.7990 O.3   268  THR268     -0.2208
    130  CG2       -5.5480   28.0990   12.1640 C.3   268  THR268      0.0378
    131  N         -1.6780   26.0580    8.6900 N.3   329  LEU329     -0.1231
    132  CA        -2.3420   25.5210    7.5020 C.3   329  LEU329      0.1693
    133  C         -1.2870   25.3450    6.4070 C.2   329  LEU329      0.2592
    134  O         -0.7320   26.3300    5.8870 O.2   329  LEU329     -0.2718
    135  CB        -3.5130   26.4220    7.0320 C.3   329  LEU329      0.0284
    136  CG        -4.6170   26.6810    8.0870 C.3   329  LEU329      0.0019
    137  CD1       -5.6440   27.7300    7.6360 C.3   329  LEU329      0.0001
    138  CD2       -5.3530   25.3750    8.4640 C.3   329  LEU329      0.0001
    139  N         -0.9940   24.0810    6.0980 N.am  330  LEU330     -0.1966
    140  CA         0.1430   23.7170    5.2610 C.3   330  LEU330      0.1728
    141  C         -0.1040   23.9780    3.7840 C.2   330  LEU330      0.2616
    142  O          0.8380   24.2450    3.0440 O.2   330  LEU330     -0.2715
    143  CB         0.4580   22.2250    5.4000 C.3   330  LEU330      0.0311
    144  CG         0.9400   21.6680    6.7320 C.3   330  LEU330      0.0022
    145  CD1        1.5610   20.2920    6.4890 C.3   330  LEU330      0.0001
    146  CD2        1.9320   22.6260    7.4050 C.3   330  LEU330      0.0001
    147  N         -1.3600   23.8520    3.3580 N.am  331  MET331     -0.1963
    148  CA        -1.6840   23.7210    1.9430 C.3   331  MET331      0.1736
    149  C         -3.0320   24.3640    1.6470 C.2   331  MET331      0.2616
    150  O         -4.0420   23.9510    2.2100 O.2   331  MET331     -0.2715
    151  CB        -1.8020   22.2290    1.5820 C.3   331  MET331      0.0427
    152  CG        -0.4990   21.5670    1.2410 C.3   331  MET331      0.0599
    153  SD        -0.0360   21.9140   -0.4700 S.3   331  MET331     -0.1393
    154  CE        -0.8490   20.5470   -1.2840 C.3   331  MET331      0.0692
    155  N         -3.0700   25.3180    0.7250 N.am  332  LEU332     -0.1963
    156  CA        -4.3490   25.8530    0.2960 C.3   332  LEU332      0.1728
    157  C         -4.6620   25.3470   -1.0880 C.2   332  LEU332      0.2616
    158  O         -3.7440   25.1650   -1.9010 O.2   332  LEU332     -0.2715
    159  CB        -4.3300   27.3750    0.3080 C.3   332  LEU332      0.0311
    160  CG        -3.6970   27.9430    1.5760 C.3   332  LEU332      0.0022
    161  CD1       -3.5170   29.4420    1.4690 C.3   332  LEU332      0.0001
    162  CD2       -4.5790   27.5660    2.7750 C.3   332  LEU332      0.0001
    163  N         -5.9440   25.1050   -1.3660 N.am  333  MET333     -0.1977
    164  CA        -6.3040   24.4820   -2.6400 C.3   333  MET333      0.1605
    165  C         -7.4870   25.1650   -3.3220 C.2   333  MET333      0.2287
    166  O         -8.3140   25.7890   -2.6710 O.2   333  MET333     -0.2864
    167  CB        -6.5950   23.0000   -2.4290 C.3   333  MET333      0.0413
    168  CG        -5.3870   22.1970   -1.9440 C.3   333  MET333      0.0598
    169  SD        -5.8110   20.4560   -1.7570 S.3   333  MET333     -0.1393
    170  CE        -6.1250   20.3690    0.0060 C.3   333  MET333      0.0692
    171  N         -7.6720   35.7690    4.8850 N.3   395  CYS395     -0.1235
    172  CA        -8.2660   35.5390    6.1840 C.3   395  CYS395      0.1677
    173  C         -8.9830   36.7860    6.6980 C.2   395  CYS395      0.2270
    174  O         -8.3940   37.8420    6.7890 O.2   395  CYS395     -0.2867
    175  CB        -7.1870   35.1310    7.1780 C.3   395  CYS395      0.0956
    176  SG        -7.9050   34.7050    8.7680 S.3   395  CYS395     -0.0801
    177  N         -4.7320   18.0080   11.0720 N.3   433  MET433     -0.1230
    178  CA        -5.2720   18.9300   10.0540 C.3   433  MET433      0.1702
    179  C         -4.7870   20.3760   10.2190 C.2   433  MET433      0.2592
    180  O         -4.4760   21.0800    9.2340 O.2   433  MET433     -0.2718
    181  CB        -6.8100   18.9140   10.0750 C.3   433  MET433      0.0401
    182  CG        -7.4440   17.5310    9.8310 C.3   433  MET433      0.0596
    183  SD        -9.2660   17.6420    9.7260 S.3   433  MET433     -0.1393
    184  CE        -9.4520   19.0240    8.6080 C.3   433  MET433      0.0692
    185  N         -4.7590   20.8400   11.4590 N.am  434  VAL434     -0.1980
    186  CA        -4.0810   22.0860   11.7600 C.3   434  VAL434      0.1595
    187  C         -2.7950   21.7460   12.4840 C.2   434  VAL434      0.2287
    188  O         -2.8180   21.0540   13.4990 O.2   434  VAL434     -0.2864
    189  CB        -4.9490   23.0330   12.6180 C.3   434  VAL434      0.0276
    190  CG1       -4.2500   24.3570   12.8010 C.3   434  VAL434      0.0022
    191  CG2       -6.3190   23.2770   11.9550 C.3   434  VAL434      0.0022
@<TRIPOS>BOND
     1   165   166    2
     2   165   164    1
     3   164   167    1
     4   164   163    1
     5   167   168    1
     6    51    50    2
     7   168   169    1
     8   158   157    2
     9   169   170    1
    10   163   157   am
    11   154   153    1
    12   157   156    1
    13    50    49    1
    14   153   152    1
    15     1     2    1
    16    52    49    1
    17    52    53    1
    18    49    48    1
    19   156   159    1
    20   156   155    1
    21   159   160    1
    22    53    55   ar
    23    53    54   ar
    24    55    57   ar
    25   155   149   am
    26     7     9   ar
    27     7     6   ar
    28    46    45    2
    29    54    56   ar
    30    57    58   ar
    31     2     3    1
    32     2     5    1
    33     9    11   ar
    34     3     4    2
    35   152   151    1
    36    48    45   am
    37     5     6    1
    38    56    58   ar
    39   161   160    1
    40    58    59    1
    41   160   162    1
    42   151   148    1
    43    45    44    1
    44   149   148    1
    45   149   150    2
    46     6     8   ar
    47    13    14    1
    48   148   147    1
    49    11    12    1
    50    11    10   ar
    51    20    22   ar
    52    20    18   ar
    53    14    17    1
    54    14    15    1
    55     8    10   ar
    56   142   141    2
    57    44    43    1
    58    44    47    1
    59    17    18    1
    60    66    65    1
    61   147   141   am
    62    22    23   ar
    63    18    19   ar
    64   141   140    1
    65    65    64    1
    66    65    67    1
    67    15    24   am
    68    15    16    2
    69    24    25    1
    70    64    61    1
    71    60    61    1
    72    23    21   ar
    73   171   172    1
    74    19    21   ar
    75    61    62    1
    76   140   143    1
    77   140   139    1
    78   143   144    1
    79    26    25    1
    80    26    27    2
    81    25    28    1
    82    62    63    2
    83    28    29    1
    84    38    40   ar
    85    38    37   ar
    86    29    30    1
    87    40    42   ar
    88   134   133    2
    89   139   133   am
    90   172   173    1
    91   172   175    1
    92   133   132    1
    93   145   144    1
    94    36    37    1
    95    36    33    1
    96   173   174    2
    97   144   146    1
    98    30    31    1
    99    37    39   ar
   100    42    41   ar
   101   135   132    1
   102   135   136    1
   103   175   176    1
   104   132   131    1
   105   137   136    1
   106    34    33    1
   107    34    35    2
   108    33    32    1
   109    39    41   ar
   110   136   138    1
   111    87    88    2
   112    87    86    1
   113   184   183    1
   114    92    90    1
   115    68    69    1
   116    86    89    1
   117    86    85    1
   118    89    90    1
   119   180   179    2
   120    72    69    1
   121    72    73    1
   122    90    91    1
   123    97    94    1
   124   183   182    1
   125   182   181    1
   126    69    70    1
   127   178   181    1
   128   178   179    1
   129   178   177    1
   130    75    73    1
   131   179   185   am
   132    70    71    2
   133    73    74    1
   134    94    95    1
   135    94    93    1
   136   113   110    1
   137   185   186    1
   138    96    95    2
   139   186   187    1
   140   186   189    1
   141   191   189    1
   142   110   109    1
   143   110   111    1
   144   130   128    1
   145   187   188    2
   146    79    78    2
   147   189   190    1
   148   102   103    1
   149   102    99    1
   150   109   100   am
   151   112   111    2
   152   105   103   ar
   153   105   107   ar
   154   103   104   ar
   155   107   108   ar
   156   100   101    2
   157   100    99    1
   158   128   129    1
   159   128   125    1
   160   104   106   ar
   161    78    77    1
   162   108   106   ar
   163    99    98    1
   164    77    76    1
   165    77    80    1
   166    81    80    1
   167    81    82    1
   168   125   124    1
   169   125   126    1
   170   124   116   am
   171    84    82   ar
   172   126   127    2
   173    82    83   ar
   174   121   119   ar
   175   121   123   ar
   176   118   119    1
   177   118   115    1
   178   116   117    2
   179   116   115    1
   180   119   120   ar
   181   114   115    1
   182   123   122   ar
   183   120   122   ar
