@<TRIPOS>MOLECULE
tmp/3tinA00.pdb
 157 149 0 0 0
SMALL
GASTEIGER

@<TRIPOS>ATOM
      1  N         23.7350    7.1110    6.8780 N.3    77  LYS77      -0.1245
      2  CA        22.6400    6.1640    7.0110 C.3    77  LYS77       0.1561
      3  C         21.9510    6.0830    5.6550 C.2    77  LYS77       0.2260
      4  O         21.9210    5.0290    5.0140 O.2    77  LYS77      -0.2867
      5  CB        21.6570    6.6440    8.0740 C.3    77  LYS77       0.0271
      6  CG        22.3000    7.0270    9.3990 C.3    77  LYS77       0.0035
      7  CD        23.0370    5.8650   10.0400 C.3    77  LYS77       0.0206
      8  CE        23.5800    6.2640   11.4010 C.3    77  LYS77       0.1093
      9  NZ        22.4660    6.7230   12.2680 N.3    77  LYS77      -0.1314
     10  N         18.9830   -4.5790    7.6430 N.3    98  PRO98      -0.2116
     11  CA        17.5720   -4.2340    7.8320 C.3    98  PRO98       0.1372
     12  C         16.9670   -3.4720    6.6650 C.2    98  PRO98       0.2244
     13  O         17.5000   -2.4570    6.2230 O.2    98  PRO98      -0.2868
     14  CB        17.5940   -3.4110    9.1070 C.3    98  PRO98       0.0268
     15  CG        18.6540   -4.0810    9.8910 C.3    98  PRO98       0.0207
     16  CD        19.7490   -4.3170    8.8760 C.3    98  PRO98       0.0892
     17  N         11.6720    1.8350   12.9090 N.3   127  ILE127     -0.1245
     18  CA        12.3620    2.9080   13.6250 C.3   127  ILE127      0.1561
     19  C         12.8230    3.9820   12.6410 C.2   127  ILE127      0.2260
     20  O         13.3650    3.6720   11.5800 O.2   127  ILE127     -0.2867
     21  CB        13.5880    2.3990   14.4240 C.3   127  ILE127      0.0252
     22  CG1       14.2060    3.5700   15.1930 C.3   127  ILE127      0.0019
     23  CG2       14.6010    1.7690   13.4930 C.3   127  ILE127      0.0019
     24  CD1       15.2780    3.1720   16.1670 C.3   127  ILE127      0.0001
     25  N         15.2290    7.0580   11.6380 N.3   129  LYS129     -0.1231
     26  CA        16.5790    7.5410   11.9380 C.3   129  LYS129      0.1693
     27  C         17.0530    8.7270   11.0630 C.2   129  LYS129      0.2592
     28  O         16.7680    8.7770    9.8650 O.2   129  LYS129     -0.2718
     29  CB        17.5640    6.3650   11.8360 C.3   129  LYS129      0.0285
     30  CG        17.4720    5.3540   12.9800 C.3   129  LYS129      0.0035
     31  CD        18.2590    4.0870   12.6640 C.3   129  LYS129      0.0206
     32  CE        18.5950    3.2820   13.9180 C.3   129  LYS129      0.1093
     33  NZ        19.7120    3.8810   14.7360 N.3   129  LYS129     -0.1314
     34  N         17.7810    9.6650   11.6820 N.am  130  SER130     -0.1952
     35  CA        18.3010   10.8740   11.0190 C.3   130  SER130      0.1924
     36  C         19.6840   10.7280   10.3610 C.2   130  SER130      0.2314
     37  O         20.5780   10.0930   10.9110 O.2   130  SER130     -0.2863
     38  CB        18.3360   12.0330   12.0290 C.3   130  SER130      0.2116
     39  OG        18.8360   11.6100   13.2910 O.3   130  SER130     -0.2180
     40  N         22.0930   14.1000   11.7470 N.3   133  GLY133     -0.1225
     41  CA        21.5540   14.6260   12.9890 C.3   133  GLY133      0.1811
     42  C         21.8220   13.7120   14.1680 C.2   133  GLY133      0.2280
     43  O         22.6490   14.0190   15.0280 O.2   133  GLY133     -0.2866
     44  N         17.4400   12.6570   16.9110 N.3   134  GLY134     -0.1210
     45  CA        16.0550   12.2600   17.1000 C.3   134  GLY134      0.1956
     46  C         15.7190   10.9500   16.4090 C.2   134  GLY134      0.2611
     47  O         16.2090   10.6810   15.3080 O.2   134  GLY134     -0.2717
     48  N         14.8850   10.1370   17.0590 N.am  135  ILE135     -0.1979
     49  CA        14.4610    8.8330   16.5310 C.3   135  ILE135      0.1595
     50  C         13.0750    8.4490   17.0400 C.2   135  ILE135      0.2287
     51  O         12.5850    9.0200   18.0090 O.2   135  ILE135     -0.2864
     52  CB        15.4340    7.6940   16.9430 C.3   135  ILE135      0.0276
     53  CG1       15.7330    7.7860   18.4440 C.3   135  ILE135      0.0022
     54  CG2       16.7020    7.7480   16.0980 C.3   135  ILE135      0.0022
     55  CD1       16.6940    6.7350   18.9600 C.3   135  ILE135      0.0001
     56  N         13.6710    2.0460    9.3500 N.3   158  GLN158     -0.1231
     57  CA        14.3250    0.7520    9.3110 C.3   158  GLN158      0.1698
     58  C         13.6720   -0.2840   10.2280 C.2   158  GLN158      0.2592
     59  O         13.1580    0.0430   11.2990 O.2   158  GLN158     -0.2718
     60  CB        15.7870    0.9360    9.6860 C.3   158  GLN158      0.0381
     61  CG        16.6370   -0.2670    9.4570 C.3   158  GLN158      0.0905
     62  CD        18.0540   -0.0360    9.9110 C.2   158  GLN158      0.2608
     63  OE1       18.3200    0.1180   11.1060 O.2   158  GLN158     -0.2717
     64  NE2       18.9770    0.0040    8.9600 N.am  158  GLN158     -0.0878
     65  N         13.6990   -1.5370    9.7920 N.am  159  LYS159     -0.1966
     66  CA        13.1320   -2.6450   10.5570 C.3   159  LYS159      0.1728
     67  C         13.7650   -2.7240   11.9410 C.2   159  LYS159      0.2616
     68  O         14.9820   -2.8780   12.0610 O.2   159  LYS159     -0.2715
     69  CB        13.3940   -3.9640    9.8280 C.3   159  LYS159      0.0311
     70  CG        12.6900   -5.1610   10.4250 C.3   159  LYS159      0.0038
     71  CD        11.2390   -5.1970    9.9940 C.3   159  LYS159      0.0206
     72  CE        10.4500   -6.1410   10.8580 C.3   159  LYS159      0.1093
     73  NZ        10.3860   -5.6150   12.2470 N.3   159  LYS159     -0.1314
     74  N         12.9430   -2.6290   12.9810 N.am  160  TYR160     -0.1960
     75  CA        13.4350   -2.7120   14.3520 C.3   160  TYR160      0.1771
     76  C         13.6110   -4.1840   14.7530 C.2   160  TYR160      0.2619
     77  O         12.7810   -5.0210   14.4100 O.2   160  TYR160     -0.2715
     78  CB        12.4480   -2.0290   15.3190 C.3   160  TYR160      0.0574
     79  CG        12.8870   -2.0810   16.7740 C.ar  160  TYR160     -0.0198
     80  CD1       13.6760   -1.0720   17.3310 C.ar  160  TYR160     -0.0009
     81  CD2       12.5890   -3.1940   17.5690 C.ar  160  TYR160     -0.0009
     82  CE1       14.1630   -1.1780   18.6400 C.ar  160  TYR160      0.0417
     83  CE2       13.0750   -3.3110   18.8760 C.ar  160  TYR160      0.0417
     84  CZ        13.8600   -2.3050   19.4030 C.ar  160  TYR160      0.1957
     85  OH        14.3460   -2.4510   20.6830 O.3   160  TYR160     -0.2866
     86  N         14.6870   -4.4980   15.4780 N.am  161  LEU161     -0.1977
     87  CA        14.9450   -5.8730   15.9340 C.3   161  LEU161      0.1596
     88  C         14.1220   -6.1840   17.1890 C.2   161  LEU161      0.2287
     89  O         14.5020   -5.8270   18.3120 O.2   161  LEU161     -0.2864
     90  CB        16.4420   -6.0870   16.2270 C.3   161  LEU161      0.0297
     91  CG        16.8640   -7.5030   16.6400 C.3   161  LEU161      0.0022
     92  CD1       16.5430   -8.4960   15.5290 C.3   161  LEU161      0.0001
     93  CD2       18.3440   -7.5250   16.9460 C.3   161  LEU161      0.0001
     94  N         20.2160   -5.2200   26.7480 N.3   173  LYS173     -0.1231
     95  CA        20.4790   -5.2330   25.3050 C.3   173  LYS173      0.1693
     96  C         21.9130   -4.7650   25.0180 C.2   173  LYS173      0.2592
     97  O         22.5520   -4.1460   25.8770 O.2   173  LYS173     -0.2718
     98  CB        19.4940   -4.2900   24.6090 C.3   173  LYS173      0.0285
     99  CG        18.8960   -4.7930   23.3170 C.3   173  LYS173      0.0035
    100  CD        17.9710   -3.7380   22.7360 C.3   173  LYS173      0.0206
    101  CE        16.8920   -3.2980   23.7330 C.3   173  LYS173      0.1093
    102  NZ        15.8390   -4.3230   24.0200 N.3   173  LYS173     -0.1314
    103  N         22.4090   -5.0380   23.8110 N.am  174  PHE174     -0.1962
    104  CA        23.7670   -4.6410   23.4510 C.3   174  PHE174      0.1771
    105  C         24.0430   -4.6360   21.9450 C.2   174  PHE174      0.2619
    106  O         23.3220   -5.2740   21.1620 O.2   174  PHE174     -0.2715
    107  CB        24.7660   -5.5880   24.1240 C.3   174  PHE174      0.0574
    108  CG        24.8240   -6.9560   23.4920 C.ar  174  PHE174     -0.0200
    109  CD1       25.6320   -7.1960   22.3840 C.ar  174  PHE174     -0.0042
    110  CD2       24.0380   -7.9930   23.9730 C.ar  174  PHE174     -0.0042
    111  CE1       25.6520   -8.4520   21.7640 C.ar  174  PHE174     -0.0003
    112  CE2       24.0510   -9.2510   23.3630 C.ar  174  PHE174     -0.0003
    113  CZ        24.8580   -9.4800   22.2570 C.ar  174  PHE174     -0.0000
    114  N         25.1060   -3.9150   21.5670 N.am  175  ASP175     -0.1971
    115  CA        25.5940   -3.8220   20.1830 C.3   175  ASP175      0.1709
    116  C         27.1350   -3.8500   20.1870 C.2   175  ASP175      0.2293
    117  O         27.7760   -3.2790   21.0720 O.2   175  ASP175     -0.2864
    118  CB        25.0700   -2.5520   19.4740 C.3   175  ASP175      0.1436
    119  CG        25.5720   -1.2550   20.1020 C.2   175  ASP175      0.3671
    120  OD1       26.8040   -1.0470   20.1810 O.co2 175  ASP175     -0.2456
    121  OD2       24.7270   -0.4260   20.5040 O.co2 175  ASP175     -0.2456
    122  N         28.3000   -2.2260   24.0690 N.3   197  ARG197     -0.1245
    123  CA        27.6950   -1.1160   24.7700 C.3   197  ARG197      0.1563
    124  C         26.3360   -1.6600   25.1880 C.2   197  ARG197      0.2260
    125  O         25.5840   -2.1600   24.3530 O.2   197  ARG197     -0.2867
    126  CB        27.5510    0.0860   23.8360 C.3   197  ARG197      0.0307
    127  CG        28.9240    0.5200   23.3290 C.3   197  ARG197      0.0489
    128  CD        28.7230    1.5550   22.2710 C.3   197  ARG197      0.2205
    129  NE        30.0370    2.0300   21.8810 N.pl3 197  ARG197     -0.0865
    130  CZ        30.2590    2.7150   20.7670 C.cat 197  ARG197      0.5346
    131  NH1       29.2300    3.0010   19.9340 N.pl3 197  ARG197      0.1354
    132  NH2       31.4850    3.1070   20.4650 N.pl3 197  ARG197      0.1354
    133  N         24.3440   -5.8210   15.6710 N.3   263  MET263     -0.1245
    134  CA        23.3630   -6.3800   16.6000 C.3   263  MET263      0.1570
    135  C         23.1200   -7.8640   16.3110 C.2   263  MET263      0.2261
    136  O         23.1150   -8.2920   15.1620 O.2   263  MET263     -0.2867
    137  CB        22.0450   -5.6240   16.5380 C.3   263  MET263      0.0387
    138  CG        22.0600   -4.3690   17.3470 C.3   263  MET263      0.0595
    139  SD        20.4920   -3.5330   17.3870 S.3   263  MET263     -0.1393
    140  CE        19.6870   -4.3710   18.7990 C.3   263  MET263      0.0692
    141  N         24.2570   -2.1330   11.8180 N.3   273  ILE273     -0.1231
    142  CA        23.4970   -0.9450   12.2180 C.3   273  ILE273      0.1692
    143  C         24.0040    0.2780   11.4600 C.2   273  ILE273      0.2591
    144  O         23.3110    0.8270   10.5990 O.2   273  ILE273     -0.2718
    145  CB        23.6650   -0.6320   13.7280 C.3   273  ILE273      0.0266
    146  CG1       23.1410   -1.7810   14.5850 C.3   273  ILE273      0.0019
    147  CG2       22.9380    0.6620   14.0700 C.3   273  ILE273      0.0020
    148  CD1       23.4210   -1.5810   16.0520 C.3   273  ILE273      0.0001
    149  N         25.2190    0.6960   11.8060 N.am  274  GLU274     -0.1979
    150  CA        25.8560    1.8470   11.1940 C.3   274  GLU274      0.1602
    151  C         27.3670    1.6660   11.0790 C.2   274  GLU274      0.2287
    152  O         27.9390    0.7520   11.6590 O.2   274  GLU274     -0.2864
    153  CB        25.5470    3.1180   12.0060 C.3   274  GLU274      0.0415
    154  CG        25.6690    2.9600   13.5200 C.3   274  GLU274      0.1163
    155  CD        25.6750    4.2930   14.2700 C.2   274  GLU274      0.3649
    156  OE1       26.6370    5.0700   14.0790 O.co2 274  GLU274     -0.2457
    157  OE2       24.7280    4.5630   15.0510 O.co2 274  GLU274     -0.2457
@<TRIPOS>BOND
     1     4     3    2
     2     3     2    1
     3    13    12    2
     4    12    11    1
     5     1     2    1
     6     2     5    1
     7    10    11    1
     8    10    16    1
     9    11    14    1
    10     5     6    1
    11    16    15    1
    12    64    62   am
    13    14    15    1
    14    57    56    1
    15    57    60    1
    16    57    58    1
    17     6     7    1
    18    61    60    1
    19    61    62    1
    20    65    58   am
    21    65    66    1
    22    69    70    1
    23    69    66    1
    24    28    27    2
    25    62    63    2
    26    71    70    1
    27    71    72    1
    28     7     8    1
    29    58    59    2
    30    36    37    2
    31    36    35    1
    32    66    67    1
    33   144   143    2
    34    72    73    1
    35    35    34    1
    36    35    38    1
    37    27    34   am
    38    27    26    1
    39   151   150    1
    40   151   152    2
    41   150   149    1
    42   150   153    1
    43     8     9    1
    44   143   149   am
    45   143   142    1
    46    20    19    2
    47    25    26    1
    48    40    41    1
    49   141   142    1
    50    29    26    1
    51    29    30    1
    52    67    68    2
    53    67    74   am
    54   153   154    1
    55    38    39    1
    56   142   145    1
    57    19    18    1
    58    31    30    1
    59    31    32    1
    60    17    18    1
    61    74    75    1
    62    41    42    1
    63    23    21    1
    64   154   155    1
    65    18    21    1
    66   145   147    1
    67   145   146    1
    68    32    33    1
    69   156   155   ar
    70    42    43    2
    71   155   157   ar
    72    75    76    1
    73    75    78    1
    74    77    76    2
    75    21    22    1
    76   146   148    1
    77    76    86   am
    78   136   135    2
    79    22    24    1
    80    47    46    2
    81    78    79    1
    82    86    87    1
    83    92    91    1
    84   133   134    1
    85    87    90    1
    86    87    88    1
    87    54    52    1
    88    90    91    1
    89   135   134    1
    90    46    48   am
    91    46    45    1
    92    49    52    1
    93    49    50    1
    94    49    48    1
    95   137   134    1
    96   137   138    1
    97    91    93    1
    98    79    80   ar
    99    79    81   ar
   100    44    45    1
   101    52    53    1
   102    50    51    2
   103    88    89    2
   104    80    82   ar
   105   138   139    1
   106   139   140    1
   107    81    83   ar
   108    53    55    1
   109    82    84   ar
   110    83    84   ar
   111    84    85    1
   112   118   119    1
   113   118   115    1
   114   131   130    1
   115   119   120   ar
   116   119   121   ar
   117   115   116    1
   118   115   114    1
   119   116   117    2
   120   132   130    1
   121   130   129    2
   122   106   105    2
   123   114   105   am
   124   111   113   ar
   125   111   109   ar
   126   129   128    1
   127   105   104    1
   128   113   112   ar
   129   128   127    1
   130   109   108   ar
   131   100    99    1
   132   100   101    1
   133    99    98    1
   134   127   126    1
   135   112   110   ar
   136   104   103    1
   137   104   107    1
   138   108   110   ar
   139   108   107    1
   140   101   102    1
   141   103    96   am
   142   126   123    1
   143   122   123    1
   144   125   124    2
   145    98    95    1
   146   123   124    1
   147    96    95    1
   148    96    97    2
   149    95    94    1
