@<TRIPOS>MOLECULE
tmp/3titA00.pdb
 189 187 0 0 0
SMALL
GASTEIGER

@<TRIPOS>ATOM
      1  N         21.3040  -11.6600   27.0600 N.3    25  THR25      -0.1203
      2  CA        20.2200  -10.8050   26.5230 C.3    25  THR25       0.1994
      3  C         18.9310  -11.5970   26.4690 C.2    25  THR25       0.2619
      4  O         18.8810  -12.6500   25.8290 O.2    25  THR25      -0.2717
      5  CB        20.5290  -10.3230   25.0990 C.3    25  THR25       0.1784
      6  OG1       21.6970   -9.5010   25.1150 O.3    25  THR25      -0.2211
      7  CG2       19.3410   -9.4980   24.4950 C.3    25  THR25       0.0376
      8  N         17.8890  -11.0870   27.1240 N.am   26  THR26      -0.1938
      9  CA        16.5600  -11.6790   27.0470 C.3    26  THR26       0.2028
     10  C         15.5460  -10.6740   26.4540 C.2    26  THR26       0.2642
     11  O         15.5440   -9.4900   26.8170 O.2    26  THR26      -0.2714
     12  CB        16.1480  -12.2130   28.4390 C.3    26  THR26       0.1808
     13  OG1       16.9890  -13.3400   28.7580 O.3    26  THR26      -0.2208
     14  CG2       14.7420  -12.6810   28.4650 C.3    26  THR26       0.0379
     15  N         14.7070  -11.1480   25.5350 N.am   27  LEU27      -0.1977
     16  CA        13.5620  -10.3660   25.0270 C.3    27  LEU27       0.1596
     17  C         12.4020  -11.2840   24.6430 C.2    27  LEU27       0.2287
     18  O         12.4660  -12.4970   24.8700 O.2    27  LEU27      -0.2864
     19  CB        13.9980   -9.4600   23.8680 C.3    27  LEU27       0.0297
     20  CG        14.8940  -10.0200   22.7460 C.3    27  LEU27       0.0022
     21  CD1       14.2240  -11.1700   21.9770 C.3    27  LEU27       0.0001
     22  CD2       15.2520   -8.9060   21.8000 C.3    27  LEU27       0.0001
     23  N         18.5420   -8.1930   17.0160 N.3    41  HIS41      -0.1241
     24  CA        19.4680   -7.6220   18.0030 C.3    41  HIS41       0.1621
     25  C         19.5670   -8.3840   19.3210 C.2    41  HIS41       0.2264
     26  O         20.3930   -8.0490   20.1600 O.2    41  HIS41      -0.2867
     27  CB        19.2750   -6.1030   18.2310 C.3    41  HIS41       0.0745
     28  CG        18.0590   -5.7190   19.0370 C.ar   41  HIS41       0.0817
     29  ND1       17.1190   -4.8140   18.5680 N.ar   41  HIS41      -0.2268
     30  CD2       17.6850   -6.0180   20.3040 C.ar   41  HIS41       0.1154
     31  CE1       16.1950   -4.6140   19.4940 C.ar   41  HIS41       0.1986
     32  NE2       16.5050   -5.3430   20.5520 N.ar   41  HIS41      -0.2212
     33  N         26.1470   -3.1530   19.4010 N.3    49  MET49      -0.1245
     34  CA        25.1680   -2.2050   18.8290 C.3    49  MET49       0.1570
     35  C         25.8090   -0.9810   18.1520 C.2    49  MET49       0.2261
     36  O         25.1860   -0.3230   17.3120 O.2    49  MET49      -0.2867
     37  CB        24.1390   -1.7650   19.8830 C.3    49  MET49       0.0387
     38  CG        23.1550   -2.8510   20.3240 C.3    49  MET49       0.0595
     39  SD        22.3220   -3.8110   19.0060 S.3    49  MET49      -0.1393
     40  CE        21.0200   -2.7200   18.4570 C.3    49  MET49       0.0692
     41  N          6.8090    1.9140   26.6140 N.3   140  PHE140     -0.1227
     42  CA         7.7240    0.7630   26.5990 C.3   140  PHE140      0.1736
     43  C          8.9100    1.0240   27.5060 C.2   140  PHE140      0.2595
     44  O          9.4960    2.1240   27.4610 O.2   140  PHE140     -0.2718
     45  CB         8.3040    0.5330   25.2050 C.3   140  PHE140      0.0547
     46  CG         7.3270   -0.0280   24.1810 C.ar  140  PHE140     -0.0202
     47  CD1        6.9980    0.7160   23.0500 C.ar  140  PHE140     -0.0042
     48  CD2        6.7720   -1.2980   24.3240 C.ar  140  PHE140     -0.0042
     49  CE1        6.1350    0.1940   22.0460 C.ar  140  PHE140     -0.0003
     50  CE2        5.8930   -1.8330   23.3190 C.ar  140  PHE140     -0.0003
     51  CZ         5.5880   -1.0700   22.1760 C.ar  140  PHE140     -0.0000
     52  N          9.3040    0.0040   28.2650 N.am  141  LEU141     -0.1966
     53  CA        10.5170    0.0830   29.0960 C.3   141  LEU141      0.1728
     54  C         11.5240   -0.9600   28.6200 C.2   141  LEU141      0.2616
     55  O         11.2320   -1.7080   27.6850 O.2   141  LEU141     -0.2715
     56  CB        10.1750   -0.1570   30.5780 C.3   141  LEU141      0.0311
     57  CG         9.0560    0.7100   31.1900 C.3   141  LEU141      0.0022
     58  CD1        8.7680    0.2650   32.6110 C.3   141  LEU141      0.0001
     59  CD2        9.4430    2.2010   31.1660 C.3   141  LEU141      0.0001
     60  N         12.6950   -1.0280   29.2680 N.am  142  ASN142     -0.1958
     61  CA        13.6920   -2.0920   29.0060 C.3   142  ASN142      0.1819
     62  C         13.0460   -3.4570   29.1230 C.2   142  ASN142      0.2622
     63  O         12.2980   -3.7130   30.0710 O.2   142  ASN142     -0.2715
     64  CB        14.8610   -2.0210   29.9950 C.3   142  ASN142      0.1195
     65  CG        15.8490   -0.9000   29.6790 C.2   142  ASN142      0.2630
     66  OD1       15.6670   -0.1250   28.7470 O.2   142  ASN142     -0.2716
     67  ND2       16.9100   -0.8180   30.4790 N.am  142  ASN142     -0.0877
     68  N         13.3380   -4.3430   28.1730 N.am  143  GLY143     -0.1940
     69  CA        12.7600   -5.7030   28.1730 C.3   143  GLY143      0.2014
     70  C         11.5520   -5.8670   27.2690 C.2   143  GLY143      0.2640
     71  O         11.0390   -6.9810   27.0860 O.2   143  GLY143     -0.2714
     72  N         11.0790   -4.7580   26.7160 N.am  144  SER144     -0.1935
     73  CA         9.8770   -4.7940   25.8860 C.3   144  SER144      0.2055
     74  C         10.1150   -5.1670   24.4070 C.2   144  SER144      0.2643
     75  O          9.1470   -5.3370   23.6570 O.2   144  SER144     -0.2714
     76  CB         9.1230   -3.4530   25.9740 C.3   144  SER144      0.2130
     77  OG         9.9360   -2.3750   25.5340 O.3   144  SER144     -0.2179
     78  N         11.3760   -5.2920   23.9700 N.am  145  CYS145     -0.1967
     79  CA        11.5990   -5.6010   22.5520 C.3   145  CYS145      0.1712
     80  C         10.9660   -6.9320   22.2050 C.2   145  CYS145      0.2296
     81  O         10.8920   -7.8360   23.0490 O.2   145  CYS145     -0.2864
     82  CB        13.0630   -5.5030   22.1470 C.3   145  CYS145      0.0983
     83  SG        13.6470   -3.7930   22.2470 S.3   145  CYS145     -0.0798
     84  N          8.2940   -4.5980   18.1250 N.3   163  HIS163     -0.1226
     85  CA         8.9980   -3.4580   18.7170 C.3   163  HIS163      0.1752
     86  C         10.5150   -3.6480   18.7820 C.2   163  HIS163      0.2596
     87  O         10.9730   -4.7020   19.1810 O.2   163  HIS163     -0.2718
     88  CB         8.4470   -3.1610   20.1270 C.3   163  HIS163      0.0759
     89  CG         9.0910   -1.9660   20.7530 C.ar  163  HIS163      0.0818
     90  ND1        9.1460   -0.7480   20.1160 N.ar  163  HIS163     -0.2268
     91  CD2        9.7470   -1.8060   21.9240 C.ar  163  HIS163      0.1154
     92  CE1        9.8210    0.1120   20.8570 C.ar  163  HIS163      0.1986
     93  NE2       10.1770   -0.4980   21.9750 N.ar  163  HIS163     -0.2212
     94  N         11.2880   -2.6160   18.4240 N.am  164  HIS164     -0.1961
     95  CA        12.7660   -2.7280   18.4030 C.3   164  HIS164      0.1787
     96  C         13.4980   -1.6560   19.2110 C.2   164  HIS164      0.2620
     97  O         14.5300   -1.9510   19.8080 O.2   164  HIS164     -0.2715
     98  CB        13.3430   -2.6930   16.9720 C.3   164  HIS164      0.0785
     99  CG        13.1230   -3.9500   16.1840 C.ar  164  HIS164      0.0821
    100  ND1       14.1630   -4.7230   15.7110 N.ar  164  HIS164     -0.2267
    101  CD2       11.9860   -4.5200   15.7110 C.ar  164  HIS164      0.1154
    102  CE1       13.6770   -5.7350   15.0120 C.ar  164  HIS164      0.1986
    103  NE2       12.3560   -5.6330   14.9930 N.ar  164  HIS164     -0.2212
    104  N         13.0070   -0.4240   19.2160 N.am  165  MET165     -0.1963
    105  CA        13.7750    0.6420   19.8580 C.3   165  MET165      0.1736
    106  C         13.0110    1.8960   20.2050 C.2   165  MET165      0.2616
    107  O         11.9120    2.1450   19.6900 O.2   165  MET165     -0.2715
    108  CB        14.9160    1.0510   18.9330 C.3   165  MET165      0.0427
    109  CG        14.4080    1.6080   17.6220 C.3   165  MET165      0.0599
    110  SD        15.6660    1.6620   16.3340 S.3   165  MET165     -0.1393
    111  CE        16.0950    3.3880   16.3800 C.3   165  MET165      0.0692
    112  N         13.6710    2.7320   21.0090 N.am  166  GLU166     -0.1963
    113  CA        13.1560    4.0190   21.3820 C.3   166  GLU166      0.1733
    114  C         14.0550    5.1380   20.7870 C.2   166  GLU166      0.2616
    115  O         15.2650    4.9930   20.7470 O.2   166  GLU166     -0.2715
    116  CB        13.0460    4.1340   22.9130 C.3   166  GLU166      0.0429
    117  CG        12.3590    5.4390   23.3520 C.3   166  GLU166      0.1163
    118  CD        12.0020    5.4670   24.8310 C.2   166  GLU166      0.3649
    119  OE1       12.6730    6.2310   25.5830 O.co2 166  GLU166     -0.2457
    120  OE2       11.0650    4.7370   25.2460 O.co2 166  GLU166     -0.2457
    121  N         13.4380    6.2260   20.3280 N.am  167  LEU167     -0.1964
    122  CA        14.1540    7.3370   19.7090 C.3   167  LEU167      0.1713
    123  C         14.3560    8.4320   20.7580 C.2   167  LEU167      0.2458
    124  O         13.7170    8.3820   21.8040 O.2   167  LEU167     -0.2730
    125  CB        13.3890    7.8500   18.4660 C.3   167  LEU167      0.0310
    126  CG        13.4760    6.8830   17.2570 C.3   167  LEU167      0.0022
    127  CD1       12.4460    7.1400   16.1720 C.3   167  LEU167      0.0001
    128  CD2       14.8660    6.8670   16.6200 C.3   167  LEU167      0.0001
    129  N         15.2170    9.4350   20.4830 N.am  168  PRO168     -0.2727
    130  CA        15.5420   10.4130   21.5300 C.3   168  PRO168      0.1402
    131  C         14.3510   11.2350   22.0410 C.2   168  PRO168      0.2269
    132  O         14.3630   11.6660   23.1970 O.2   168  PRO168     -0.2865
    133  CB        16.5770   11.3270   20.8490 C.3   168  PRO168      0.0296
    134  CG        17.2310   10.4270   19.8250 C.3   168  PRO168      0.0237
    135  CD        16.0560    9.6300   19.2840 C.3   168  PRO168      0.0939
    136  N          8.6890    5.5410   19.4530 N.3   172  HIS172     -0.1241
    137  CA         9.1080    4.1480   19.2900 C.3   172  HIS172      0.1621
    138  C          9.1530    3.7140   17.8480 C.2   172  HIS172      0.2264
    139  O          8.3610    4.2130   17.0360 O.2   172  HIS172     -0.2867
    140  CB         8.1650    3.2860   20.1020 C.3   172  HIS172      0.0745
    141  CG         8.2270    3.6280   21.5580 C.ar  172  HIS172      0.0817
    142  ND1        7.2250    4.3140   22.2100 N.ar  172  HIS172     -0.2268
    143  CD2        9.2320    3.4760   22.4610 C.ar  172  HIS172      0.1154
    144  CE1        7.5770    4.5100   23.4730 C.ar  172  HIS172      0.1986
    145  NE2        8.8020    4.0290   23.6450 N.ar  172  HIS172     -0.2212
    146  N         17.2960    2.0800   11.5390 N.3   186  VAL186     -0.1231
    147  CA        18.1180    0.8800   11.4650 C.3   186  VAL186      0.1692
    148  C         18.3850    0.3610   12.8840 C.2   186  VAL186      0.2592
    149  O         18.4140    1.1630   13.8280 O.2   186  VAL186     -0.2718
    150  CB        19.4530    1.1410   10.7200 C.3   186  VAL186      0.0266
    151  CG1       19.1720    1.4950    9.2420 C.3   186  VAL186      0.0020
    152  CG2       20.2620    2.2740   11.4060 C.3   186  VAL186      0.0020
    153  N         18.5550   -0.9600   13.0240 N.am  187  ASP187     -0.1960
    154  CA        18.8370   -1.5920   14.3300 C.3   187  ASP187      0.1840
    155  C         20.3180   -1.5780   14.6690 C.2   187  ASP187      0.2622
    156  O         20.9660   -2.6250   14.7980 O.2   187  ASP187     -0.2715
    157  CB        18.2450   -3.0120   14.4530 C.3   187  ASP187      0.1450
    158  CG        18.6510   -3.9530   13.3230 C.2   187  ASP187      0.3671
    159  OD1       19.3100   -3.5410   12.3360 O.co2 187  ASP187     -0.2456
    160  OD2       18.2500   -5.1290   13.4050 O.co2 187  ASP187     -0.2456
    161  N         20.8470   -0.3680   14.7860 N.am  188  ARG188     -0.1963
    162  CA        22.2130   -0.1100   15.2330 C.3   188  ARG188      0.1729
    163  C         22.2310    1.3090   15.8210 C.2   188  ARG188      0.2616
    164  O         21.3200    2.1170   15.5350 O.2   188  ARG188     -0.2715
    165  CB        23.2310   -0.2520   14.0780 C.3   188  ARG188      0.0348
    166  CG        23.1210    0.8180   12.9850 C.3   188  ARG188      0.0492
    167  CD        23.5820    0.3400   11.6050 C.3   188  ARG188      0.2205
    168  NE        24.9890    0.6280   11.3720 N.pl3 188  ARG188     -0.0865
    169  CZ        25.9620   -0.2930   11.3700 C.cat 188  ARG188      0.5346
    170  NH1       25.6780   -1.5780   11.5770 N.pl3 188  ARG188      0.1354
    171  NH2       27.2270    0.0630   11.1450 N.pl3 188  ARG188      0.1354
    172  N         23.2420    1.5920   16.6490 N.am  189  GLN189     -0.1977
    173  CA        23.3620    2.8800   17.3470 C.3   189  GLN189      0.1601
    174  C         23.8560    3.9940   16.4270 C.2   189  GLN189      0.2287
    175  O         25.0300    4.0200   16.0370 O.2   189  GLN189     -0.2864
    176  CB        24.2940    2.7470   18.5580 C.3   189  GLN189      0.0394
    177  CG        24.3180    3.9880   19.4400 C.3   189  GLN189      0.0908
    178  CD        22.9270    4.4160   19.8390 C.2   189  GLN189      0.2608
    179  OE1       22.5600    5.5870   19.7090 O.2   189  GLN189     -0.2717
    180  NE2       22.1350    3.4640   20.3210 N.am  189  GLN189     -0.0878
    181  N         20.1940    8.7170   14.6270 N.3   192  GLN192     -0.1245
    182  CA        18.8390    8.7290   14.0580 C.3   192  GLN192      0.1566
    183  C         17.8180    9.4170   14.9650 C.2   192  GLN192      0.2260
    184  O         17.8580    9.2960   16.2000 O.2   192  GLN192     -0.2867
    185  CB        18.3950    7.3170   13.6590 C.3   192  GLN192      0.0367
    186  CG        18.4940    6.2760   14.7580 C.3   192  GLN192      0.0905
    187  CD        18.4670    4.8490   14.2120 C.2   192  GLN192      0.2608
    188  OE1       19.0690    3.9280   14.8040 O.2   192  GLN192     -0.2717
    189  NE2       17.7870    4.6500   13.0820 N.am  192  GLN192     -0.0878
@<TRIPOS>BOND
     1   151   150    1
     2   150   152    1
     3   150   147    1
     4   171   169    1
     5   169   168    2
     6   169   170    1
     7   168   167    1
     8   147   146    1
     9   147   148    1
    10   167   166    1
    11   159   158   ar
    12   148   153   am
    13   148   149    2
    14   166   165    1
    15   153   154    1
    16   189   187   am
    17   158   160   ar
    18   158   157    1
    19   185   182    1
    20   185   186    1
    21   182   181    1
    22   182   183    1
    23   165   162    1
    24   187   186    1
    25   187   188    2
    26   154   157    1
    27   154   155    1
    28   155   161   am
    29   155   156    2
    30   161   162    1
    31   183   184    2
    32   103   102   ar
    33   103   101   ar
    34   102   100   ar
    35   162   163    1
    36   164   163    2
    37   100    99   ar
    38   101    99   ar
    39   163   172   am
    40   175   174    2
    41   127   126    1
    42    99    98    1
    43   110   111    1
    44   110   109    1
    45   174   173    1
    46   128   126    1
    47   172   173    1
    48    98    95    1
    49    23    24    1
    50   139   138    2
    51   126   125    1
    52    36    35    2
    53   173   176    1
    54   109   108    1
    55   138   137    1
    56    24    27    1
    57    24    25    1
    58    84    85    1
    59    35    34    1
    60    27    28    1
    61    95    94    1
    62    95    96    1
    63    94    86   am
    64    40    39    1
    65   125   122    1
    66   176   177    1
    67    29    28   ar
    68    29    31   ar
    69    85    86    1
    70    85    88    1
    71    86    87    2
    72    34    33    1
    73    34    37    1
    74   108   105    1
    75    39    38    1
    76    28    30   ar
    77    96   104   am
    78    96    97    2
    79   104   105    1
    80   135   134    1
    81   135   129    1
    82   137   136    1
    83   137   140    1
    84    25    26    2
    85   177   178    1
    86    31    32   ar
    87   107   106    2
    88   122   121    1
    89   122   123    1
    90   179   178    2
    91   134   133    1
    92   178   180   am
    93   105   106    1
    94    37    38    1
    95   140   141    1
    96    90    89   ar
    97    90    92   ar
    98    88    89    1
    99   106   112   am
   100    30    32   ar
   101   121   114   am
   102   129   123   am
   103   129   130    1
   104   115   114    2
   105    89    91   ar
   106   123   124    2
   107   114   113    1
   108   133   130    1
   109    92    93   ar
   110   112   113    1
   111   113   116    1
   112   130   131    1
   113   141   142   ar
   114   141   143   ar
   115    22    20    1
   116    91    93   ar
   117    21    20    1
   118   131   132    2
   119    49    51   ar
   120    49    47   ar
   121    82    83    1
   122    82    79    1
   123    51    50   ar
   124    80    79    1
   125    80    81    2
   126   142   144   ar
   127   143   145   ar
   128    79    78    1
   129    20    19    1
   130   116   117    1
   131    47    46   ar
   132    50    48   ar
   133   117   118    1
   134   144   145   ar
   135    75    74    2
   136    19    16    1
   137    78    74   am
   138    46    48   ar
   139    46    45    1
   140    74    73    1
   141     7     5    1
   142    17    18    2
   143    17    16    1
   144   118   120   ar
   145   118   119   ar
   146    16    15    1
   147     5     6    1
   148     5     2    1
   149    45    42    1
   150    77    76    1
   151    15    10   am
   152     4     3    2
   153    73    76    1
   154    73    72    1
   155    10    11    2
   156    10     9    1
   157     3     2    1
   158     3     8   am
   159     2     1    1
   160    42    41    1
   161    42    43    1
   162    72    70   am
   163     9     8    1
   164     9    12    1
   165    71    70    2
   166    70    69    1
   167    44    43    2
   168    43    52   am
   169    55    54    2
   170    68    69    1
   171    68    62   am
   172    52    53    1
   173    12    14    1
   174    12    13    1
   175    54    53    1
   176    54    60   am
   177    66    65    2
   178    61    62    1
   179    61    60    1
   180    61    64    1
   181    53    56    1
   182    62    63    2
   183    65    64    1
   184    65    67   am
   185    56    57    1
   186    59    57    1
   187    57    58    1
