@<TRIPOS>MOLECULE
tmp/3tiuA00.pdb
 219 217 0 0 0
SMALL
GASTEIGER

@<TRIPOS>ATOM
      1  N        -27.9140   11.9690   -1.1530 N.3    25  THR25      -0.1203
      2  CA       -26.8030   12.7940   -0.6530 C.3    25  THR25       0.1994
      3  C        -25.5560   11.9410   -0.6190 C.2    25  THR25       0.2619
      4  O        -25.5680   10.8640   -0.0190 O.2    25  THR25      -0.2717
      5  CB       -27.0540   13.3120    0.7710 C.3    25  THR25       0.1784
      6  OG1      -28.2570   14.0780    0.7910 O.3    25  THR25      -0.2211
      7  CG2      -25.8880   14.2110    1.2470 C.3    25  THR25       0.0376
      8  N        -24.5120   12.4090   -1.3080 N.am   26  THR26      -0.1938
      9  CA       -23.1760   11.8440   -1.2080 C.3    26  THR26       0.2028
     10  C        -22.1900   12.8950   -0.6230 C.2    26  THR26       0.2642
     11  O        -22.2430   14.0840   -0.9720 O.2    26  THR26      -0.2714
     12  CB       -22.6870   11.3110   -2.5800 C.3    26  THR26       0.1808
     13  OG1      -23.4450   10.1430   -2.9420 O.3    26  THR26      -0.2208
     14  CG2      -21.2340   10.9060   -2.5090 C.3    26  THR26       0.0379
     15  N        -21.3070   12.4360    0.2650 N.am   27  LEU27      -0.1977
     16  CA       -20.2380   13.2580    0.8500 C.3    27  LEU27       0.1596
     17  C        -19.0810   12.3500    1.2720 C.2    27  LEU27       0.2287
     18  O        -19.1560   11.1410    1.0750 O.2    27  LEU27      -0.2864
     19  CB       -20.7530   14.1040    2.0250 C.3    27  LEU27       0.0297
     20  CG       -21.6260   13.5160    3.1410 C.3    27  LEU27       0.0022
     21  CD1      -20.9120   12.4780    3.9690 C.3    27  LEU27       0.0001
     22  CD2      -22.0730   14.6320    4.0410 C.3    27  LEU27       0.0001
     23  N        -25.1390   15.3860    8.8180 N.3    41  HIS41      -0.1241
     24  CA       -26.0490   16.0410    7.8830 C.3    41  HIS41       0.1621
     25  C        -26.2280   15.2680    6.5530 C.2    41  HIS41       0.2264
     26  O        -27.1060   15.5980    5.7720 O.2    41  HIS41      -0.2867
     27  CB       -25.7400   17.5370    7.6950 C.3    41  HIS41       0.0745
     28  CG       -24.5900   17.8420    6.7750 C.ar   41  HIS41       0.0817
     29  ND1      -23.5720   18.7100    7.1210 N.ar   41  HIS41      -0.2268
     30  CD2      -24.3320   17.4540    5.5020 C.ar   41  HIS41       0.1154
     31  CE1      -22.7200   18.8120    6.1170 C.ar   41  HIS41       0.1986
     32  NE2      -23.1680   18.0690    5.1160 N.ar   41  HIS41      -0.2212
     33  N        -29.8420   14.2940    6.2210 N.3    44  CYS44      -0.1235
     34  CA       -30.8440   15.2920    5.7950 C.3    44  CYS44       0.1677
     35  C        -31.2030   15.2110    4.3120 C.2    44  CYS44       0.2270
     36  O        -30.3320   14.9420    3.4750 O.2    44  CYS44      -0.2867
     37  CB       -30.3310   16.7100    6.0520 C.3    44  CYS44       0.0956
     38  SG       -30.1290   17.0900    7.7490 S.3    44  CYS44      -0.0801
     39  N        -33.1830   20.3940    6.0410 N.3    49  MET49      -0.1245
     40  CA       -32.0080   21.2460    6.2770 C.3    49  MET49       0.1570
     41  C        -32.2370   22.4150    7.2450 C.2    49  MET49       0.2261
     42  O        -31.3020   22.8710    7.9090 O.2    49  MET49      -0.2867
     43  CB       -31.4160   21.7250    4.9460 C.3    49  MET49       0.0387
     44  CG       -31.0250   20.5730    4.0040 C.3    49  MET49       0.0595
     45  SD       -30.2530   21.0820    2.4420 S.3    49  MET49      -0.1393
     46  CE       -31.6620   21.7740    1.5530 C.3    49  MET49       0.0692
     47  N        -33.8360   20.1930   11.1730 N.3    52  PRO52      -0.2116
     48  CA       -33.7460   18.7360   11.2720 C.3    52  PRO52       0.1372
     49  C        -33.6060   18.2990   12.7230 C.2    52  PRO52       0.2244
     50  O        -32.9050   18.9590   13.5190 O.2    52  PRO52      -0.2868
     51  CB       -32.4710   18.4140   10.4970 C.3    52  PRO52       0.0268
     52  CG       -31.5910   19.6460   10.7360 C.3    52  PRO52       0.0207
     53  CD       -32.5240   20.8180   10.9150 C.3    52  PRO52       0.0892
     54  N        -31.9960   15.2740   14.3770 N.3    54  TYR54      -0.1241
     55  CA       -31.1070   14.1990   13.9310 C.3    54  TYR54       0.1605
     56  C        -31.3760   12.8540   14.6080 C.2    54  TYR54       0.2264
     57  O        -31.2280   11.8000   13.9790 O.2    54  TYR54      -0.2867
     58  CB       -29.6300   14.6040   14.0570 C.3    54  TYR54       0.0534
     59  CG       -29.1710   15.5960   13.0130 C.ar   54  TYR54      -0.0201
     60  CD1      -29.0880   16.9660   13.3120 C.ar   54  TYR54      -0.0009
     61  CD2      -28.8490   15.1760   11.7140 C.ar   54  TYR54      -0.0009
     62  CE1      -28.6610   17.8950   12.3480 C.ar   54  TYR54       0.0417
     63  CE2      -28.4430   16.0850   10.7420 C.ar   54  TYR54       0.0417
     64  CZ       -28.3420   17.4470   11.0670 C.ar   54  TYR54       0.1957
     65  OH       -27.9380   18.3510   10.1100 O.3    54  TYR54      -0.2866
     66  N        -13.4710   25.3010   -0.6570 N.3   140  PHE140     -0.1227
     67  CA       -14.4190   24.1620   -0.6570 C.3   140  PHE140      0.1736
     68  C        -15.5880   24.4360   -1.5930 C.2   140  PHE140      0.2595
     69  O        -16.1290   25.5620   -1.6200 O.2   140  PHE140     -0.2718
     70  CB       -15.0130   23.8910    0.7260 C.3   140  PHE140      0.0547
     71  CG       -14.0330   23.3600    1.7550 C.ar  140  PHE140     -0.0202
     72  CD1      -13.7080   24.1140    2.8800 C.ar  140  PHE140     -0.0042
     73  CD2      -13.4590   22.1040    1.6210 C.ar  140  PHE140     -0.0042
     74  CE1      -12.8270   23.6250    3.8420 C.ar  140  PHE140     -0.0003
     75  CE2      -12.5740   21.6060    2.5860 C.ar  140  PHE140     -0.0003
     76  CZ       -12.2690   22.3620    3.7020 C.ar  140  PHE140     -0.0000
     77  N        -15.9690   23.4070   -2.3520 N.am  141  LEU141     -0.1966
     78  CA       -17.1850   23.4360   -3.1560 C.3   141  LEU141      0.1728
     79  C        -18.1990   22.4400   -2.6000 C.2   141  LEU141      0.2616
     80  O        -17.8940   21.6840   -1.6560 O.2   141  LEU141     -0.2715
     81  CB       -16.8650   23.1010   -4.6490 C.3   141  LEU141      0.0311
     82  CG       -15.7880   23.9870   -5.3040 C.3   141  LEU141      0.0022
     83  CD1      -15.5200   23.5910   -6.7490 C.3   141  LEU141      0.0001
     84  CD2      -16.2670   25.4450   -5.2430 C.3   141  LEU141      0.0001
     85  N        -19.3920   22.4070   -3.2090 N.am  142  ASN142     -0.1958
     86  CA       -20.3800   21.3530   -2.9230 C.3   142  ASN142      0.1819
     87  C        -19.7280   19.9890   -3.0480 C.2   142  ASN142      0.2622
     88  O        -18.9330   19.7770   -3.9570 O.2   142  ASN142     -0.2715
     89  CB       -21.5510   21.3890   -3.8960 C.3   142  ASN142      0.1195
     90  CG       -22.5200   22.5230   -3.6240 C.2   142  ASN142      0.2630
     91  OD1      -22.2450   23.4440   -2.8430 O.2   142  ASN142     -0.2716
     92  ND2      -23.6870   22.4600   -4.2840 N.am  142  ASN142     -0.0877
     93  N        -20.0540   19.0790   -2.1350 N.am  143  GLY143     -0.1940
     94  CA       -19.4930   17.7140   -2.1480 C.3   143  GLY143      0.2014
     95  C        -18.2210   17.5530   -1.3280 C.2   143  GLY143      0.2640
     96  O        -17.6780   16.4410   -1.2420 O.2   143  GLY143     -0.2714
     97  N        -17.7350   18.6570   -0.7610 N.am  144  SER144     -0.1935
     98  CA       -16.4820   18.6890    0.0140 C.3   144  SER144      0.2055
     99  C        -16.6600   18.3380    1.5040 C.2   144  SER144      0.2643
    100  O        -15.6780   18.1430    2.2330 O.2   144  SER144     -0.2714
    101  CB       -15.7970   20.0730   -0.1060 C.3   144  SER144      0.2130
    102  OG       -16.5760   21.0950    0.4830 O.3   144  SER144     -0.2179
    103  N        -17.9100   18.2650    1.9600 N.am  145  CYS145     -0.1967
    104  CA       -18.1870   17.8890    3.3310 C.3   145  CYS145      0.1712
    105  C        -17.6170   16.5370    3.6920 C.2   145  CYS145      0.2296
    106  O        -17.6440   15.5940    2.8880 O.2   145  CYS145     -0.2864
    107  CB       -19.6810   17.9500    3.6480 C.3   145  CYS145      0.0983
    108  SG       -20.3490   19.6290    3.6070 S.3   145  CYS145     -0.0798
    109  N        -14.8940   18.8560    7.7180 N.3   163  HIS163     -0.1226
    110  CA       -15.6410   19.9520    7.1330 C.3   163  HIS163      0.1752
    111  C        -17.1650   19.7180    7.0480 C.2   163  HIS163      0.2596
    112  O        -17.6040   18.6950    6.5350 O.2   163  HIS163     -0.2718
    113  CB       -15.0860   20.3020    5.7510 C.3   163  HIS163      0.0759
    114  CG       -15.7560   21.4920    5.1410 C.ar  163  HIS163      0.0818
    115  ND1      -15.8170   22.7050    5.7890 N.ar  163  HIS163     -0.2268
    116  CD2      -16.4080   21.6570    3.9660 C.ar  163  HIS163      0.1154
    117  CE1      -16.4700   23.5750    5.0310 C.ar  163  HIS163      0.1986
    118  NE2      -16.8440   22.9610    3.9180 N.ar  163  HIS163     -0.2212
    119  N        -17.9380   20.7050    7.5090 N.am  164  HIS164     -0.1961
    120  CA       -19.4120   20.6390    7.5550 C.3   164  HIS164      0.1787
    121  C        -20.1200   21.7070    6.7780 C.2   164  HIS164      0.2620
    122  O        -21.1770   21.4260    6.2240 O.2   164  HIS164     -0.2715
    123  CB       -19.9600   20.7180    8.9820 C.3   164  HIS164      0.0785
    124  CG       -19.7830   19.4560    9.7710 C.ar  164  HIS164      0.0821
    125  ND1      -20.8470   18.7020   10.2230 N.ar  164  HIS164     -0.2267
    126  CD2      -18.6680   18.8280   10.2070 C.ar  164  HIS164      0.1154
    127  CE1      -20.3940   17.6700   10.9160 C.ar  164  HIS164      0.1986
    128  NE2      -19.0750   17.7270   10.9270 N.ar  164  HIS164     -0.2212
    129  N        -19.6050   22.9430    6.7720 N.am  165  MET165     -0.1963
    130  CA       -20.3490   24.0120    6.1230 C.3   165  MET165      0.1736
    131  C        -19.6060   25.2870    5.7890 C.2   165  MET165      0.2616
    132  O        -18.5130   25.5520    6.2950 O.2   165  MET165     -0.2715
    133  CB       -21.6130   24.3450    6.9290 C.3   165  MET165      0.0427
    134  CG       -21.4010   25.1130    8.2230 C.3   165  MET165      0.0599
    135  SD       -22.7330   24.7960    9.4400 S.3   165  MET165     -0.1393
    136  CE       -24.2260   25.3940    8.6000 C.3   165  MET165      0.0692
    137  N        -20.2440   26.0690    4.9300 N.am  166  GLU166     -0.1963
    138  CA       -19.7820   27.3680    4.5300 C.3   166  GLU166      0.1733
    139  C        -20.7510   28.4300    5.0510 C.2   166  GLU166      0.2616
    140  O        -21.9700   28.2350    5.0020 O.2   166  GLU166     -0.2715
    141  CB       -19.6710   27.4480    3.0090 C.3   166  GLU166      0.0429
    142  CG       -19.0450   28.7580    2.5150 C.3   166  GLU166      0.1163
    143  CD       -18.6590   28.7150    1.0350 C.2   166  GLU166      0.3649
    144  OE1      -19.3850   29.3420    0.2300 O.co2 166  GLU166     -0.2457
    145  OE2      -17.6430   28.0740    0.6690 O.co2 166  GLU166     -0.2457
    146  N        -20.1830   29.5370    5.5340 N.am  167  LEU167     -0.1964
    147  CA       -20.9150   30.6790    6.0710 C.3   167  LEU167      0.1713
    148  C        -21.0240   31.7830    5.0170 C.2   167  LEU167      0.2458
    149  O        -20.3590   31.7170    3.9800 O.2   167  LEU167     -0.2730
    150  CB       -20.2190   31.2090    7.3450 C.3   167  LEU167      0.0310
    151  CG       -20.2780   30.2160    8.5160 C.3   167  LEU167      0.0022
    152  CD1      -19.2460   30.5230    9.5790 C.3   167  LEU167      0.0001
    153  CD2      -21.6610   30.1170    9.1250 C.3   167  LEU167      0.0001
    154  N        -21.8680   32.7950    5.2720 N.am  168  PRO168     -0.2727
    155  CA       -22.1810   33.7290    4.1990 C.3   168  PRO168      0.1402
    156  C        -20.9790   34.5220    3.6900 C.2   168  PRO168      0.2269
    157  O        -20.9410   34.8740    2.5120 O.2   168  PRO168     -0.2865
    158  CB       -23.2430   34.6490    4.8280 C.3   168  PRO168      0.0296
    159  CG       -23.8920   33.8060    5.8400 C.3   168  PRO168      0.0237
    160  CD       -22.7710   32.9740    6.4260 C.3   168  PRO168      0.0939
    161  N        -15.3660   28.9450    6.4220 N.3   172  HIS172     -0.1241
    162  CA       -15.7930   27.5690    6.6350 C.3   172  HIS172      0.1621
    163  C        -15.8670   27.1650    8.0820 C.2   172  HIS172      0.2264
    164  O        -15.1060   27.6770    8.9070 O.2   172  HIS172     -0.2867
    165  CB       -14.8760   26.6690    5.8270 C.3   172  HIS172      0.0745
    166  CG       -14.9080   27.0160    4.3800 C.ar  172  HIS172      0.0817
    167  ND1      -13.8910   27.6990    3.7460 N.ar  172  HIS172     -0.2268
    168  CD2      -15.8890   26.8540    3.4570 C.ar  172  HIS172      0.1154
    169  CE1      -14.2210   27.9060    2.4810 C.ar  172  HIS172      0.1986
    170  NE2      -15.4330   27.4100    2.2800 N.ar  172  HIS172     -0.2212
    171  N        -25.0950   22.4190   12.8490 N.3   187  ASP187     -0.1225
    172  CA       -25.3010   21.7990   11.5420 C.3   187  ASP187      0.1805
    173  C        -26.7500   21.8470   11.1100 C.2   187  ASP187      0.2598
    174  O        -27.4000   20.8040   10.9640 O.2   187  ASP187     -0.2718
    175  CB       -24.7370   20.3720   11.4660 C.3   187  ASP187      0.1424
    176  CG       -25.2370   19.4690   12.5730 C.2   187  ASP187      0.3668
    177  OD1      -25.9310   19.9350   13.5090 O.co2 187  ASP187     -0.2456
    178  OD2      -24.8930   18.2840   12.5250 O.co2 187  ASP187     -0.2456
    179  N        -27.2500   23.0650   10.9130 N.am  188  ARG188     -0.1966
    180  CA       -28.5320   23.2920   10.2460 C.3   188  ARG188      0.1729
    181  C        -28.5210   24.6810    9.5880 C.2   188  ARG188      0.2616
    182  O        -27.7310   25.5550    9.9870 O.2   188  ARG188     -0.2715
    183  CB       -29.7140   23.1090   11.2160 C.3   188  ARG188      0.0348
    184  CG       -29.6640   23.9830   12.4730 C.3   188  ARG188      0.0492
    185  CD       -30.5880   23.4850   13.5720 C.3   188  ARG188      0.2205
    186  NE       -30.9250   24.5830   14.4710 N.pl3 188  ARG188     -0.0865
    187  CZ       -31.9370   25.4340   14.2690 C.cat 188  ARG188      0.5346
    188  NH1      -32.7210   25.3150   13.1900 N.pl3 188  ARG188      0.1354
    189  NH2      -32.1730   26.4090   15.1380 N.pl3 188  ARG188      0.1354
    190  N        -29.3690   24.8860    8.5790 N.am  189  GLN189     -0.1963
    191  CA       -29.2590   26.0990    7.7530 C.3   189  GLN189      0.1733
    192  C        -29.9930   27.3430    8.2980 C.2   189  GLN189      0.2617
    193  O        -30.7630   27.9880    7.5840 O.2   189  GLN189     -0.2715
    194  CB       -29.5570   25.8190    6.2560 C.3   189  GLN189      0.0408
    195  CG       -28.7390   24.6280    5.6660 C.3   189  GLN189      0.0908
    196  CD       -28.6640   24.5720    4.1130 C.2   189  GLN189      0.2608
    197  OE1      -27.5810   24.3660    3.5420 O.2   189  GLN189     -0.2717
    198  NE2      -29.8030   24.7450    3.4420 N.am  189  GLN189     -0.0878
    199  N        -29.6850   27.6950    9.5490 N.am  190  THR190     -0.1937
    200  CA       -30.1060   28.9530   10.2010 C.3   190  THR190      0.2028
    201  C        -29.3470   30.2160    9.6950 C.2   190  THR190      0.2642
    202  O        -28.5820   30.1440    8.7490 O.2   190  THR190     -0.2714
    203  CB       -29.8730   28.8670   11.7230 C.3   190  THR190      0.1808
    204  OG1      -28.4970   29.1620   12.0060 O.3   190  THR190     -0.2208
    205  CG2      -30.1920   27.4920   12.2520 C.3   190  THR190      0.0379
    206  N        -29.5320   31.3590   10.3560 N.am  191  ALA191     -0.1963
    207  CA       -28.8970   32.6220    9.9570 C.3   191  ALA191      0.1728
    208  C        -27.6300   32.9580   10.7650 C.2   191  ALA191      0.2616
    209  O        -27.4020   34.1250   11.1660 O.2   191  ALA191     -0.2715
    210  CB       -29.9160   33.7930   10.0340 C.3   191  ALA191      0.0334
    211  N        -26.7940   31.9530   10.9770 N.am  192  GLN192     -0.1977
    212  CA       -25.5440   32.1230   11.7120 C.3   192  GLN192      0.1601
    213  C        -24.4740   32.8310   10.8850 C.2   192  GLN192      0.2287
    214  O        -24.4390   32.7400    9.6630 O.2   192  GLN192     -0.2864
    215  CB       -25.0580   30.7760   12.2890 C.3   192  GLN192      0.0394
    216  CG       -25.0060   29.6400   11.3070 C.3   192  GLN192      0.0908
    217  CD       -25.1050   28.2770   11.9770 C.2   192  GLN192      0.2608
    218  OE1      -25.8590   27.4000   11.5180 O.2   192  GLN192     -0.2717
    219  NE2      -24.3770   28.0920   13.0740 N.am  192  GLN192     -0.0878
@<TRIPOS>BOND
     1    83    82    1
     2    82    84    1
     3    82    81    1
     4    81    78    1
     5    92    90   am
     6    88    87    2
     7    89    90    1
     8    89    86    1
     9    90    91    2
    10    85    86    1
    11    85    79   am
    12    78    79    1
    13    78    77    1
    14    87    86    1
    15    87    93   am
    16    13    12    1
    17    79    80    2
    18    12    14    1
    19    12     9    1
    20    77    68   am
    21    94    93    1
    22    94    95    1
    23    69    68    2
    24    68    67    1
    25    95    96    2
    26    95    97   am
    27     8     9    1
    28     8     3   am
    29     9    10    1
    30     1     2    1
    31    11    10    2
    32    97    98    1
    33    67    66    1
    34    67    70    1
    35     2     3    1
    36     2     5    1
    37    10    15   am
    38     3     4    2
    39   101    98    1
    40   101   102    1
    41    98    99    1
    42   144   143   ar
    43    15    16    1
    44   145   143   ar
    45    70    71    1
    46     5     6    1
    47     5     7    1
    48    16    17    1
    49    16    19    1
    50   143   142    1
    51    18    17    2
    52    99   103   am
    53    99   100    2
    54    46    45    1
    55    73    71   ar
    56    73    75   ar
    57    71    72   ar
    58   103   104    1
    59    19    20    1
    60   170   169   ar
    61   170   168   ar
    62    45    44    1
    63   169   167   ar
    64   157   156    2
    65   142   141    1
    66    75    76   ar
    67    72    74   ar
    68   106   105    2
    69   141   138    1
    70    20    21    1
    71    20    22    1
    72   104   107    1
    73   104   105    1
    74   198   196   am
    75   168   166   ar
    76    36    35    2
    77   197   196    2
    78   108   107    1
    79   156   155    1
    80    76    74   ar
    81   167   166   ar
    82   118   116   ar
    83   118   117   ar
    84   116   114   ar
    85   149   148    2
    86    44    43    1
    87   196   195    1
    88   155   158    1
    89   155   154    1
    90    35    34    1
    91   166   165    1
    92   138   137    1
    93   138   139    1
    94   158   159    1
    95   137   131   am
    96    43    40    1
    97   140   139    2
    98   148   154   am
    99   148   147    1
   100   117   115   ar
   101   139   146   am
   102    32    30   ar
   103    32    31   ar
   104   114   113    1
   105   114   115   ar
   106   154   160    1
   107    30    28   ar
   108   146   147    1
   109   195   194    1
   110   113   110    1
   111    26    25    2
   112   131   130    1
   113   131   132    2
   114    34    37    1
   115    34    33    1
   116   165   162    1
   117   159   160    1
   118    39    40    1
   119    37    38    1
   120   147   150    1
   121    31    29   ar
   122   130   129    1
   123   130   133    1
   124   122   121    2
   125   194   191    1
   126    40    41    1
   127   161   162    1
   128   112   111    2
   129    25    24    1
   130   162   163    1
   131   129   121   am
   132    28    29   ar
   133    28    27    1
   134   121   120    1
   135   133   134    1
   136   111   110    1
   137   111   119   am
   138   110   109    1
   139    41    42    2
   140   150   151    1
   141   119   120    1
   142   120   123    1
   143   193   192    2
   144    27    24    1
   145   191   192    1
   146   191   190    1
   147    24    23    1
   148   163   164    2
   149   134   135    1
   150   192   199   am
   151   151   153    1
   152   151   152    1
   153   190   181   am
   154   136   135    1
   155   202   201    2
   156   123   124    1
   157   199   200    1
   158   181   182    2
   159   181   180    1
   160   214   213    2
   161   201   200    1
   162   201   206   am
   163   124   126   ar
   164   124   125   ar
   165   207   210    1
   166   207   206    1
   167   207   208    1
   168    65    64    1
   169   200   203    1
   170   126   128   ar
   171   125   127   ar
   172   180   179    1
   173   180   183    1
   174    51    52    1
   175    51    48    1
   176    52    53    1
   177    63    64   ar
   178    63    61   ar
   179   208   211   am
   180   208   209    2
   181   213   212    1
   182   179   173   am
   183    53    47    1
   184   127   128   ar
   185   174   173    2
   186   211   212    1
   187    64    62   ar
   188   173   172    1
   189    47    48    1
   190   183   184    1
   191    48    49    1
   192   216   217    1
   193   216   215    1
   194   175   172    1
   195   175   176    1
   196   218   217    2
   197   172   171    1
   198   212   215    1
   199    61    59   ar
   200   203   204    1
   201   203   205    1
   202   217   219   am
   203    62    60   ar
   204   184   185    1
   205   178   176   ar
   206   176   177   ar
   207    49    50    2
   208    59    60   ar
   209    59    58    1
   210   188   187    1
   211   185   186    1
   212    55    58    1
   213    55    54    1
   214    55    56    1
   215    57    56    2
   216   187   186    2
   217   187   189    1
