@<TRIPOS>MOLECULE
tmp/3tivA00.pdb
 71 68 0 0 0
SMALL
GASTEIGER

@<TRIPOS>ATOM
      1  N        -16.7550  -16.2610   60.0610 N.3    24  GLY24      -0.1210
      2  CA       -15.3030  -16.3320   59.9380 C.3    24  GLY24       0.1956
      3  C        -14.5780  -15.3140   60.7910 C.2    24  GLY24       0.2611
      4  O        -13.4820  -15.5830   61.2890 O.2    24  GLY24      -0.2717
      5  N        -15.2070  -14.1590   60.9810 N.am   25  ASP25      -0.1973
      6  CA       -14.5880  -13.0910   61.7550 C.3    25  ASP25       0.1709
      7  C        -14.8070  -13.2510   63.2640 C.2    25  ASP25       0.2293
      8  O        -14.3150  -12.4410   64.0570 O.2    25  ASP25      -0.2864
      9  CB       -15.0360  -11.7110   61.2420 C.3    25  ASP25       0.1436
     10  CG       -16.4770  -11.3760   61.5880 C.2    25  ASP25       0.3671
     11  OD1      -16.8780  -10.2270   61.3120 O.co2  25  ASP25      -0.2456
     12  OD2      -17.2130  -12.2320   62.1340 O.co2  25  ASP25      -0.2456
     13  N         -5.2880  -19.5790   56.3640 N.3    86  GLN86      -0.1231
     14  CA        -6.4550  -18.8750   56.8800 C.3    86  GLN86       0.1698
     15  C         -7.7030  -19.6220   56.4450 C.2    86  GLN86       0.2592
     16  O         -7.7180  -20.2490   55.3830 O.2    86  GLN86      -0.2718
     17  CB        -6.5180  -17.4530   56.3320 C.3    86  GLN86       0.0381
     18  CG        -5.5950  -16.4660   57.0230 C.3    86  GLN86       0.0905
     19  CD        -5.5880  -15.1060   56.3530 C.2    86  GLN86       0.2608
     20  OE1       -6.5430  -14.7260   55.6780 O.2    86  GLN86      -0.2717
     21  NE2       -4.5020  -14.3640   56.5390 N.am   86  GLN86      -0.0878
     22  N         -8.7370  -19.5740   57.2790 N.am   87  LEU87      -0.1966
     23  CA       -10.0390  -20.1060   56.9110 C.3    87  LEU87       0.1728
     24  C        -10.9470  -18.9240   56.5970 C.2    87  LEU87       0.2616
     25  O        -11.2030  -18.0830   57.4580 O.2    87  LEU87      -0.2715
     26  CB       -10.6140  -20.9580   58.0420 C.3    87  LEU87       0.0311
     27  CG        -9.9240  -22.2990   58.2760 C.3    87  LEU87       0.0022
     28  CD1      -10.3800  -22.8710   59.6160 C.3    87  LEU87       0.0001
     29  CD2      -10.2110  -23.2650   57.1330 C.3    87  LEU87       0.0001
     30  N        -11.4250  -18.8490   55.3580 N.am   88  LEU88      -0.1963
     31  CA       -12.1510  -17.6650   54.9220 C.3    88  LEU88       0.1728
     32  C        -13.5870  -17.9780   54.5570 C.2    88  LEU88       0.2616
     33  O        -13.8450  -18.9180   53.8070 O.2    88  LEU88      -0.2715
     34  CB       -11.4680  -17.0550   53.7010 C.3    88  LEU88       0.0311
     35  CG       -10.0340  -16.5620   53.8720 C.3    88  LEU88       0.0022
     36  CD1       -9.5170  -16.0580   52.5370 C.3    88  LEU88       0.0001
     37  CD2       -9.9660  -15.4760   54.9280 C.3    88  LEU88       0.0001
     38  N        -14.5130  -17.1610   55.0510 N.am   89  ASP89      -0.1971
     39  CA       -15.8890  -17.2000   54.5550 C.3    89  ASP89       0.1709
     40  C        -15.8740  -16.9610   53.0540 C.2    89  ASP89       0.2293
     41  O        -14.9640  -16.2970   52.5240 O.2    89  ASP89      -0.2864
     42  CB       -16.7680  -16.1590   55.2470 C.3    89  ASP89       0.1436
     43  CG       -17.0380  -16.5070   56.6930 C.2    89  ASP89       0.3671
     44  OD1      -16.6150  -17.5940   57.1250 O.co2  89  ASP89      -0.2456
     45  OD2      -17.6620  -15.7040   57.3950 O.co2  89  ASP89      -0.2456
     46  N        -17.8080  -11.5870   51.8860 N.3    93  ALA93      -0.1231
     47  CA       -17.6240  -10.6760   53.0250 C.3    93  ALA93       0.1694
     48  C        -16.1880  -10.6770   53.5570 C.2    93  ALA93       0.2592
     49  O        -15.7410   -9.6880   54.1480 O.2    93  ALA93      -0.2718
     50  CB       -18.6180  -10.9910   54.1390 C.3    93  ALA93       0.0304
     51  N        -15.4660  -11.7730   53.3440 N.am   94  ALA94      -0.1966
     52  CA       -14.0870  -11.8760   53.8190 C.3    94  ALA94       0.1728
     53  C        -13.1840  -10.8730   53.1090 C.2    94  ALA94       0.2616
     54  O        -13.4030  -10.5430   51.9310 O.2    94  ALA94      -0.2715
     55  CB       -13.5580  -13.2950   53.6430 C.3    94  ALA94       0.0334
     56  N        -12.2080  -10.3630   53.8600 N.am   95  MET95      -0.1963
     57  CA       -11.0580   -9.6070   53.3380 C.3    95  MET95       0.1736
     58  C        -11.3110   -8.1680   52.9250 C.2    95  MET95       0.2616
     59  O        -10.3860   -7.3610   52.9920 O.2    95  MET95      -0.2715
     60  CB       -10.3740  -10.3350   52.1730 C.3    95  MET95       0.0427
     61  CG        -9.6080  -11.5730   52.5770 C.3    95  MET95       0.0599
     62  SD        -9.0910  -12.4990   51.1250 S.3    95  MET95      -0.1393
     63  CE       -10.6410  -13.2420   50.5860 C.3    95  MET95       0.0692
     64  N        -12.5240   -7.8580   52.4680 N.am   96  ASN96      -0.1972
     65  CA       -12.8390   -6.5390   51.9030 C.3    96  ASN96       0.1688
     66  C        -11.7020   -6.0770   50.9590 C.2    96  ASN96       0.2292
     67  O        -11.0870   -5.0230   51.1720 O.2    96  ASN96      -0.2864
     68  CB       -13.0850   -5.5310   53.0380 C.3    96  ASN96       0.1181
     69  CG       -13.5360   -4.1590   52.5390 C.2    96  ASN96       0.2629
     70  OD1      -13.2980   -3.1440   53.2040 O.2    96  ASN96      -0.2716
     71  ND2      -14.1880   -4.1180   51.3760 N.am   96  ASN96      -0.0877
@<TRIPOS>BOND
     1    63    62    1
     2    66    67    2
     3    66    65    1
     4    62    61    1
     5    71    69   am
     6    46    47    1
     7    65    64    1
     8    65    68    1
     9    54    53    2
    10    60    61    1
    11    60    57    1
    12    64    58   am
    13    41    40    2
    14    36    35    1
    15    69    68    1
    16    69    70    2
    17    58    59    2
    18    58    57    1
    19    47    48    1
    20    47    50    1
    21    40    39    1
    22    53    52    1
    23    53    56   am
    24    57    56    1
    25    51    48   am
    26    51    52    1
    27    48    49    2
    28    55    52    1
    29    34    35    1
    30    34    31    1
    31    33    32    2
    32    35    37    1
    33    39    38    1
    34    39    42    1
    35    32    31    1
    36    32    38   am
    37    31    30    1
    38    42    43    1
    39    30    24   am
    40    16    15    2
    41    20    19    2
    42    17    14    1
    43    17    18    1
    44    19    21   am
    45    19    18    1
    46    13    14    1
    47    15    14    1
    48    15    22   am
    49    24    23    1
    50    24    25    2
    51    43    44   ar
    52    43    45   ar
    53    23    22    1
    54    23    26    1
    55    29    27    1
    56    26    27    1
    57    27    28    1
    58     2     1    1
    59     2     3    1
    60     3     5   am
    61     3     4    2
    62     5     6    1
    63     9    10    1
    64     9     6    1
    65    11    10   ar
    66    10    12   ar
    67     6     7    1
    68     7     8    2
