@<TRIPOS>MOLECULE
tmp/3tivB01.pdb
 71 69 0 0 0
SMALL
GASTEIGER

@<TRIPOS>ATOM
      1  N        -43.3120  -13.5210  -11.4230 N.3    10  LYS10      -0.1245
      2  CA       -43.8140  -14.6790  -12.1490 C.3    10  LYS10       0.1561
      3  C        -44.5480  -14.1960  -13.3920 C.2    10  LYS10       0.2260
      4  O        -45.6930  -13.7570  -13.3020 O.2    10  LYS10      -0.2867
      5  CB       -44.7470  -15.5100  -11.2790 C.3    10  LYS10       0.0271
      6  CG       -45.2650  -16.7810  -11.9650 C.3    10  LYS10       0.0035
      7  CD       -44.1600  -17.7920  -12.1200 C.3    10  LYS10       0.0206
      8  CE       -44.0480  -18.7100  -10.9130 C.3    10  LYS10       0.1093
      9  NZ       -44.5780  -18.1300   -9.6430 N.3    10  LYS10      -0.1314
     10  N        -44.9470  -19.6490  -16.4940 N.3    13  PRO13      -0.2102
     11  CA       -44.7600  -20.8000  -15.6200 C.3    13  PRO13       0.1504
     12  C        -43.3090  -21.2470  -15.5530 C.2    13  PRO13       0.2576
     13  O        -42.6110  -21.2870  -16.5680 O.2    13  PRO13      -0.2718
     14  CB       -45.6110  -21.8890  -16.2820 C.3    13  PRO13       0.0282
     15  CG       -46.6530  -21.1350  -17.0560 C.3    13  PRO13       0.0208
     16  CD       -45.9240  -19.9170  -17.5650 C.3    13  PRO13       0.0893
     17  N        -42.8590  -21.5860  -14.3490 N.am   14  VAL14      -0.1966
     18  CA       -41.5090  -22.1190  -14.1510 C.3    14  VAL14       0.1727
     19  C        -41.5600  -23.4480  -13.3940 C.2    14  VAL14       0.2617
     20  O        -42.5830  -23.7990  -12.8170 O.2    14  VAL14      -0.2715
     21  CB       -40.5750  -21.1130  -13.3830 C.3    14  VAL14       0.0290
     22  CG1      -40.3070  -19.8580  -14.2180 C.3    14  VAL14       0.0023
     23  CG2      -41.1400  -20.7770  -11.9980 C.3    14  VAL14       0.0023
     24  N        -40.4620  -24.1920  -13.4090 N.am   15  GLY15      -0.1940
     25  CA       -40.3930  -25.4600  -12.6660 C.3    15  GLY15       0.2014
     26  C        -39.2560  -25.4080  -11.6600 C.2    15  GLY15       0.2638
     27  O        -38.3220  -24.6160  -11.8140 O.2    15  GLY15      -0.2714
     28  N        -39.3180  -26.2560  -10.6370 N.am   16  TYR16      -0.1973
     29  CA       -38.1830  -26.3960   -9.7200 C.3    16  TYR16       0.1639
     30  C        -36.9130  -26.7190  -10.4720 C.2    16  TYR16       0.2290
     31  O        -36.9250  -27.5110  -11.4200 O.2    16  TYR16      -0.2864
     32  CB       -38.4100  -27.5230   -8.7350 C.3    16  TYR16       0.0560
     33  CG       -39.5210  -27.3100   -7.7520 C.ar   16  TYR16      -0.0198
     34  CD1      -40.7460  -27.9410   -7.9290 C.ar   16  TYR16      -0.0009
     35  CD2      -39.3330  -26.5250   -6.6070 C.ar   16  TYR16      -0.0009
     36  CE1      -41.7690  -27.7810   -7.0200 C.ar   16  TYR16       0.0417
     37  CE2      -40.3620  -26.3560   -5.6810 C.ar   16  TYR16       0.0417
     38  CZ       -41.5720  -26.9970   -5.8900 C.ar   16  TYR16       0.1957
     39  OH       -42.6010  -26.8480   -4.9930 O.3    16  TYR16      -0.2866
     40  N        -34.2680  -21.9300  -10.3730 N.3    34  VAL34      -0.1245
     41  CA       -35.4760  -21.7580   -9.5820 C.3    34  VAL34       0.1561
     42  C        -35.4280  -22.6240   -8.3240 C.2    34  VAL34       0.2260
     43  O        -35.2840  -23.8410   -8.4040 O.2    34  VAL34      -0.2867
     44  CB       -36.7550  -22.0580  -10.4080 C.3    34  VAL34       0.0252
     45  CG1      -37.9880  -21.9900   -9.5270 C.3    34  VAL34       0.0019
     46  CG2      -36.8810  -21.0640  -11.5580 C.3    34  VAL34       0.0019
     47  N        -37.8490  -22.0150   -5.5580 N.3    36  ASP36      -0.1225
     48  CA       -39.2170  -22.1060   -5.0500 C.3    36  ASP36       0.1805
     49  C        -40.0290  -20.9860   -5.6810 C.2    36  ASP36       0.2598
     50  O        -39.4850  -20.1270   -6.3800 O.2    36  ASP36      -0.2718
     51  CB       -39.2430  -21.9830   -3.5150 C.3    36  ASP36       0.1424
     52  CG       -40.4000  -22.7540   -2.8690 C.2    36  ASP36       0.3668
     53  OD1      -41.4600  -22.9540   -3.5180 O.co2  36  ASP36      -0.2456
     54  OD2      -40.2480  -23.1560   -1.6890 O.co2  36  ASP36      -0.2456
     55  N        -41.3340  -20.9900   -5.4470 N.am   37  SER37      -0.1938
     56  CA       -42.1770  -19.9520   -5.9930 C.3    37  SER37       0.2055
     57  C        -43.5020  -19.8850   -5.2690 C.2    37  SER37       0.2644
     58  O        -43.9630  -20.8810   -4.6980 O.2    37  SER37      -0.2714
     59  CB       -42.4040  -20.1960   -7.4870 C.3    37  SER37       0.2130
     60  OG       -42.9590  -19.0580   -8.0940 O.3    37  SER37      -0.2179
     61  N        -44.0960  -18.7000   -5.2730 N.am   38  SER38      -0.1935
     62  CA       -45.5030  -18.5460   -4.9350 C.3    38  SER38       0.2055
     63  C        -46.2400  -18.4120   -6.2650 C.2    38  SER38       0.2642
     64  O        -45.6450  -18.6230   -7.3190 O.2    38  SER38      -0.2714
     65  CB       -45.7240  -17.3140   -4.0490 C.3    38  SER38       0.2130
     66  OG       -45.4830  -16.1050   -4.7590 O.3    38  SER38      -0.2179
     67  N        -47.5150  -18.0350   -6.2290 N.am   39  ALA39      -0.1977
     68  CA       -48.2600  -17.7900   -7.4680 C.3    39  ALA39       0.1597
     69  C        -47.6920  -16.6240   -8.2900 C.2    39  ALA39       0.2287
     70  O        -47.7620  -16.6410   -9.5230 O.2    39  ALA39      -0.2864
     71  CB       -49.7350  -17.5610   -7.1730 C.3    39  ALA39       0.0319
@<TRIPOS>BOND
     1    16    15    1
     2    16    10    1
     3    15    14    1
     4    13    12    2
     5    10    11    1
     6    14    11    1
     7    11    12    1
     8    12    17   am
     9    17    18    1
    10    22    21    1
    11    18    19    1
    12    18    21    1
    13    24    19   am
    14    24    25    1
    15    19    20    2
    16     3     4    2
    17     3     2    1
    18    21    23    1
    19    25    26    1
    20     2     1    1
    21     2     5    1
    22     7     6    1
    23     7     8    1
    24     6     5    1
    25    27    26    2
    26    26    28   am
    27    46    44    1
    28    31    30    2
    29     8     9    1
    30    28    29    1
    31    30    29    1
    32    44    41    1
    33    44    45    1
    34    40    41    1
    35    29    32    1
    36    41    42    1
    37    70    69    2
    38    32    33    1
    39    43    42    2
    40    69    68    1
    41    60    59    1
    42    34    33   ar
    43    34    36   ar
    44    33    35   ar
    45    59    56    1
    46    68    71    1
    47    68    67    1
    48    64    63    2
    49    36    38   ar
    50    35    37   ar
    51    50    49    2
    52    63    67   am
    53    63    62    1
    54    56    55    1
    55    56    57    1
    56    38    37   ar
    57    38    39    1
    58    49    55   am
    59    49    48    1
    60    47    48    1
    61    61    57   am
    62    61    62    1
    63    57    58    2
    64    48    51    1
    65    62    65    1
    66    66    65    1
    67    53    52   ar
    68    51    52    1
    69    52    54   ar
