@<TRIPOS>MOLECULE
tmp/3tiyA00.pdb
 136 129 0 0 0
SMALL
GASTEIGER

@<TRIPOS>ATOM
      1  N        -92.7780   13.9950  -42.6480 N.3     9  ILE9       -0.1245
      2  CA       -93.9450   13.1500  -42.8720 C.3     9  ILE9        0.1561
      3  C        -93.7530   11.7260  -42.3820 C.2     9  ILE9        0.2260
      4  O        -94.6060   10.8600  -42.5930 O.2     9  ILE9       -0.2867
      5  CB       -94.4260   13.1960  -44.3370 C.3     9  ILE9        0.0252
      6  CG1      -93.4580   12.4780  -45.2740 C.3     9  ILE9        0.0019
      7  CG2      -94.6100   14.6300  -44.7750 C.3     9  ILE9        0.0019
      8  CD1      -93.6050   12.9360  -46.7260 C.3     9  ILE9        0.0001
      9  N        -88.7930    6.7210  -41.9080 N.3    12  GLY12      -0.1225
     10  CA       -88.8310    5.5970  -42.8220 C.3    12  GLY12       0.1811
     11  C        -87.8680    4.5110  -42.4050 C.2    12  GLY12       0.2280
     12  O        -87.0950    4.6790  -41.4610 O.2    12  GLY12      -0.2866
     13  N        -88.2790   10.8400  -43.7260 N.3    17  VAL17      -0.1245
     14  CA       -88.9070   11.3510  -44.9470 C.3    17  VAL17       0.1561
     15  C        -89.5140   12.7230  -44.6950 C.2    17  VAL17       0.2260
     16  O        -90.1950   12.9280  -43.6990 O.2    17  VAL17      -0.2867
     17  CB       -89.9700   10.3820  -45.4870 C.3    17  VAL17       0.0252
     18  CG1      -90.4850   10.8400  -46.8660 C.3    17  VAL17       0.0019
     19  CG2      -89.3950    8.9810  -45.5730 C.3    17  VAL17       0.0019
     20  N        -91.3740   14.2760  -52.0150 N.3    30  ALA30      -0.1245
     21  CA       -91.0140   13.5760  -50.7880 C.3    30  ALA30       0.1562
     22  C        -89.5020   13.3680  -50.8100 C.2    30  ALA30       0.2260
     23  O        -88.9700   12.8200  -51.7630 O.2    30  ALA30      -0.2867
     24  CB       -91.7140   12.2400  -50.7090 C.3    30  ALA30       0.0290
     25  N        -86.2890   11.6910  -48.9730 N.3    32  LYS32      -0.1245
     26  CA       -85.8290   10.7100  -48.0120 C.3    32  LYS32       0.1561
     27  C        -84.3120   10.8420  -47.8280 C.2    32  LYS32       0.2260
     28  O        -83.5560   10.7940  -48.8000 O.2    32  LYS32      -0.2867
     29  CB       -86.2030    9.3030  -48.4670 C.3    32  LYS32       0.0271
     30  CG       -85.8710    8.2030  -47.4670 C.3    32  LYS32       0.0035
     31  CD       -85.9670    6.8440  -48.1380 C.3    32  LYS32       0.0206
     32  CE       -87.1480    6.0150  -47.6250 C.3    32  LYS32       0.1093
     33  NZ       -86.8710    5.3210  -46.3250 N.3    32  LYS32      -0.1314
     34  N        -94.2180    4.5020  -57.1070 N.3    59  VAL59      -0.1245
     35  CA       -93.8770    5.9030  -56.7920 C.3    59  VAL59       0.1561
     36  C        -92.6010    6.2890  -57.5470 C.2    59  VAL59       0.2260
     37  O        -91.5840    5.6110  -57.4450 O.2    59  VAL59      -0.2867
     38  CB       -93.7040    6.1340  -55.2590 C.3    59  VAL59       0.0252
     39  CG1      -93.2650    7.5620  -54.9620 C.3    59  VAL59       0.0019
     40  CG2      -95.0240    5.8720  -54.5400 C.3    59  VAL59       0.0019
     41  N        -88.5900   11.7470  -54.2950 N.3    75  PHE75      -0.1227
     42  CA       -89.6920   10.9640  -54.8490 C.3    75  PHE75       0.1736
     43  C        -90.8500   11.8660  -55.1280 C.2    75  PHE75       0.2595
     44  O        -90.9950   12.9100  -54.5060 O.2    75  PHE75      -0.2718
     45  CB       -90.1960    9.9260  -53.8370 C.3    75  PHE75       0.0547
     46  CG       -89.2280    8.8490  -53.5470 C.ar   75  PHE75      -0.0202
     47  CD1      -89.0640    7.7980  -54.4310 C.ar   75  PHE75      -0.0042
     48  CD2      -88.4910    8.8690  -52.3790 C.ar   75  PHE75      -0.0042
     49  CE1      -88.1650    6.7770  -54.1530 C.ar   75  PHE75      -0.0003
     50  CE2      -87.5920    7.8530  -52.0940 C.ar   75  PHE75      -0.0003
     51  CZ       -87.4290    6.8050  -52.9840 C.ar   75  PHE75      -0.0000
     52  N        -91.6890   11.4380  -56.0570 N.am   76  GLU76      -0.1965
     53  CA       -92.9760   12.0940  -56.2660 C.3    76  GLU76       0.1733
     54  C        -93.7580   12.0220  -54.9530 C.2    76  GLU76       0.2616
     55  O        -93.6550   11.0370  -54.2210 O.2    76  GLU76      -0.2715
     56  CB       -93.7340   11.4150  -57.4170 C.3    76  GLU76       0.0429
     57  CG       -94.6980   10.3280  -57.0070 C.3    76  GLU76       0.1163
     58  CD       -95.5100    9.7470  -58.1590 C.2    76  GLU76       0.3649
     59  OE1      -96.5720   10.3030  -58.5030 O.co2  76  GLU76      -0.2457
     60  OE2      -95.1100    8.6960  -58.6990 O.co2  76  GLU76      -0.2457
     61  N        -94.5150   13.0720  -54.6430 N.am   77  PHE77      -0.1960
     62  CA       -95.2520   13.1450  -53.3820 C.3    77  PHE77       0.1771
     63  C        -96.6900   12.6550  -53.5360 C.2    77  PHE77       0.2619
     64  O        -97.3680   13.0710  -54.4710 O.2    77  PHE77      -0.2715
     65  CB       -95.3060   14.5940  -52.8820 C.3    77  PHE77       0.0574
     66  CG       -96.0520   14.7610  -51.5870 C.ar   77  PHE77      -0.0200
     67  CD1      -97.3580   15.2410  -51.5670 C.ar   77  PHE77      -0.0042
     68  CD2      -95.4420   14.4330  -50.3810 C.ar   77  PHE77      -0.0042
     69  CE1      -98.0260   15.3890  -50.3740 C.ar   77  PHE77      -0.0003
     70  CE2      -96.1130   14.5840  -49.1880 C.ar   77  PHE77      -0.0003
     71  CZ       -97.4090   15.0460  -49.1850 C.ar   77  PHE77      -0.0000
     72  N        -97.1370   11.7770  -52.6310 N.am   78  LEU78      -0.1963
     73  CA       -98.5640   11.4330  -52.5020 C.3    78  LEU78       0.1728
     74  C        -99.0460   11.7480  -51.1010 C.2    78  LEU78       0.2616
     75  O        -98.2980   11.6440  -50.1430 O.2    78  LEU78      -0.2715
     76  CB       -98.8530    9.9600  -52.8750 C.3    78  LEU78       0.0311
     77  CG       -98.9150    9.5750  -54.3490 C.3    78  LEU78       0.0022
     78  CD1      -97.5170    9.3460  -54.8770 C.3    78  LEU78       0.0001
     79  CD2      -99.7650    8.3000  -54.5820 C.3    78  LEU78       0.0001
     80  N       -100.3070   12.1420  -50.9720 N.am   79  HIS79      -0.1959
     81  CA      -100.7900   12.6990  -49.7130 C.3    79  HIS79       0.1787
     82  C       -101.1300   11.7170  -48.6060 C.2    79  HIS79       0.2620
     83  O       -101.2090   12.1100  -47.4380 O.2    79  HIS79      -0.2715
     84  CB      -102.0160   13.5800  -49.9600 C.3    79  HIS79       0.0785
     85  CG      -101.6980   14.8660  -50.6580 C.ar   79  HIS79       0.0821
     86  ND1     -101.5590   16.0660  -49.9870 N.ar   79  HIS79      -0.2267
     87  CD2     -101.4890   15.1350  -51.9670 C.ar   79  HIS79       0.1154
     88  CE1     -101.2840   17.0210  -50.8580 C.ar   79  HIS79       0.1986
     89  NE2     -101.2290   16.4830  -52.0640 N.ar   79  HIS79      -0.2212
     90  N       -101.3630   10.4500  -48.9380 N.am   80  GLN80      -0.1977
     91  CA      -101.8230    9.5630  -47.8710 C.3    80  GLN80       0.1601
     92  C       -101.2730    8.1680  -48.0950 C.2    80  GLN80       0.2287
     93  O       -100.9930    7.8020  -49.2210 O.2    80  GLN80      -0.2864
     94  CB      -103.3500    9.5310  -47.8450 C.3    80  GLN80       0.0394
     95  CG      -103.9320    8.8420  -46.5810 C.3    80  GLN80       0.0908
     96  CD      -105.2710    9.4190  -46.1830 C.2    80  GLN80       0.2608
     97  OE1     -105.3710   10.5860  -45.7850 O.2    80  GLN80      -0.2717
     98  NE2     -106.3190    8.6220  -46.3160 N.am   80  GLN80      -0.0878
     99  N        -97.7990    1.0740  -44.7240 N.3   126  GLN126     -0.1231
    100  CA       -97.1430    2.3770  -44.6430 C.3   126  GLN126      0.1698
    101  C        -96.4160    2.7830  -45.9060 C.2   126  GLN126      0.2592
    102  O        -96.2600    3.9810  -46.1670 O.2   126  GLN126     -0.2718
    103  CB       -96.1650    2.4270  -43.4700 C.3   126  GLN126      0.0381
    104  CG       -96.8150    2.5120  -42.1080 C.3   126  GLN126      0.0905
    105  CD       -95.9000    1.9830  -41.0170 C.2   126  GLN126      0.2608
    106  OE1      -95.5330    0.8080  -41.0180 O.2   126  GLN126     -0.2717
    107  NE2      -95.5100    2.8540  -40.0930 N.am  126  GLN126     -0.0878
    108  N        -95.9260    1.8150  -46.6780 N.am  127  ASN127     -0.1974
    109  CA       -95.2840    2.1510  -47.9460 C.3   127  ASN127      0.1688
    110  C        -96.1380    2.0820  -49.2110 C.2   127  ASN127      0.2292
    111  O        -95.6160    2.1200  -50.3260 O.2   127  ASN127     -0.2864
    112  CB       -93.8440    1.6400  -48.1090 C.3   127  ASN127      0.1181
    113  CG       -93.7250    0.1700  -48.0000 C.2   127  ASN127      0.2629
    114  OD1      -94.5780   -0.5690  -48.4900 O.2   127  ASN127     -0.2716
    115  ND2      -92.6390   -0.2850  -47.3700 N.am  127  ASN127     -0.0877
    116  N        -98.8780    4.0970  -51.1210 N.3   129  LEU129     -0.1245
    117  CA       -99.3470    5.4890  -51.1390 C.3   129  LEU129      0.1561
    118  C       -100.5610    5.6360  -52.0520 C.2   129  LEU129      0.2260
    119  O       -100.6100    5.0390  -53.1200 O.2   129  LEU129     -0.2867
    120  CB       -98.2500    6.4020  -51.6740 C.3   129  LEU129      0.0270
    121  CG       -97.0320    6.3640  -50.7570 C.3   129  LEU129      0.0019
    122  CD1      -95.9630    7.3150  -51.2700 C.3   129  LEU129      0.0001
    123  CD2      -97.4780    6.7140  -49.3280 C.3   129  LEU129      0.0001
    124  N        -94.0240    2.2440  -52.7730 N.3   139  ALA139     -0.1231
    125  CA       -92.9450    3.1590  -52.3960 C.3   139  ALA139      0.1694
    126  C        -91.8830    2.4400  -51.5850 C.2   139  ALA139      0.2592
    127  O        -92.0830    1.3070  -51.1260 O.2   139  ALA139     -0.2718
    128  CB       -93.4940    4.2920  -51.5410 C.3   139  ALA139      0.0304
    129  N        -90.7520    3.1250  -51.4270 N.am  140  ASP140     -0.1974
    130  CA       -89.7910    2.8510  -50.3560 C.3   140  ASP140      0.1709
    131  C        -89.4210    1.4160  -50.4360 C.2   140  ASP140      0.2293
    132  O        -89.6830    0.6380  -49.5170 O.2   140  ASP140     -0.2864
    133  CB       -90.4110    3.1190  -48.9860 C.3   140  ASP140      0.1436
    134  CG       -89.4470    2.8650  -47.8440 C.2   140  ASP140      0.3671
    135  OD1      -88.2750    3.2700  -47.9680 O.co2 140  ASP140     -0.2456
    136  OD2      -89.8610    2.2540  -46.8250 O.co2 140  ASP140     -0.2456
@<TRIPOS>BOND
     1    60    58   ar
     2    59    58   ar
     3    58    57    1
     4    36    37    2
     5    36    35    1
     6    56    57    1
     7    56    53    1
     8    34    35    1
     9    35    38    1
    10    53    52    1
    11    53    54    1
    12    52    43   am
    13    38    39    1
    14    38    40    1
    15    43    42    1
    16    43    44    2
    17    54    61   am
    18    54    55    2
    19    78    77    1
    20    42    41    1
    21    42    45    1
    22    61    62    1
    23    79    77    1
    24    64    63    2
    25    47    49   ar
    26    47    46   ar
    27    77    76    1
    28    49    51   ar
    29    45    46    1
    30    46    48   ar
    31    63    62    1
    32    63    72   am
    33    62    65    1
    34   119   118    2
    35    51    50   ar
    36    65    66    1
    37    76    73    1
    38   124   125    1
    39    72    73    1
    40    73    74    1
    41   125   126    1
    42   125   128    1
    43    48    50   ar
    44    89    87   ar
    45    89    88   ar
    46   118   117    1
    47    20    21    1
    48    87    85   ar
    49    23    22    2
    50   120   117    1
    51   120   121    1
    52    66    67   ar
    53    66    68   ar
    54   126   129   am
    55   126   127    2
    56    67    69   ar
    57   129   130    1
    58   122   121    1
    59   117   116    1
    60    74    80   am
    61    74    75    2
    62    80    81    1
    63    88    86   ar
    64    22    21    1
    65    21    24    1
    66   121   123    1
    67    85    86   ar
    68    85    84    1
    69   131   130    1
    70   131   132    2
    71    68    70   ar
    72    69    71   ar
    73   130   133    1
    74   111   110    2
    75    84    81    1
    76    81    82    1
    77    93    92    2
    78   110   109    1
    79    70    71   ar
    80   133   134    1
    81    25    26    1
    82    90    82   am
    83    90    91    1
    84    28    27    2
    85    82    83    2
    86   114   113    2
    87    29    26    1
    88    29    30    1
    89    31    32    1
    90    31    30    1
    91   112   113    1
    92   112   109    1
    93    92    91    1
    94    26    27    1
    95   113   115   am
    96   135   134   ar
    97   109   108    1
    98    91    94    1
    99    94    95    1
   100   134   136   ar
   101    32    33    1
   102    18    17    1
   103     8     6    1
   104   108   101   am
   105    95    96    1
   106    98    96   am
   107    96    97    2
   108   102   101    2
   109   101   100    1
   110    19    17    1
   111    17    14    1
   112     6     5    1
   113    14    15    1
   114    14    13    1
   115     7     5    1
   116    99   100    1
   117    15    16    2
   118   100   103    1
   119     5     2    1
   120   103   104    1
   121     2     1    1
   122     2     3    1
   123    10    11    1
   124    10     9    1
   125     4     3    2
   126    11    12    2
   127   104   105    1
   128   106   105    2
   129   105   107   am
