@<TRIPOS>MOLECULE
tmp/3tizA00.pdb
 149 142 0 0 0
SMALL
GASTEIGER

@<TRIPOS>ATOM
      1  N        -93.8760  -13.2830  -78.9820 N.3     9  ILE9       -0.1245
      2  CA       -92.8450  -12.3480  -79.3960 C.3     9  ILE9        0.1561
      3  C        -92.8060  -11.1140  -78.5030 C.2     9  ILE9        0.2260
      4  O        -91.7400  -10.5610  -78.2560 O.2     9  ILE9       -0.2867
      5  CB       -93.0270  -11.9270  -80.8670 C.3     9  ILE9        0.0252
      6  CG1      -92.5810  -13.0610  -81.7930 C.3     9  ILE9        0.0019
      7  CG2      -92.2480  -10.6530  -81.1600 C.3     9  ILE9        0.0019
      8  CD1      -92.5870  -12.6840  -83.2580 C.3     9  ILE9        0.0001
      9  N        -98.2030  -10.1270  -79.9110 N.3    17  VAL17      -0.1245
     10  CA       -97.6180  -10.7760  -81.0830 C.3    17  VAL17       0.1561
     11  C        -97.1440  -12.1950  -80.7700 C.2    17  VAL17       0.2260
     12  O        -96.6840  -12.4750  -79.6680 O.2    17  VAL17      -0.2867
     13  CB       -96.4300   -9.9630  -81.6150 C.3    17  VAL17       0.0252
     14  CG1      -96.0470  -10.4300  -83.0100 C.3    17  VAL17       0.0019
     15  CG2      -96.7710   -8.4860  -81.6270 C.3    17  VAL17       0.0019
     16  N        -95.2990  -14.0000  -88.1040 N.3    30  ALA30      -0.1245
     17  CA       -95.6320  -13.2960  -86.8740 C.3    30  ALA30       0.1562
     18  C        -97.1370  -13.0760  -86.8580 C.2    30  ALA30       0.2260
     19  O        -97.7150  -12.6250  -87.8420 O.2    30  ALA30      -0.2867
     20  CB       -94.8930  -11.9720  -86.7850 C.3    30  ALA30       0.0290
     21  N       -100.3190  -11.3480  -84.9790 N.3    32  LYS32      -0.1245
     22  CA      -100.7060  -10.2970  -84.0420 C.3    32  LYS32       0.1561
     23  C       -102.2000  -10.3640  -83.7570 C.2    32  LYS32       0.2260
     24  O       -103.0150  -10.2800  -84.6760 O.2    32  LYS32      -0.2867
     25  CB      -100.3230   -8.9200  -84.5890 C.3    32  LYS32       0.0271
     26  CG      -100.5090   -7.7720  -83.6110 C.3    32  LYS32       0.0035
     27  CD      -100.0000   -6.4650  -84.2200 C.3    32  LYS32       0.0206
     28  CE       -99.3560   -5.5420  -83.1780 C.3    32  LYS32       0.1093
     29  NZ      -100.3430   -4.8810  -82.2800 N.3    32  LYS32      -0.1314
     30  N        -92.4340   -4.4400  -93.3290 N.3    59  VAL59      -0.1245
     31  CA       -92.7700   -5.8280  -93.0080 C.3    59  VAL59       0.1561
     32  C        -94.0740   -6.1810  -93.7400 C.2    59  VAL59       0.2260
     33  O        -95.0710   -5.4700  -93.6280 O.2    59  VAL59      -0.2867
     34  CB       -92.9210   -6.0490  -91.4800 C.3    59  VAL59       0.0252
     35  CG1      -93.3610   -7.4760  -91.1740 C.3    59  VAL59       0.0019
     36  CG2      -91.6140   -5.7500  -90.7620 C.3    59  VAL59       0.0019
     37  N        -98.0870  -11.5180  -90.3230 N.3    75  PHE75      -0.1227
     38  CA       -96.9510  -10.7760  -90.8600 C.3    75  PHE75       0.1736
     39  C        -95.7980  -11.7040  -91.2030 C.2    75  PHE75       0.2595
     40  O        -95.6100  -12.7190  -90.5470 O.2    75  PHE75      -0.2718
     41  CB       -96.4230   -9.7950  -89.8070 C.3    75  PHE75       0.0547
     42  CG       -97.3080   -8.6190  -89.5520 C.ar   75  PHE75      -0.0202
     43  CD1      -97.3110   -7.5380  -90.4210 C.ar   75  PHE75      -0.0042
     44  CD2      -98.0970   -8.5670  -88.4200 C.ar   75  PHE75      -0.0042
     45  CE1      -98.1110   -6.4320  -90.1740 C.ar   75  PHE75      -0.0003
     46  CE2      -98.8980   -7.4640  -88.1630 C.ar   75  PHE75      -0.0003
     47  CZ       -98.9090   -6.3970  -89.0410 C.ar   75  PHE75      -0.0000
     48  N        -94.9950  -11.3410  -92.2000 N.am   76  GLU76      -0.1965
     49  CA       -93.7190  -12.0300  -92.3740 C.3    76  GLU76       0.1733
     50  C        -92.9410  -11.8760  -91.0740 C.2    76  GLU76       0.2616
     51  O        -93.0280  -10.8460  -90.3910 O.2    76  GLU76      -0.2715
     52  CB       -92.9050  -11.4410  -93.5280 C.3    76  GLU76       0.0429
     53  CG       -92.4770  -10.0080  -93.3060 C.3    76  GLU76       0.1163
     54  CD       -91.4330   -9.5370  -94.3190 C.2    76  GLU76       0.3649
     55  OE1      -90.3880  -10.2070  -94.4580 O.co2  76  GLU76      -0.2457
     56  OE2      -91.6530   -8.4990  -94.9810 O.co2  76  GLU76      -0.2457
     57  N        -92.1920  -12.9090  -90.7340 N.am   77  PHE77      -0.1960
     58  CA       -91.4710  -12.9580  -89.4770 C.3    77  PHE77       0.1771
     59  C        -90.0230  -12.5220  -89.6810 C.2    77  PHE77       0.2619
     60  O        -89.3590  -12.9420  -90.6380 O.2    77  PHE77      -0.2715
     61  CB       -91.5280  -14.3760  -88.9030 C.3    77  PHE77       0.0574
     62  CG       -90.7160  -14.5650  -87.6590 C.ar   77  PHE77      -0.0200
     63  CD1      -89.4070  -15.0150  -87.7340 C.ar   77  PHE77      -0.0042
     64  CD2      -91.2610  -14.3010  -86.4130 C.ar   77  PHE77      -0.0042
     65  CE1      -88.6630  -15.1820  -86.5950 C.ar   77  PHE77      -0.0003
     66  CE2      -90.5200  -14.4740  -85.2660 C.ar   77  PHE77      -0.0003
     67  CZ       -89.2210  -14.9050  -85.3530 C.ar   77  PHE77      -0.0000
     68  N        -89.5520  -11.6520  -88.7940 N.am   78  LEU78      -0.1963
     69  CA       -88.1350  -11.3200  -88.7400 C.3    78  LEU78       0.1728
     70  C        -87.6210  -11.6450  -87.3560 C.2    78  LEU78       0.2616
     71  O        -88.3740  -11.6130  -86.3820 O.2    78  LEU78      -0.2715
     72  CB       -87.8710   -9.8590  -89.1200 C.3    78  LEU78       0.0311
     73  CG       -87.9010   -9.5180  -90.6170 C.3    78  LEU78       0.0022
     74  CD1      -89.3020   -9.1490  -91.0700 C.3    78  LEU78       0.0001
     75  CD2      -86.9450   -8.3660  -90.9290 C.3    78  LEU78       0.0001
     76  N        -86.3380  -11.9570  -87.2650 N.am   79  HIS79      -0.1959
     77  CA       -85.8050  -12.5630  -86.0530 C.3    79  HIS79       0.1787
     78  C        -85.4820  -11.6300  -84.9070 C.2    79  HIS79       0.2620
     79  O        -85.3970  -12.0780  -83.7590 O.2    79  HIS79      -0.2715
     80  CB       -84.5670  -13.3900  -86.3710 C.3    79  HIS79       0.0785
     81  CG       -84.8650  -14.8250  -86.6590 C.ar   79  HIS79       0.0821
     82  ND1      -84.8790  -15.7920  -85.6730 N.ar   79  HIS79      -0.2267
     83  CD2      -85.1650  -15.4610  -87.8170 C.ar   79  HIS79       0.1154
     84  CE1      -85.1690  -16.9620  -86.2150 C.ar   79  HIS79       0.1986
     85  NE2      -85.3480  -16.7890  -87.5130 N.ar   79  HIS79      -0.2212
     86  N        -85.2800  -10.3460  -85.1940 N.am   80  GLN80      -0.1963
     87  CA       -84.8910   -9.4390  -84.1220 C.3    80  GLN80       0.1733
     88  C        -85.4610   -8.0540  -84.3230 C.2    80  GLN80       0.2616
     89  O        -85.7050   -7.6310  -85.4470 O.2    80  GLN80      -0.2715
     90  CB       -83.3670   -9.3660  -84.0000 C.3    80  GLN80       0.0408
     91  CG       -82.8880   -8.7000  -82.7180 C.3    80  GLN80       0.0908
     92  CD       -81.5020   -9.1690  -82.3300 C.2    80  GLN80       0.2608
     93  OE1      -80.5590   -8.3810  -82.2700 O.2    80  GLN80      -0.2717
     94  NE2      -81.3660  -10.4710  -82.0880 N.am   80  GLN80      -0.0878
     95  N        -85.6420   -7.3360  -83.2240 N.am   81  ASP81      -0.1971
     96  CA       -86.1130   -5.9640  -83.3190 C.3    81  ASP81       0.1709
     97  C        -85.0090   -5.0120  -82.8810 C.2    81  ASP81       0.2293
     98  O        -84.0410   -5.4260  -82.2500 O.2    81  ASP81      -0.2864
     99  CB       -87.4300   -5.7520  -82.5670 C.3    81  ASP81       0.1436
    100  CG       -87.2710   -5.8040  -81.0640 C.2    81  ASP81       0.3671
    101  OD1      -86.2230   -5.3940  -80.5310 O.co2  81  ASP81      -0.2456
    102  OD2      -88.2220   -6.2260  -80.4060 O.co2  81  ASP81      -0.2456
    103  N        -83.9970   -4.8150  -79.0270 N.3    84  LYS84      -0.1245
    104  CA       -83.0860   -5.8670  -78.5760 C.3    84  LYS84       0.1561
    105  C        -81.6750   -5.6730  -79.1180 C.2    84  LYS84       0.2260
    106  O        -80.6990   -5.8560  -78.4010 O.2    84  LYS84      -0.2867
    107  CB       -83.6100   -7.2570  -78.9580 C.3    84  LYS84       0.0271
    108  CG       -84.8610   -7.6380  -78.2150 C.3    84  LYS84       0.0035
    109  CD       -85.1860   -9.1190  -78.3680 C.3    84  LYS84       0.0206
    110  CE       -86.6280   -9.3780  -77.9680 C.3    84  LYS84       0.1093
    111  NZ       -87.5600   -8.5870  -78.8190 N.3    84  LYS84      -0.1314
    112  N        -89.1610   -1.1440  -80.8940 N.3   126  GLN126     -0.1231
    113  CA       -89.8810   -2.4190  -80.9230 C.3   126  GLN126      0.1698
    114  C        -90.4860   -2.7520  -82.2790 C.2   126  GLN126      0.2592
    115  O        -90.5850   -3.9150  -82.6280 O.2   126  GLN126     -0.2718
    116  CB       -91.0180   -2.4160  -79.9010 C.3   126  GLN126      0.0381
    117  CG       -90.6840   -2.9940  -78.5540 C.3   126  GLN126      0.0905
    118  CD       -91.9480   -3.2910  -77.7500 C.2   126  GLN126      0.2608
    119  OE1      -93.0040   -2.6860  -77.9700 O.2   126  GLN126     -0.2717
    120  NE2      -91.8500   -4.2390  -76.8300 N.am  126  GLN126     -0.0878
    121  N        -90.9740   -1.7580  -83.0240 N.am  127  ASN127     -0.1974
    122  CA       -91.5680   -2.0750  -84.3350 C.3   127  ASN127      0.1688
    123  C        -90.6800   -1.9410  -85.5750 C.2   127  ASN127      0.2292
    124  O        -91.1700   -1.8920  -86.7070 O.2   127  ASN127     -0.2864
    125  CB       -93.0150   -1.5870  -84.5230 C.3   127  ASN127      0.1181
    126  CG       -93.1890   -0.1530  -84.1950 C.2   127  ASN127      0.2629
    127  OD1      -92.3590    0.6700  -84.5570 O.2   127  ASN127     -0.2716
    128  ND2      -94.2730    0.1690  -83.5020 N.am  127  ASN127     -0.0877
    129  N        -87.8170   -3.9720  -87.3680 N.3   129  LEU129     -0.1245
    130  CA       -87.3260   -5.3520  -87.3580 C.3   129  LEU129      0.1561
    131  C        -86.1280   -5.5300  -88.2830 C.2   129  LEU129      0.2260
    132  O        -86.0810   -4.9510  -89.3690 O.2   129  LEU129     -0.2867
    133  CB       -88.4370   -6.3050  -87.7800 C.3   129  LEU129      0.0270
    134  CG       -89.7010   -6.1250  -86.9420 C.3   129  LEU129      0.0019
    135  CD1      -90.8260   -6.9400  -87.5250 C.3   129  LEU129      0.0001
    136  CD2      -89.4370   -6.5000  -85.4840 C.3   129  LEU129      0.0001
    137  N        -92.7470   -2.0960  -89.1290 N.3   139  ALA139     -0.1231
    138  CA       -93.9260   -2.9180  -88.9070 C.3   139  ALA139      0.1694
    139  C        -95.0250   -2.1380  -88.1920 C.2   139  ALA139      0.2592
    140  O        -94.7370   -1.2300  -87.4120 O.2   139  ALA139     -0.2718
    141  CB       -93.5530   -4.1380  -88.0950 C.3   139  ALA139      0.0304
    142  N        -96.2700   -2.5590  -88.4110 N.am  140  ASP140     -0.1974
    143  CA       -97.4660   -1.9370  -87.8300 C.3   140  ASP140      0.1709
    144  C        -97.8530   -0.5760  -88.3850 C.2   140  ASP140      0.2293
    145  O        -98.4450    0.2220  -87.6800 O.2   140  ASP140     -0.2864
    146  CB       -97.3110   -1.8100  -86.3130 C.3   140  ASP140      0.1436
    147  CG       -97.2840   -3.1540  -85.6200 C.2   140  ASP140      0.3671
    148  OD1      -97.1480   -3.1790  -84.3730 O.co2 140  ASP140     -0.2456
    149  OD2      -97.4150   -4.1780  -86.3280 O.co2 140  ASP140     -0.2456
@<TRIPOS>BOND
     1    56    54   ar
     2    55    54   ar
     3    54    53    1
     4    32    33    2
     5    32    31    1
     6    52    53    1
     7    52    49    1
     8    30    31    1
     9    31    34    1
    10    49    48    1
    11    49    50    1
    12    48    39   am
    13    34    35    1
    14    34    36    1
    15    39    38    1
    16    39    40    2
    17    50    57   am
    18    50    51    2
    19    74    73    1
    20    75    73    1
    21    38    37    1
    22    38    41    1
    23    57    58    1
    24    60    59    2
    25    73    72    1
    26    43    45   ar
    27    43    42   ar
    28    45    47   ar
    29    41    42    1
    30    59    58    1
    31    59    68   am
    32    42    44   ar
    33    58    61    1
    34   132   131    2
    35   137   138    1
    36    72    69    1
    37    47    46   ar
    38   138   139    1
    39   138   141    1
    40    61    62    1
    41    68    69    1
    42    69    70    1
    43    44    46   ar
    44   142   139   am
    45   142   143    1
    46   144   143    1
    47   144   145    2
    48   131   130    1
    49   139   140    2
    50    16    17    1
    51    19    18    2
    52   143   146    1
    53    83    85   ar
    54    83    81   ar
    55   133   130    1
    56   133   134    1
    57    63    62   ar
    58    63    65   ar
    59    62    64   ar
    60   135   134    1
    61    85    84   ar
    62   129   130    1
    63    70    76   am
    64    70    71    2
    65    76    77    1
    66   134   136    1
    67    17    18    1
    68    17    20    1
    69   124   123    2
    70    81    80    1
    71    81    82   ar
    72    65    67   ar
    73    64    66   ar
    74    80    77    1
    75   149   147   ar
    76   146   147    1
    77    84    82   ar
    78    77    78    1
    79   147   148   ar
    80   123   122    1
    81    89    88    2
    82    67    66   ar
    83    86    78   am
    84    86    87    1
    85    21    22    1
    86    78    79    2
    87    24    23    2
    88    25    22    1
    89    25    26    1
    90   127   126    2
    91   125   122    1
    92   125   126    1
    93   122   121    1
    94    88    87    1
    95    88    95   am
    96    27    26    1
    97    27    28    1
    98   126   128   am
    99    87    90    1
   100    22    23    1
   101    90    91    1
   102    96    95    1
   103    96    97    1
   104    96    99    1
   105     8     6    1
   106    28    29    1
   107   121   114   am
   108    14    13    1
   109    97    98    2
   110    91    92    1
   111   115   114    2
   112    99   100    1
   113    92    93    2
   114    92    94   am
   115   114   113    1
   116     6     5    1
   117    15    13    1
   118    13    10    1
   119     7     5    1
   120    10    11    1
   121    10     9    1
   122   100   101   ar
   123   100   102   ar
   124   113   112    1
   125   113   116    1
   126     5     2    1
   127    11    12    2
   128   116   117    1
   129     2     1    1
   130     2     3    1
   131   105   104    1
   132   105   106    2
   133   103   104    1
   134   107   104    1
   135   107   108    1
   136   111   110    1
   137   117   118    1
   138     3     4    2
   139   109   108    1
   140   109   110    1
   141   119   118    2
   142   118   120   am
