@<TRIPOS>MOLECULE
tmp/3tj2B00.pdb
 150 143 0 0 0
SMALL
GASTEIGER

@<TRIPOS>ATOM
      1  N         19.1350   13.0820   11.1610 N.3     2  ILE2       -0.1245
      2  CA        18.6870   14.4740   11.2600 C.3     2  ILE2        0.1561
      3  C         18.3520   14.7720   12.7300 C.2     2  ILE2        0.2260
      4  O         17.9900   13.8580   13.4720 O.2     2  ILE2       -0.2867
      5  CB        17.5080   14.8050   10.2920 C.3     2  ILE2        0.0252
      6  CG1       16.1520   14.4630   10.9110 C.3     2  ILE2        0.0019
      7  CG2       17.6990   14.1230    8.9140 C.3     2  ILE2        0.0019
      8  CD1       15.1240   15.4660   10.5570 C.3     2  ILE2        0.0001
      9  N         12.6510   16.4860   13.4440 N.3     7  GLN7       -0.1245
     10  CA        11.7010   15.4330   13.1370 C.3     7  GLN7        0.1566
     11  C         10.2610   15.6930   13.6640 C.2     7  GLN7        0.2260
     12  O          9.2890   15.2800   13.0290 O.2     7  GLN7       -0.2867
     13  CB        12.2530   14.1260   13.6720 C.3     7  GLN7        0.0367
     14  CG        13.6050   13.7980   13.1100 C.3     7  GLN7        0.0905
     15  CD        14.0470   12.3900   13.4090 C.2     7  GLN7        0.2608
     16  OE1       14.9660   12.1670   14.2080 O.2     7  GLN7       -0.2717
     17  NE2       13.4010   11.4170   12.7690 N.am    7  GLN7       -0.0878
     18  N          7.6460   11.0180    6.8890 N.3    37  LEU37      -0.1231
     19  CA         8.6990   10.0830    6.4670 C.3    37  LEU37       0.1693
     20  C          8.1890    8.6660    6.4710 C.2    37  LEU37       0.2592
     21  O          8.5000    7.9020    5.5720 O.2    37  LEU37      -0.2718
     22  CB         9.9460   10.2120    7.3600 C.3    37  LEU37       0.0284
     23  CG        11.0650   11.1790    6.9250 C.3    37  LEU37       0.0019
     24  CD1       11.8720   10.5380    5.7710 C.3    37  LEU37       0.0001
     25  CD2       10.4950   12.5420    6.5290 C.3    37  LEU37       0.0001
     26  N          7.4030    8.3180    7.4890 N.am   38  PHE38      -0.1976
     27  CA         6.8410    6.9600    7.6330 C.3    38  PHE38       0.1639
     28  C          5.9130    6.6040    6.4810 C.2    38  PHE38       0.2290
     29  O          5.9770    5.4900    5.9260 O.2    38  PHE38      -0.2864
     30  CB         6.0510    6.8060    8.9330 C.3    38  PHE38       0.0560
     31  CG         5.2950    5.5010    8.9990 C.ar   38  PHE38      -0.0200
     32  CD1        5.9650    4.3010    9.2420 C.ar   38  PHE38      -0.0042
     33  CD2        3.9300    5.4610    8.7500 C.ar   38  PHE38      -0.0042
     34  CE1        5.2970    3.1330    9.2530 C.ar   38  PHE38      -0.0003
     35  CE2        3.2780    4.2680    8.7490 C.ar   38  PHE38      -0.0003
     36  CZ         3.9530    3.1260    9.0000 C.ar   38  PHE38      -0.0000
     37  N          5.8820    8.2000    3.5510 N.3    40  LEU40      -0.1231
     38  CA         6.6170    8.1720    2.2950 C.3    40  LEU40       0.1693
     39  C          7.3050    6.8140    2.1590 C.2    40  LEU40       0.2592
     40  O          7.3690    6.2650    1.0810 O.2    40  LEU40      -0.2718
     41  CB         7.6000    9.3470    2.1600 C.3    40  LEU40       0.0284
     42  CG         7.0460   10.6910    1.6460 C.3    40  LEU40       0.0019
     43  CD1        8.0690   11.7850    1.7800 C.3    40  LEU40       0.0001
     44  CD2        6.5930   10.6130    0.1840 C.3    40  LEU40       0.0001
     45  N          7.8140    6.2580    3.2480 N.am   41  GLY41      -0.1957
     46  CA         8.3760    4.8890    3.2120 C.3    41  GLY41       0.1869
     47  C          7.2950    3.8710    2.8570 C.2    41  GLY41       0.2309
     48  O          7.4930    3.0070    2.0270 O.2    41  GLY41      -0.2863
     49  N          6.6340    4.1210   -0.8520 N.3    44  ILE44      -0.1231
     50  CA         7.6560    3.4590   -1.6000 C.3    44  ILE44       0.1692
     51  C          7.4210    1.9360   -1.6000 C.2    44  ILE44       0.2591
     52  O          7.6110    1.2950   -2.6270 O.2    44  ILE44      -0.2718
     53  CB         9.0590    3.8290   -1.1370 C.3    44  ILE44       0.0266
     54  CG1        9.3480    5.3070   -1.4490 C.3    44  ILE44       0.0019
     55  CG2       10.0970    2.9440   -1.8460 C.3    44  ILE44       0.0020
     56  CD1       10.6040    5.8730   -0.7370 C.3    44  ILE44       0.0001
     57  N          6.9860    1.3850   -0.4680 N.am   45  MET45      -0.1979
     58  CA         6.6460   -0.0590   -0.3380 C.3    45  MET45       0.1605
     59  C          5.5280   -0.4910   -1.2570 C.2    45  MET45       0.2287
     60  O          5.6250   -1.5310   -1.8900 O.2    45  MET45      -0.2864
     61  CB         6.1990   -0.3970    1.0780 C.3    45  MET45       0.0413
     62  CG         7.2810   -0.4380    2.1060 C.3    45  MET45       0.0598
     63  SD         8.6740   -1.3450    1.4630 S.3    45  MET45      -0.1393
     64  CE         7.8940   -2.9420    1.1320 C.3    45  MET45       0.0692
     65  N         11.5370    0.7640   -4.3830 N.3    50  TYR50      -0.1241
     66  CA        12.8440    0.4260   -3.8280 C.3    50  TYR50       0.1605
     67  C         13.4890   -0.5600   -4.7690 C.2    50  TYR50       0.2264
     68  O         12.7980   -1.3260   -5.4230 O.2    50  TYR50      -0.2867
     69  CB        12.7440   -0.1520   -2.3980 C.3    50  TYR50       0.0534
     70  CG        14.1160   -0.4370   -1.8100 C.ar   50  TYR50      -0.0201
     71  CD1       15.0060    0.5990   -1.5500 C.ar   50  TYR50      -0.0009
     72  CD2       14.5280   -1.7460   -1.5560 C.ar   50  TYR50      -0.0009
     73  CE1       16.2650    0.3480   -1.0360 C.ar   50  TYR50       0.0417
     74  CE2       15.7950   -2.0200   -1.0450 C.ar   50  TYR50       0.0417
     75  CZ        16.6680   -0.9670   -0.7810 C.ar   50  TYR50       0.1957
     76  OH        17.9270   -1.2410   -0.2860 O.3    50  TYR50      -0.2866
     77  N         16.1790    4.2560   -4.3000 N.3    58  VAL58      -0.1245
     78  CA        14.7570    4.2570   -4.7270 C.3    58  VAL58       0.1561
     79  C         14.6950    4.7400   -6.1700 C.2    58  VAL58       0.2260
     80  O         15.2100    5.8060   -6.4710 O.2    58  VAL58      -0.2867
     81  CB        13.8680    5.1960   -3.8970 C.3    58  VAL58       0.0252
     82  CG1       12.5160    5.3950   -4.6030 C.3    58  VAL58       0.0019
     83  CG2       13.6900    4.6910   -2.4650 C.3    58  VAL58       0.0019
     84  N          6.3400   10.3570   -7.0790 N.3    65  LEU65      -0.1245
     85  CA         7.4630   10.6570   -6.1800 C.3    65  LEU65       0.1561
     86  C          8.5920   11.3490   -6.9440 C.2    65  LEU65       0.2260
     87  O          9.1930   12.2990   -6.4550 O.2    65  LEU65      -0.2867
     88  CB         7.9980    9.3870   -5.5230 C.3    65  LEU65       0.0270
     89  CG         9.1600    9.6490   -4.5400 C.3    65  LEU65       0.0019
     90  CD1        8.7990   10.6990   -3.4650 C.3    65  LEU65       0.0001
     91  CD2        9.7110    8.3530   -3.9130 C.3    65  LEU65       0.0001
     92  N         10.0620   14.9550   -6.1100 N.3    69  PHE69      -0.1241
     93  CA        11.4450   15.1000   -5.6810 C.3    69  PHE69       0.1605
     94  C         12.3280   15.7230   -6.7570 C.2    69  PHE69       0.2264
     95  O         13.3500   16.3150   -6.4310 O.2    69  PHE69      -0.2867
     96  CB        12.0290   13.7580   -5.2340 C.3    69  PHE69       0.0534
     97  CG        11.6320   13.3270   -3.8320 C.ar   69  PHE69      -0.0203
     98  CD1       10.5790   13.9380   -3.1180 C.ar   69  PHE69      -0.0042
     99  CD2       12.2790   12.2600   -3.2520 C.ar   69  PHE69      -0.0042
    100  CE1       10.2250   13.5070   -1.8420 C.ar   69  PHE69      -0.0003
    101  CE2       11.9330   11.8260   -1.9790 C.ar   69  PHE69      -0.0003
    102  CZ        10.8990   12.4510   -1.2740 C.ar   69  PHE69      -0.0000
    103  N         17.4020    8.1050   -5.8870 N.3    74  PHE74      -0.1241
    104  CA        18.1110    8.6680   -4.7410 C.3    74  PHE74       0.1605
    105  C         18.4630    7.5830   -3.7360 C.2    74  PHE74       0.2264
    106  O         17.8110    6.5300   -3.7180 O.2    74  PHE74      -0.2867
    107  CB        17.2900    9.7490   -4.0770 C.3    74  PHE74       0.0534
    108  CG        15.9950    9.2770   -3.5140 C.ar   74  PHE74      -0.0203
    109  CD1       15.8660    9.0050   -2.1660 C.ar   74  PHE74      -0.0042
    110  CD2       14.8740    9.1740   -4.3150 C.ar   74  PHE74      -0.0042
    111  CE1       14.6550    8.5940   -1.6320 C.ar   74  PHE74      -0.0003
    112  CE2       13.6590    8.7740   -3.7860 C.ar   74  PHE74      -0.0003
    113  CZ        13.5540    8.4810   -2.4350 C.ar   74  PHE74      -0.0000
    114  N         18.7030    5.9260   -0.0850 N.3    76  VAL76      -0.1245
    115  CA        17.9240    5.9090    1.1310 C.3    76  VAL76       0.1561
    116  C         18.7700    6.2260    2.3540 C.2    76  VAL76       0.2260
    117  O         18.2270    6.4990    3.4100 O.2    76  VAL76      -0.2867
    118  CB        17.2530    4.5470    1.3400 C.3    76  VAL76       0.0252
    119  CG1       16.3930    4.1920    0.1320 C.3    76  VAL76       0.0019
    120  CG2       18.2900    3.4740    1.6190 C.3    76  VAL76       0.0019
    121  N         20.0440   10.9650    4.2710 N.3    79  HIS79      -0.1241
    122  CA        18.8410   11.4650    4.9390 C.3    79  HIS79       0.1621
    123  C         18.6210   12.9520    4.7120 C.2    79  HIS79       0.2264
    124  O         17.4960   13.3740    4.5060 O.2    79  HIS79      -0.2867
    125  CB        18.8830   11.1480    6.4390 C.3    79  HIS79       0.0745
    126  CG        18.6740    9.6950    6.7560 C.ar   79  HIS79       0.0817
    127  ND1       18.2680    9.2550    7.9990 N.ar   79  HIS79      -0.2268
    128  CD2       18.7810    8.5850    5.9850 C.ar   79  HIS79       0.1154
    129  CE1       18.1500    7.9380    7.9840 C.ar   79  HIS79       0.1986
    130  NE2       18.4600    7.5070    6.7770 N.ar   79  HIS79      -0.2212
    131  N         16.9650   13.7740    1.3170 N.3    82  ILE82      -0.1231
    132  CA        15.5320   13.4140    1.4620 C.3    82  ILE82       0.1692
    133  C         14.6920   14.4820    2.1950 C.2    82  ILE82       0.2592
    134  O         13.7090   14.9970    1.6460 O.2    82  ILE82      -0.2718
    135  CB        15.3660   12.0050    2.1480 C.3    82  ILE82       0.0266
    136  CG1       15.7860   10.8870    1.1840 C.3    82  ILE82       0.0019
    137  CG2       13.9390   11.7460    2.5760 C.3    82  ILE82       0.0020
    138  CD1       16.8990   10.0590    1.6300 C.3    82  ILE82       0.0001
    139  N         15.0750   14.8310    3.4170 N.am   83  TYR83      -0.1976
    140  CA        14.4720   15.9900    4.1010 C.3    83  TYR83       0.1639
    141  C         14.3690   17.2540    3.2110 C.2    83  TYR83       0.2290
    142  O         13.3300   17.8720    3.1140 O.2    83  TYR83      -0.2864
    143  CB        15.2290   16.2970    5.4310 C.3    83  TYR83       0.0560
    144  CG        14.5270   15.6710    6.6120 C.ar   83  TYR83      -0.0198
    145  CD1       13.9120   16.4610    7.5700 C.ar   83  TYR83      -0.0009
    146  CD2       14.3760   14.2880    6.7050 C.ar   83  TYR83      -0.0009
    147  CE1       13.2150   15.9080    8.6060 C.ar   83  TYR83       0.0417
    148  CE2       13.7070   13.7280    7.7340 C.ar   83  TYR83       0.0417
    149  CZ        13.1260   14.5430    8.6990 C.ar   83  TYR83       0.1957
    150  OH        12.4430   13.9960    9.7620 O.3    83  TYR83      -0.2866
@<TRIPOS>BOND
     1    84    85    1
     2    86    87    2
     3    86    85    1
     4    94    95    2
     5    94    93    1
     6    80    79    2
     7    85    88    1
     8    79    78    1
     9    92    93    1
    10   103   104    1
    11    93    96    1
    12    88    89    1
    13    68    67    2
    14    96    97    1
    15    67    66    1
    16   104   107    1
    17   104   105    1
    18    78    77    1
    19    78    81    1
    20    82    81    1
    21    89    91    1
    22    89    90    1
    23    65    66    1
    24   110   112   ar
    25   110   108   ar
    26   107   108    1
    27    81    83    1
    28    97    99   ar
    29    97    98   ar
    30    66    69    1
    31   112   113   ar
    32   105   106    2
    33   108   109   ar
    34    99   101   ar
    35    98   100   ar
    36    52    51    2
    37   113   111   ar
    38    69    70    1
    39   109   111   ar
    40   101   102   ar
    41    60    59    2
    42    55    53    1
    43   100   102   ar
    44    70    72   ar
    45    70    71   ar
    46    51    50    1
    47    51    57   am
    48    50    53    1
    49    50    49    1
    50    72    74   ar
    51    71    73   ar
    52    54    53    1
    53    54    56    1
    54    59    58    1
    55    74    75   ar
    56    73    75   ar
    57    75    76    1
    58    57    58    1
    59    58    61    1
    60   114   115    1
    61   119   118    1
    62    44    42    1
    63    61    62    1
    64    40    39    2
    65   115   118    1
    66   115   116    1
    67    64    63    1
    68   136   138    1
    69   136   135    1
    70   131   132    1
    71   118   120    1
    72   132   135    1
    73   132   133    1
    74    63    62    1
    75   134   133    2
    76    42    43    1
    77    42    41    1
    78    48    47    2
    79   135   137    1
    80    39    38    1
    81    39    45   am
    82    41    38    1
    83   133   139   am
    84    38    37    1
    85   116   117    2
    86    47    46    1
    87   142   141    2
    88   141   140    1
    89    46    45    1
    90   139   140    1
    91   140   143    1
    92   121   122    1
    93   124   123    2
    94   123   122    1
    95   122   125    1
    96   143   144    1
    97    21    20    2
    98    24    23    1
    99    29    28    2
   100   128   126   ar
   101   128   130   ar
   102   125   126    1
   103    19    20    1
   104    19    18    1
   105    19    22    1
   106    20    26   am
   107    28    27    1
   108    25    23    1
   109   144   146   ar
   110   144   145   ar
   111   146   148   ar
   112   126   127   ar
   113   130   129   ar
   114    23    22    1
   115    26    27    1
   116   145   147   ar
   117    27    30    1
   118   148   149   ar
   119   129   127   ar
   120   147   149   ar
   121   149   150    1
   122    35    33   ar
   123    35    36   ar
   124    33    31   ar
   125     7     5    1
   126    30    31    1
   127    31    32   ar
   128    36    34   ar
   129    32    34   ar
   130     5     6    1
   131     5     2    1
   132     8     6    1
   133     1     2    1
   134     2     3    1
   135     3     4    2
   136    17    15   am
   137    12    11    2
   138    14    15    1
   139    14    13    1
   140    10     9    1
   141    10    11    1
   142    10    13    1
   143    15    16    2
