@<TRIPOS>MOLECULE
tmp/3tjcA00.pdb
 178 170 0 0 0
SMALL
GASTEIGER

@<TRIPOS>ATOM
      1  N        114.5970   61.3950   14.3700 N.3    13  LEU13      -0.1231
      2  CA       114.1270   62.6830   13.8240 C.3    13  LEU13       0.1693
      3  C        112.9280   62.6150   12.9000 C.2    13  LEU13       0.2593
      4  O        112.0450   63.4860   12.9680 O.2    13  LEU13      -0.2718
      5  CB       115.2720   63.4170   13.1120 C.3    13  LEU13       0.0284
      6  CG       116.4080   63.9440   13.9560 C.3    13  LEU13       0.0019
      7  CD1      117.4530   64.5750   13.0860 C.3    13  LEU13       0.0001
      8  CD2      115.8200   64.9370   14.9360 C.3    13  LEU13       0.0001
      9  N        112.8510   61.5830   12.0740 N.am   14  GLY14      -0.1942
     10  CA       111.7090   61.4720   11.1890 C.3    14  GLY14       0.2014
     11  C        111.7190   60.1700   10.4070 C.2    14  GLY14       0.2639
     12  O        112.6740   59.4050   10.4600 O.2    14  GLY14      -0.2714
     13  N        110.6340   59.9020    9.7000 N.am   15  LYS15      -0.1963
     14  CA       110.5370   58.7110    8.9020 C.3    15  LYS15       0.1728
     15  C        109.7780   59.0670    7.6500 C.2    15  LYS15       0.2617
     16  O        108.6250   59.5270    7.7020 O.2    15  LYS15      -0.2715
     17  CB       109.8470   57.5700    9.6670 C.3    15  LYS15       0.0311
     18  CG       110.8790   56.6040   10.2520 C.3    15  LYS15       0.0038
     19  CD       110.2130   55.2740   10.5280 C.3    15  LYS15       0.0206
     20  CE       111.0870   54.3550   11.3330 C.3    15  LYS15       0.1093
     21  NZ       112.1020   53.7300   10.4820 N.3    15  LYS15      -0.1314
     22  N        110.4620   58.9460    6.5200 N.am   16  GLY16      -0.1940
     23  CA       109.7930   59.1790    5.2590 C.3    16  GLY16       0.2014
     24  C        110.1730   58.2600    4.1200 C.2    16  GLY16       0.2638
     25  O        111.3150   57.6880    4.0400 O.2    16  GLY16      -0.2714
     26  N        109.2280   58.1710    3.1960 N.am   17  ASN17      -0.1972
     27  CA       109.4010   57.3320    2.0430 C.3    17  ASN17       0.1688
     28  C        109.9140   55.9670    2.4540 C.2    17  ASN17       0.2292
     29  O        109.1050   55.0210    2.6370 O.2    17  ASN17      -0.2864
     30  CB       110.3650   57.9720    1.0600 C.3    17  ASN17       0.1181
     31  CG       109.7740   59.1920    0.3870 C.2    17  ASN17       0.2629
     32  OD1      108.6090   59.1710   -0.0520 O.2    17  ASN17      -0.2716
     33  ND2      110.5610   60.2640    0.2860 N.am   17  ASN17      -0.0877
     34  N        113.0840   55.8580    4.5280 N.3    19  GLY19      -0.1225
     35  CA       114.2420   56.1640    5.3030 C.3    19  GLY19       0.1811
     36  C        113.8640   56.6530    6.6670 C.2    19  GLY19       0.2280
     37  O        112.7480   56.9400    7.0060 O.2    19  GLY19      -0.2866
     38  N        115.7860   59.3620    9.6540 N.3    21  VAL21      -0.1245
     39  CA       116.8280   60.3130    9.9070 C.3    21  VAL21       0.1561
     40  C        116.9340   60.2870   11.4180 C.2    21  VAL21       0.2260
     41  O        115.9210   60.3100   12.1320 O.2    21  VAL21      -0.2867
     42  CB       116.4380   61.7130    9.4550 C.3    21  VAL21       0.0252
     43  CG1      117.5840   62.6780    9.8240 C.3    21  VAL21       0.0019
     44  CG2      116.1730   61.7320    7.9760 C.3    21  VAL21       0.0019
     45  N        122.9040   64.9170   11.5260 N.3    38  ALA38      -0.1245
     46  CA       121.6970   64.2010   11.1690 C.3    38  ALA38       0.1562
     47  C        122.1290   63.0630   10.2650 C.2    38  ALA38       0.2260
     48  O        122.8790   63.2640    9.3390 O.2    38  ALA38      -0.2867
     49  CB       120.7450   65.1240   10.4480 C.3    38  ALA38       0.0290
     50  N        120.8290   59.8810    7.8390 N.3    40  LYS40      -0.1245
     51  CA       119.7270   59.2630    7.1160 C.3    40  LYS40       0.1561
     52  C        120.1100   57.8830    6.5810 C.2    40  LYS40       0.2260
     53  O        121.1940   57.6920    6.0430 O.2    40  LYS40      -0.2867
     54  CB       119.2880   60.1590    5.9510 C.3    40  LYS40       0.0271
     55  CG       118.1330   59.5910    5.1490 C.3    40  LYS40       0.0035
     56  CD       117.7120   60.5070    4.0080 C.3    40  LYS40       0.0206
     57  CE       116.4100   60.0330    3.3930 C.3    40  LYS40       0.1093
     58  NZ       115.9740   60.8620    2.2560 N.3    40  LYS40      -0.1314
     59  N        120.0540   71.9330    2.5170 N.3    69  VAL69      -0.1245
     60  CA       120.7510   71.2930    3.6180 C.3    69  VAL69       0.1561
     61  C        122.1450   70.8110    3.1950 C.2    69  VAL69       0.2260
     62  O        122.3250   70.2490    2.1440 O.2    69  VAL69      -0.2867
     63  CB       119.9110   70.1220    4.1880 C.3    69  VAL69       0.0252
     64  CG1      119.8180   68.9860    3.1670 C.3    69  VAL69       0.0019
     65  CG2      120.4970   69.6610    5.5050 C.3    69  VAL69       0.0019
     66  N        124.2880   64.4780    7.1910 N.3    83  MET83      -0.1230
     67  CA       123.9730   65.8590    6.8700 C.3    83  MET83       0.1702
     68  C        124.1300   66.7300    8.0980 C.2    83  MET83       0.2592
     69  O        124.2900   66.2410    9.1990 O.2    83  MET83      -0.2718
     70  CB       122.5460   65.9650    6.3670 C.3    83  MET83       0.0401
     71  CG       122.3120   65.1730    5.1090 C.3    83  MET83       0.0596
     72  SD       120.6000   65.0810    4.6980 S.3    83  MET83      -0.1393
     73  CE       120.0750   63.7660    5.8190 C.3    83  MET83       0.0692
     74  N        124.0950   68.0380    7.8900 N.am   84  GLU84      -0.1966
     75  CA       124.2070   68.9630    9.0030 C.3    84  GLU84       0.1733
     76  C        122.9350   68.8730    9.8210 C.2    84  GLU84       0.2616
     77  O        121.8830   68.5560    9.2880 O.2    84  GLU84      -0.2715
     78  CB       124.3850   70.3910    8.5050 C.3    84  GLU84       0.0429
     79  CG       123.3060   70.8640    7.5620 C.3    84  GLU84       0.1163
     80  CD       123.3860   72.3520    7.2960 C.2    84  GLU84       0.3649
     81  OE1      122.8660   72.8010    6.2660 O.co2  84  GLU84      -0.2457
     82  OE2      123.9610   73.0810    8.1240 O.co2  84  GLU84      -0.2457
     83  N        123.0490   69.1240   11.1160 N.am   85  TYR85      -0.1960
     84  CA       121.8890   69.0900   11.9790 C.3    85  TYR85       0.1771
     85  C        121.3100   70.5040   12.0950 C.2    85  TYR85       0.2619
     86  O        121.9840   71.4300   12.5240 O.2    85  TYR85      -0.2715
     87  CB       122.2700   68.5480   13.3690 C.3    85  TYR85       0.0574
     88  CG       121.1720   68.6220   14.4000 C.ar   85  TYR85      -0.0198
     89  CD1      120.0240   67.8450   14.2920 C.ar   85  TYR85      -0.0009
     90  CD2      121.2730   69.4920   15.4800 C.ar   85  TYR85      -0.0009
     91  CE1      119.0010   67.9400   15.2310 C.ar   85  TYR85       0.0417
     92  CE2      120.2610   69.5880   16.4280 C.ar   85  TYR85       0.0417
     93  CZ       119.1290   68.8140   16.2920 C.ar   85  TYR85       0.1957
     94  OH       118.1260   68.9560   17.2050 O.3    85  TYR85      -0.2866
     95  N        120.0680   70.6740   11.6700 N.am   86  LEU86      -0.1964
     96  CA       119.4210   71.9780   11.7750 C.3    86  LEU86       0.1713
     97  C        118.6080   71.9040   13.0620 C.2    86  LEU86       0.2458
     98  O        117.6360   71.2230   13.1410 O.2    86  LEU86      -0.2730
     99  CB       118.5960   72.2470   10.5160 C.3    86  LEU86       0.0310
    100  CG       119.5280   72.2940    9.2880 C.3    86  LEU86       0.0022
    101  CD1      118.7510   72.5510    8.0220 C.3    86  LEU86       0.0001
    102  CD2      120.5660   73.3840    9.4760 C.3    86  LEU86       0.0001
    103  N        119.0580   72.6380   14.0980 N.am   87  PRO87      -0.2716
    104  CA       118.4280   72.6580   15.4230 C.3    87  PRO87       0.1536
    105  C        116.9590   72.9850   15.5940 C.2    87  PRO87       0.2599
    106  O        116.3440   72.5150   16.5180 O.2    87  PRO87      -0.2715
    107  CB       119.3380   73.5960   16.2130 C.3    87  PRO87       0.0310
    108  CG       119.7210   74.5870   15.1830 C.3    87  PRO87       0.0237
    109  CD       119.9940   73.7730   13.9560 C.3    87  PRO87       0.0939
    110  N        116.3910   73.7820   14.7040 N.am   88  TYR88      -0.1960
    111  CA       114.9820   74.1210   14.8360 C.3    88  TYR88       0.1771
    112  C        114.0390   73.1430   14.1310 C.2    88  TYR88       0.2620
    113  O        112.8120   73.2910   14.1820 O.2    88  TYR88      -0.2715
    114  CB       114.7420   75.5630   14.3860 C.3    88  TYR88       0.0574
    115  CG       115.3280   76.5780   15.3500 C.ar   88  TYR88      -0.0198
    116  CD1      116.6510   77.0010   15.2290 C.ar   88  TYR88      -0.0009
    117  CD2      114.5740   77.0790   16.4160 C.ar   88  TYR88      -0.0009
    118  CE1      117.2190   77.8970   16.1470 C.ar   88  TYR88       0.0417
    119  CE2      115.1290   77.9770   17.3430 C.ar   88  TYR88       0.0417
    120  CZ       116.4500   78.3780   17.2020 C.ar   88  TYR88       0.1957
    121  OH       117.0080   79.2350   18.1180 O.3    88  TYR88      -0.2866
    122  N        114.6130   72.1330   13.4830 N.am   89  GLY89      -0.1940
    123  CA       113.8050   71.1200   12.8230 C.3    89  GLY89       0.2014
    124  C        113.0440   71.5450   11.5880 C.2    89  GLY89       0.2639
    125  O        113.3690   72.5600   10.9720 O.2    89  GLY89      -0.2714
    126  N        112.0260   70.7640   11.2270 N.am   90  SER90      -0.1949
    127  CA       111.2330   71.0710   10.0410 C.3    90  SER90       0.1924
    128  C        110.3740   72.3160   10.2210 C.2    90  SER90       0.2314
    129  O        109.9280   72.6250   11.3050 O.2    90  SER90      -0.2863
    130  CB       110.3370   69.8830    9.6530 C.3    90  SER90       0.2116
    131  OG       109.2320   69.7460   10.5260 O.3    90  SER90      -0.2180
    132  N        108.9720   66.5260   -4.1880 N.3   130  ASP130     -0.1239
    133  CA       108.4050   66.3000   -2.8640 C.3   130  ASP130      0.1674
    134  C        108.4010   67.5630   -2.0110 C.2   130  ASP130      0.2266
    135  O        108.5710   67.4950   -0.8150 O.2   130  ASP130     -0.2867
    136  CB       109.2090   65.1960   -2.1760 C.3   130  ASP130      0.1410
    137  CG       108.4680   64.5540   -1.0290 C.2   130  ASP130      0.3668
    138  OD1      107.2220   64.5000   -1.0430 O.co2 130  ASP130     -0.2456
    139  OD2      109.1430   64.0710   -0.1130 O.co2 130  ASP130     -0.2456
    140  N        107.1780   69.9040    5.5050 N.3   134  ARG134     -0.1182
    141  CA       107.8290   68.9010    6.3230 C.3   134  ARG134      0.1910
    142  C        109.2320   68.6030    5.7730 C.2   134  ARG134      0.2634
    143  O        110.0370   68.0440    6.4760 O.2   134  ARG134     -0.2714
    144  CB       106.9610   67.6220    6.4390 C.2   134  ARG134      0.0007
    145  CG       106.7420   66.8760    5.1980 C.2   134  ARG134      0.0176
    146  CD       105.6210   65.8820    5.1880 C.3   134  ARG134      0.2464
    147  NE       106.0130   65.1610    4.0150 N.pl3 134  ARG134     -0.0815
    148  CZ       105.4500   65.2600    2.8020 C.cat 134  ARG134      0.5349
    149  NH1      104.4230   66.0350    2.5400 N.pl3 134  ARG134      0.1354
    150  NH2      106.0260   64.7160    1.7700 N.pl3 134  ARG134      0.1354
    151  N        109.4990   68.9810    4.5240 N.am  135  ASN135     -0.1972
    152  CA       110.8080   68.7430    3.9340 C.3   135  ASN135      0.1688
    153  C        111.6690   69.9940    3.9570 C.2   135  ASN135      0.2292
    154  O        112.7500   70.0170    3.3880 O.2   135  ASN135     -0.2864
    155  CB       110.6780   68.2050    2.5050 C.3   135  ASN135      0.1181
    156  CG       110.1570   66.8060    2.4820 C.2   135  ASN135      0.2629
    157  OD1      110.5680   65.9700    3.2890 O.2   135  ASN135     -0.2716
    158  ND2      109.2480   66.5270    1.5630 N.am  135  ASN135     -0.0877
    159  N        113.6840   72.6820    6.3810 N.3   137  LEU137     -0.1245
    160  CA       114.2560   72.7500    7.7190 C.3   137  LEU137      0.1561
    161  C        114.5910   74.1750    8.1190 C.2   137  LEU137      0.2260
    162  O        114.8650   75.0050    7.2820 O.2   137  LEU137     -0.2867
    163  CB       115.5190   71.8980    7.7890 C.3   137  LEU137      0.0270
    164  CG       115.4310   70.4210    7.4380 C.3   137  LEU137      0.0019
    165  CD1      116.8360   69.8600    7.3260 C.3   137  LEU137      0.0001
    166  CD2      114.6310   69.6950    8.4800 C.3   137  LEU137      0.0001
    167  N        115.4670   70.6300    2.9870 N.3   147  GLY147     -0.1210
    168  CA       116.2540   69.6370    3.6880 C.3   147  GLY147      0.1956
    169  C        116.2090   68.1660    3.3610 C.2   147  GLY147      0.2611
    170  O        116.7710   67.3730    4.0860 O.2   147  GLY147     -0.2717
    171  N        115.5430   67.7920    2.2790 N.am  148  ASP148     -0.1973
    172  CA       115.4860   66.3870    1.9010 C.3   148  ASP148      0.1709
    173  C        115.3540   66.2890    0.3960 C.2   148  ASP148      0.2293
    174  O        114.6970   67.0870   -0.2130 O.2   148  ASP148     -0.2864
    175  CB       114.3120   65.6730    2.5740 C.3   148  ASP148      0.1436
    176  CG       114.4070   64.1570    2.4470 C.2   148  ASP148      0.3671
    177  OD1      115.1740   63.5220    3.1990 O.co2 148  ASP148     -0.2456
    178  OD2      113.7290   63.5890    1.5770 O.co2 148  ASP148     -0.2456
@<TRIPOS>BOND
     1   132   133    1
     2   133   136    1
     3   133   134    1
     4   136   137    1
     5   134   135    2
     6   138   137   ar
     7   137   139   ar
     8   174   173    2
     9    32    31    2
    10    33    31   am
    11    31    30    1
    12   173   172    1
    13    30    27    1
    14   158   156   am
    15   178   176   ar
    16   150   148    1
    17   172   171    1
    18   172   175    1
    19    27    28    1
    20    27    26    1
    21    62    61    2
    22    58    57    1
    23   171   169   am
    24   176   175    1
    25   176   177   ar
    26    28    29    2
    27   156   155    1
    28   156   157    2
    29   155   152    1
    30    59    60    1
    31   149   148    1
    32   148   147    2
    33   167   168    1
    34    64    63    1
    35    61    60    1
    36    26    24   am
    37   169   168    1
    38   169   170    2
    39   154   153    2
    40    57    56    1
    41    60    63    1
    42   152   153    1
    43   152   151    1
    44    56    55    1
    45   147   146    1
    46    25    24    2
    47    24    23    1
    48    63    65    1
    49   151   142   am
    50    34    35    1
    51    72    71    1
    52    72    73    1
    53    71    70    1
    54    55    54    1
    55   146   145    1
    56   145   144    2
    57    23    22    1
    58    35    36    1
    59   140   141    1
    60   142   141    1
    61   142   143    2
    62    54    51    1
    63    53    52    2
    64    81    80   ar
    65   141   144    1
    66    70    67    1
    67   159   160    1
    68    22    15   am
    69    52    51    1
    70    36    37    2
    71    67    66    1
    72    67    68    1
    73    51    50    1
    74   162   161    2
    75    80    79    1
    76    80    82   ar
    77   165   164    1
    78   164   163    1
    79   164   166    1
    80    79    78    1
    81    15    16    2
    82    15    14    1
    83   160   163    1
    84   160   161    1
    85    74    68   am
    86    74    75    1
    87    44    42    1
    88   101   100    1
    89    68    69    2
    90    78    75    1
    91    14    17    1
    92    14    13    1
    93    75    76    1
    94    77    76    2
    95   100   102    1
    96   100    99    1
    97    48    47    2
    98    42    43    1
    99    42    39    1
   100   130   127    1
   101   130   131    1
   102    38    39    1
   103    17    18    1
   104    13    11   am
   105    76    83   am
   106    39    40    1
   107   127   128    1
   108   127   126    1
   109   128   129    2
   110    18    19    1
   111    47    46    1
   112    11    12    2
   113    11    10    1
   114    49    46    1
   115    21    20    1
   116    99    96    1
   117    19    20    1
   118   125   124    2
   119    83    84    1
   120    46    45    1
   121    10     9    1
   122   126   124   am
   123    40    41    2
   124   124   123    1
   125    95    96    1
   126    95    85   am
   127    96    97    1
   128    84    85    1
   129    84    87    1
   130     9     3   am
   131    85    86    2
   132   123   122    1
   133     3     4    2
   134     3     2    1
   135    97    98    2
   136    97   103   am
   137     7     6    1
   138     5     2    1
   139     5     6    1
   140    87    88    1
   141   122   112   am
   142     2     1    1
   143     6     8    1
   144   109   103    1
   145   109   108    1
   146   103   104    1
   147   112   113    2
   148   112   111    1
   149    89    88   ar
   150    89    91   ar
   151   114   111    1
   152   114   115    1
   153    88    90   ar
   154   110   111    1
   155   110   105   am
   156   108   107    1
   157   116   115   ar
   158   116   118   ar
   159    91    93   ar
   160   115   117   ar
   161   104   105    1
   162   104   107    1
   163    90    92   ar
   164   105   106    2
   165   118   120   ar
   166    93    92   ar
   167    93    94    1
   168   117   119   ar
   169   120   119   ar
   170   120   121    1
