@<TRIPOS>MOLECULE
tmp/3tjdB00.pdb
 176 169 0 0 0
SMALL
GASTEIGER

@<TRIPOS>ATOM
      1  N         74.3790  114.2250   25.2260 N.3    16  LEU16      -0.1231
      2  CA        74.3800  113.3520   24.0750 C.3    16  LEU16       0.1693
      3  C         74.7220  111.9000   24.4140 C.2    16  LEU16       0.2593
      4  O         74.1170  111.0070   23.8800 O.2    16  LEU16      -0.2718
      5  CB        75.3490  113.8870   23.0180 C.3    16  LEU16       0.0284
      6  CG        75.0190  115.2370   22.3760 C.3    16  LEU16       0.0019
      7  CD1       76.1180  115.6470   21.4030 C.3    16  LEU16       0.0001
      8  CD2       73.7050  115.1370   21.6610 C.3    16  LEU16       0.0001
      9  N         75.7060  111.6630   25.2760 N.am   17  GLY17      -0.1942
     10  CA        76.0760  110.2970   25.6360 C.3    17  GLY17       0.2014
     11  C         76.6720  110.2640   27.0480 C.2    17  GLY17       0.2639
     12  O         77.1610  111.2690   27.5160 O.2    17  GLY17      -0.2714
     13  N         76.6690  109.1080   27.7160 N.am   18  LYS18      -0.1963
     14  CA        77.2240  109.0190   29.0700 C.3    18  LYS18       0.1728
     15  C         77.8730  107.6960   29.4040 C.2    18  LYS18       0.2616
     16  O         77.3600  106.5980   29.0890 O.2    18  LYS18      -0.2715
     17  CB        76.1660  109.2600   30.1240 C.3    18  LYS18       0.0311
     18  CG        74.9510  108.3580   29.9610 C.3    18  LYS18       0.0038
     19  CD        73.7570  108.8500   30.7500 C.3    18  LYS18       0.0206
     20  CE        72.4280  108.2930   30.2380 C.3    18  LYS18       0.1093
     21  NZ        72.3350  106.8070   30.2580 N.3    18  LYS18      -0.1314
     22  N         78.9940  107.8190   30.1060 N.am   19  GLY19      -0.1955
     23  CA        79.7830  106.6730   30.5440 C.3    19  GLY19       0.1869
     24  C         79.9210  106.6230   32.0610 C.2    19  GLY19       0.2309
     25  O         79.2980  107.4110   32.7660 O.2    19  GLY19      -0.2863
     26  N         82.9120  109.4340   32.4850 N.3    22  GLY22      -0.1210
     27  CA        82.8180  110.6280   31.6060 C.3    22  GLY22       0.1956
     28  C         81.5250  110.7810   30.7370 C.2    22  GLY22       0.2613
     29  O         80.7800  109.8710   30.5670 O.2    22  GLY22      -0.2717
     30  N         81.3230  111.9200   30.0800 N.am   23  SER23      -0.1938
     31  CA        80.1110  112.1190   29.2840 C.3    23  SER23       0.2055
     32  C         80.4070  113.1150   28.2270 C.2    23  SER23       0.2642
     33  O         81.3970  113.8250   28.3230 O.2    23  SER23      -0.2714
     34  CB        78.9840  112.7060   30.1480 C.3    23  SER23       0.2130
     35  OG        79.3420  114.0010   30.6330 O.3    23  SER23      -0.2179
     36  N         79.4600  113.1900   27.2840 N.am   24  VAL24      -0.1977
     37  CA        79.4350  114.1250   26.1510 C.3    24  VAL24       0.1596
     38  C         78.1570  115.0060   26.0980 C.2    24  VAL24       0.2287
     39  O         77.0130  114.5280   26.2190 O.2    24  VAL24      -0.2864
     40  CB        79.5520  113.4050   24.7930 C.3    24  VAL24       0.0276
     41  CG1       79.6730  114.4270   23.6670 C.3    24  VAL24       0.0022
     42  CG2       80.7790  112.5020   24.7750 C.3    24  VAL24       0.0022
     43  N         80.1570  119.3540   20.0050 N.3    41  ALA41      -0.1245
     44  CA        80.0320  118.2800   20.9770 C.3    41  ALA41       0.1562
     45  C         81.1590  118.4930   21.9840 C.2    41  ALA41       0.2260
     46  O         82.3000  118.6920   21.6010 O.2    41  ALA41      -0.2867
     47  CB        80.1770  116.9300   20.2940 C.3    41  ALA41       0.0290
     48  N         83.1990  116.9900   25.3760 N.3    43  LYS43      -0.1245
     49  CA        83.4720  115.8240   26.2190 C.3    43  LYS43       0.1561
     50  C         84.1820  116.2370   27.5090 C.2    43  LYS43       0.2260
     51  O         85.1860  116.9060   27.4690 O.2    43  LYS43      -0.2867
     52  CB        84.3510  114.8100   25.4730 C.3    43  LYS43       0.0271
     53  CG        84.5590  113.5350   26.2570 C.3    43  LYS43       0.0035
     54  CD        85.4040  112.5150   25.5360 C.3    43  LYS43       0.0206
     55  CE        85.3710  111.1850   26.2930 C.3    43  LYS43       0.1093
     56  NZ        86.1840  110.1050   25.6750 N.3    43  LYS43      -0.1314
     57  N         85.8820  111.2400   13.6720 N.3    72  VAL72      -0.1245
     58  CA        85.2580  112.4640   14.1480 C.3    72  VAL72       0.1561
     59  C         86.2640  113.6030   14.2540 C.2    72  VAL72       0.2260
     60  O         87.3950  113.4310   14.7280 O.2    72  VAL72      -0.2867
     61  CB        84.5770  112.2460   15.5060 C.3    72  VAL72       0.0252
     62  CG1       85.6170  111.9160   16.5650 C.3    72  VAL72       0.0019
     63  CG2       83.8060  113.4750   15.8880 C.3    72  VAL72       0.0019
     64  N         84.5740  118.7210   19.8800 N.3    86  MET86      -0.1230
     65  CA        84.5180  117.9940   18.6210 C.3    86  MET86       0.1702
     66  C         83.3230  118.4510   17.7990 C.2    86  MET86       0.2592
     67  O         82.4970  119.1820   18.2770 O.2    86  MET86      -0.2718
     68  CB        84.3850  116.5050   18.9010 C.3    86  MET86       0.0401
     69  CG        85.3400  116.0000   19.9550 C.3    86  MET86       0.0596
     70  SD        85.0330  114.2690   20.2570 S.3    86  MET86      -0.1393
     71  CE        83.9600  114.3880   21.6390 C.3    86  MET86       0.0692
     72  N         83.2490  118.0040   16.5510 N.am   87  GLU87      -0.1966
     73  CA        82.1360  118.3730   15.6880 C.3    87  GLU87       0.1733
     74  C         80.8950  117.6650   16.1940 C.2    87  GLU87       0.2616
     75  O         80.9800  116.6010   16.8080 O.2    87  GLU87      -0.2715
     76  CB        82.4060  117.9760   14.2340 C.3    87  GLU87       0.0429
     77  CG        82.8970  116.5630   14.0480 C.3    87  GLU87       0.1163
     78  CD        82.7170  116.0750   12.6240 C.2    87  GLU87       0.3649
     79  OE1       83.2640  115.0060   12.2860 O.co2  87  GLU87      -0.2457
     80  OE2       82.0180  116.7600   11.8460 O.co2  87  GLU87      -0.2457
     81  N         79.7410  118.2620   15.9430 N.am   88  TYR88      -0.1960
     82  CA        78.4860  117.6900   16.3870 C.3    88  TYR88       0.1771
     83  C         77.7970  116.9160   15.2870 C.2    88  TYR88       0.2619
     84  O         77.4460  117.4680   14.2700 O.2    88  TYR88      -0.2715
     85  CB        77.5620  118.7980   16.8700 C.3    88  TYR88       0.0574
     86  CG        76.1360  118.3550   17.1080 C.ar   88  TYR88      -0.0198
     87  CD1       75.8380  117.3960   18.0700 C.ar   88  TYR88      -0.0009
     88  CD2       75.0920  118.8860   16.3660 C.ar   88  TYR88      -0.0009
     89  CE1       74.5490  116.9760   18.2870 C.ar   88  TYR88       0.0417
     90  CE2       73.7910  118.4700   16.5760 C.ar   88  TYR88       0.0417
     91  CZ        73.5300  117.5120   17.5410 C.ar   88  TYR88       0.1957
     92  OH        72.2510  117.0820   17.7730 O.3    88  TYR88      -0.2866
     93  N         77.5830  115.6300   15.5120 N.am   89  LEU89      -0.1964
     94  CA        76.9360  114.7980   14.5170 C.3    89  LEU89       0.1713
     95  C         75.5170  114.4630   14.9700 C.2    89  LEU89       0.2458
     96  O         75.3020  113.5610   15.7650 O.2    89  LEU89      -0.2730
     97  CB        77.7880  113.5490   14.3040 C.3    89  LEU89       0.0310
     98  CG        79.1730  113.8920   13.7340 C.3    89  LEU89       0.0022
     99  CD1       80.0560  112.6760   13.7910 C.3    89  LEU89       0.0001
    100  CD2       79.0360  114.3470   12.2900 C.3    89  LEU89       0.0001
    101  N         74.5280  115.2020   14.4450 N.am   90  PRO90      -0.2716
    102  CA        73.0910  115.0880   14.7240 C.3    90  PRO90       0.1536
    103  C         72.4440  113.7150   14.7000 C.2    90  PRO90       0.2599
    104  O         71.4030  113.5230   15.2800 O.2    90  PRO90      -0.2715
    105  CB        72.4470  116.0190   13.6910 C.3    90  PRO90       0.0310
    106  CG        73.4200  116.1100   12.6210 C.3    90  PRO90       0.0237
    107  CD        74.7580  116.1050   13.3060 C.3    90  PRO90       0.0939
    108  N         73.0180  112.7700   13.9830 N.am   91  TYR91      -0.1960
    109  CA        72.4030  111.4700   13.9680 C.3    91  TYR91       0.1771
    110  C         72.9320  110.6010   15.0850 C.2    91  TYR91       0.2620
    111  O         72.4480  109.5290   15.2700 O.2    91  TYR91      -0.2715
    112  CB        72.6180  110.7840   12.6370 C.3    91  TYR91       0.0574
    113  CG        71.8820  111.4760   11.5420 C.ar   91  TYR91      -0.0198
    114  CD1       72.5670  112.2200   10.5970 C.ar   91  TYR91      -0.0009
    115  CD2       70.4840  111.4850   11.5130 C.ar   91  TYR91      -0.0009
    116  CE1       71.8870  112.9720    9.6550 C.ar   91  TYR91       0.0417
    117  CE2       69.7970  112.2330   10.5800 C.ar   91  TYR91       0.0417
    118  CZ        70.5050  112.9850    9.6530 C.ar   91  TYR91       0.1957
    119  OH        69.8380  113.8030    8.7600 O.3    91  TYR91      -0.2866
    120  N         73.9400  111.0570   15.8190 N.am   92  GLY92      -0.1940
    121  CA        74.4270  110.2540   16.9260 C.3    92  GLY92       0.2014
    122  C         75.0830  108.9350   16.5600 C.2    92  GLY92       0.2639
    123  O         75.4990  108.7250   15.4050 O.2    92  GLY92      -0.2714
    124  N         75.1670  108.0440   17.5480 N.am   93  SER93      -0.1949
    125  CA        75.8130  106.7510   17.3770 C.3    93  SER93       0.1924
    126  C         75.0930  105.8520   16.4180 C.2    93  SER93       0.2314
    127  O         73.8930  105.8590   16.3530 O.2    93  SER93      -0.2863
    128  CB        75.9440  106.0220   18.7150 C.3    93  SER93       0.2116
    129  OG        74.7020  105.4900   19.1340 O.3    93  SER93      -0.2180
    130  N         88.8260  100.0440   21.5790 N.3   133  ASP133     -0.1239
    131  CA        87.4450  100.1400   21.9630 C.3   133  ASP133      0.1674
    132  C         86.4110  100.3480   20.8900 C.2   133  ASP133      0.2266
    133  O         85.4200  100.9540   21.1590 O.2   133  ASP133     -0.2867
    134  CB        87.3350  101.2520   23.0310 C.3   133  ASP133      0.1410
    135  CG        85.9900  101.2920   23.7150 C.2   133  ASP133      0.3668
    136  OD1       85.4390  100.2110   24.0060 O.co2 133  ASP133     -0.2456
    137  OD2       85.4960  102.4170   23.9760 O.co2 133  ASP133     -0.2456
    138  N         78.7540  101.6720   19.4740 N.3   137  ARG137     -0.1231
    139  CA        78.3920  102.7210   20.4010 C.3   137  ARG137      0.1694
    140  C         79.3440  103.8800   20.1720 C.2   137  ARG137      0.2592
    141  O         79.0020  104.9870   20.4050 O.2   137  ARG137     -0.2718
    142  CB        78.5050  102.2210   21.8590 C.3   137  ARG137      0.0321
    143  CG        79.8030  102.6020   22.5880 C.3   137  ARG137      0.0489
    144  CD        80.0330  101.7110   23.8100 C.3   137  ARG137      0.2205
    145  NE        81.4580  101.5760   24.1070 N.pl3 137  ARG137     -0.0865
    146  CZ        82.0090  100.7260   24.9530 C.cat 137  ARG137      0.5346
    147  NH1       81.2760   99.8800   25.6380 N.pl3 137  ARG137      0.1354
    148  NH2       83.3190  100.7550   25.1030 N.pl3 137  ARG137      0.1354
    149  N         80.5470  103.5860   19.7030 N.am  138  ASN138     -0.1974
    150  CA        81.5510  104.6180   19.4970 C.3   138  ASN138      0.1688
    151  C         81.6150  105.1400   18.0730 C.2   138  ASN138      0.2292
    152  O         82.3760  106.0370   17.7600 O.2   138  ASN138     -0.2864
    153  CB        82.9390  104.0860   19.8870 C.3   138  ASN138      0.1181
    154  CG        82.9340  103.3820   21.2150 C.2   138  ASN138      0.2629
    155  OD1       82.2750  103.8200   22.1370 O.2   138  ASN138     -0.2716
    156  ND2       83.6730  102.2980   21.3250 N.am  138  ASN138     -0.0877
    157  N         79.9710  107.0760   15.0140 N.3   140  LEU140     -0.1245
    158  CA        78.9840  108.1210   14.8020 C.3   140  LEU140      0.1561
    159  C         78.5080  108.1730   13.3630 C.2   140  LEU140      0.2260
    160  O         79.2290  107.7850   12.4690 O.2   140  LEU140     -0.2867
    161  CB        79.5830  109.4710   15.2030 C.3   140  LEU140      0.0270
    162  CG        80.0870  109.5020   16.6480 C.3   140  LEU140      0.0019
    163  CD1       80.7610  110.8420   16.9560 C.3   140  LEU140      0.0001
    164  CD2       78.9170  109.2250   17.5770 C.3   140  LEU140      0.0001
    165  N         84.0960  107.7600   16.2800 N.3   150  GLY150     -0.1210
    166  CA        84.0210  108.9470   17.1170 C.3   150  GLY150      0.1956
    167  C         84.4670  109.0200   18.5700 C.2   150  GLY150      0.2611
    168  O         84.0560  109.8810   19.2870 O.2   150  GLY150     -0.2717
    169  N         85.2950  108.1110   19.0310 N.am  151  ASP151     -0.1973
    170  CA        85.7710  108.2440   20.3880 C.3   151  ASP151      0.1709
    171  C         87.0980  107.5540   20.4590 C.2   151  ASP151      0.2293
    172  O         87.2310  106.4690   20.0030 O.2   151  ASP151     -0.2864
    173  CB        84.8270  107.6130   21.3870 C.3   151  ASP151      0.1436
    174  CG        85.3870  107.6620   22.7800 C.2   151  ASP151      0.3671
    175  OD1       85.4740  108.7730   23.3470 O.co2 151  ASP151     -0.2456
    176  OD2       85.7900  106.6000   23.3050 O.co2 151  ASP151     -0.2456
@<TRIPOS>BOND
     1   119   118    1
     2   118   116   ar
     3   118   117   ar
     4   116   114   ar
     5   117   115   ar
     6   114   113   ar
     7   115   113   ar
     8   113   112    1
     9    80    78   ar
    10    79    78   ar
    11   100    98    1
    12   160   159    2
    13   106   107    1
    14   106   105    1
    15    78    77    1
    16   112   109    1
    17   107   101    1
    18   159   158    1
    19    57    58    1
    20   105   102    1
    21    98    99    1
    22    98    97    1
    23   109   108    1
    24   109   110    1
    25   108   103   am
    26    77    76    1
    27    58    59    1
    28    58    61    1
    29    76    73    1
    30    59    60    2
    31    84    83    2
    32    97    94    1
    33   101   102    1
    34   101    95   am
    35    94    95    1
    36    94    93    1
    37   103   102    1
    38   103   104    2
    39   158   157    1
    40   158   161    1
    41    95    96    2
    42   110   111    2
    43   110   120   am
    44   161   162    1
    45    83    93   am
    46    83    82    1
    47   123   122    2
    48    61    63    1
    49    61    62    1
    50    73    74    1
    51    73    72    1
    52   120   121    1
    53    81    74   am
    54    81    82    1
    55    74    75    2
    56   165   166    1
    57   127   126    2
    58    88    90   ar
    59    88    86   ar
    60    82    85    1
    61   126   125    1
    62    72    66   am
    63   122   121    1
    64   122   124   am
    65    90    91   ar
    66   162   163    1
    67   162   164    1
    68    85    86    1
    69    86    87   ar
    70   166   167    1
    71   125   124    1
    72   125   128    1
    73    91    92    1
    74    91    89   ar
    75   152   151    2
    76    66    67    2
    77    66    65    1
    78    87    89   ar
    79   151   150    1
    80   167   169   am
    81   167   168    2
    82    65    68    1
    83    65    64    1
    84   128   129    1
    85    68    69    1
    86   169   170    1
    87   138   139    1
    88   150   149    1
    89   150   153    1
    90   149   140   am
    91   153   154    1
    92    69    70    1
    93   172   171    2
    94    43    44    1
    95   140   139    1
    96   140   141    2
    97    70    71    1
    98    47    44    1
    99   170   171    1
   100   170   173    1
   101   139   142    1
   102   132   133    2
   103   132   131    1
   104    44    45    1
   105   154   156   am
   106   154   155    2
   107   173   174    1
   108     7     6    1
   109   130   131    1
   110    46    45    2
   111     8     6    1
   112   142   143    1
   113   131   134    1
   114     6     5    1
   115   143   144    1
   116   174   176   ar
   117   174   175   ar
   118     5     2    1
   119   134   135    1
   120    41    40    1
   121   135   137   ar
   122   135   136   ar
   123   144   145    1
   124     4     3    2
   125     2     3    1
   126     2     1    1
   127   145   146    2
   128     3     9   am
   129    42    40    1
   130    40    37    1
   131   146   148    1
   132   146   147    1
   133     9    10    1
   134    48    49    1
   135    52    49    1
   136    52    53    1
   137    54    53    1
   138    54    55    1
   139    10    11    1
   140    56    55    1
   141    38    37    1
   142    38    39    2
   143    37    36    1
   144    49    50    1
   145    11    12    2
   146    11    13   am
   147    36    32   am
   148    51    50    2
   149    13    14    1
   150    32    33    2
   151    32    31    1
   152    14    15    1
   153    14    17    1
   154    16    15    2
   155    31    30    1
   156    31    34    1
   157    15    22   am
   158    18    17    1
   159    18    19    1
   160    30    28   am
   161    22    23    1
   162    34    35    1
   163    20    21    1
   164    20    19    1
   165    23    24    1
   166    29    28    2
   167    28    27    1
   168    27    26    1
   169    24    25    2
