@<TRIPOS>MOLECULE
tmp/3tjmA00.pdb
 214 211 0 0 0
SMALL
GASTEIGER

@<TRIPOS>ATOM
      1  N         -0.0030   64.3390   41.2190 N.3    32  PRO32      -0.2102
      2  CA         0.5580   64.5320   42.5640 C.3    32  PRO32       0.1504
      3  C         -0.3430   63.8950   43.6330 C.2    32  PRO32       0.2576
      4  O         -1.3050   63.1790   43.3120 O.2    32  PRO32      -0.2718
      5  CB         0.5850   66.0590   42.7100 C.3    32  PRO32       0.0282
      6  CG        -0.5910   66.5070   41.8970 C.3    32  PRO32       0.0208
      7  CD        -0.6020   65.5740   40.6810 C.3    32  PRO32       0.0893
      8  N         -0.0360   64.1450   44.8980 N.am   33  ILE33      -0.1966
      9  CA        -0.7150   63.4140   45.9620 C.3    33  ILE33       0.1727
     10  C         -2.2560   63.5580   45.9340 C.2    33  ILE33       0.2616
     11  O         -2.9920   62.6090   46.2500 O.2    33  ILE33      -0.2715
     12  CB        -0.1810   63.9750   47.3460 C.3    33  ILE33       0.0290
     13  CG1       -0.8640   63.3250   48.5590 C.3    33  ILE33       0.0022
     14  CG2       -0.2620   65.5190   47.4110 C.3    33  ILE33       0.0023
     15  CD1       -0.6480   61.8020   48.6870 C.3    33  ILE33       0.0001
     16  N         -2.7420   64.7280   45.5460 N.am   34  GLU34      -0.1977
     17  CA        -4.1930   64.9300   45.5520 C.3    34  GLU34       0.1602
     18  C         -4.9180   64.0680   44.5080 C.2    34  GLU34       0.2287
     19  O         -6.1410   63.8880   44.5990 O.2    34  GLU34      -0.2864
     20  CB        -4.5790   66.4000   45.4030 C.3    34  GLU34       0.0415
     21  CG        -4.1250   67.0730   44.1290 C.3    34  GLU34       0.1163
     22  CD        -2.8160   67.8460   44.2810 C.2    34  GLU34       0.3649
     23  OE1       -2.7200   68.9370   43.6770 O.co2  34  GLU34      -0.2457
     24  OE2       -1.8950   67.3940   45.0000 O.co2  34  GLU34      -0.2457
     25  N          4.7110   64.0360   38.7260 N.3    90  TYR90      -0.1227
     26  CA         4.9960   65.2200   39.5320 C.3    90  TYR90       0.1736
     27  C          4.7740   64.9350   41.0120 C.2    90  TYR90       0.2596
     28  O          3.7360   64.4200   41.4020 O.2    90  TYR90      -0.2718
     29  CB         4.0920   66.3620   39.0640 C.3    90  TYR90       0.0548
     30  CG         4.0330   67.5400   39.9960 C.ar   90  TYR90      -0.0200
     31  CD1        5.1750   68.2720   40.3260 C.ar   90  TYR90      -0.0009
     32  CD2        2.8080   67.9250   40.5440 C.ar   90  TYR90      -0.0009
     33  CE1        5.0920   69.3620   41.2200 C.ar   90  TYR90       0.0417
     34  CE2        2.7040   68.9870   41.4120 C.ar   90  TYR90       0.0417
     35  CZ         3.8340   69.6950   41.7540 C.ar   90  TYR90       0.1957
     36  OH         3.6590   70.7510   42.6080 O.3    90  TYR90      -0.2866
     37  N          5.7720   65.2640   41.8260 N.am   91  SER91      -0.1938
     38  CA         5.6670   65.1040   43.2720 C.3    91  SER91       0.2055
     39  C          5.3780   63.6190   43.6260 C.2    91  SER91       0.2643
     40  O          6.1660   62.7530   43.2410 O.2    91  SER91      -0.2714
     41  CB         4.6180   66.0820   43.8180 C.3    91  SER91       0.2130
     42  OG         4.6970   66.1290   45.2270 O.3    91  SER91      -0.2179
     43  N          4.2730   63.3180   44.3090 N.am   92  TYR92      -0.1973
     44  CA         3.8990   61.9250   44.6020 C.3    92  TYR92       0.1639
     45  C          3.9570   61.0820   43.3280 C.2    92  TYR92       0.2290
     46  O          4.4160   59.9270   43.3440 O.2    92  TYR92      -0.2864
     47  CB         2.4790   61.8680   45.1680 C.3    92  TYR92       0.0560
     48  CG         2.0020   60.5040   45.6040 C.ar   92  TYR92      -0.0198
     49  CD1        2.1530   60.1010   46.9290 C.ar   92  TYR92      -0.0009
     50  CD2        1.3720   59.6260   44.7160 C.ar   92  TYR92      -0.0009
     51  CE1        1.7070   58.8480   47.3750 C.ar   92  TYR92       0.0417
     52  CE2        0.9140   58.3730   45.1470 C.ar   92  TYR92       0.0417
     53  CZ         1.0850   57.9900   46.4830 C.ar   92  TYR92       0.1957
     54  OH         0.6360   56.7500   46.8980 O.3    92  TYR92      -0.2866
     55  N         11.1560   61.0340   48.0140 N.3   126  TYR126     -0.1227
     56  CA        10.6460   62.4100   48.1440 C.3   126  TYR126      0.1736
     57  C          9.4760   62.5420   49.1080 C.2   126  TYR126      0.2595
     58  O          9.4830   63.4600   49.9270 O.2   126  TYR126     -0.2718
     59  CB        10.2670   62.9320   46.7590 C.3   126  TYR126      0.0548
     60  CG         9.7700   64.3540   46.6500 C.ar  126  TYR126     -0.0200
     61  CD1       10.6630   65.4180   46.4810 C.ar  126  TYR126     -0.0009
     62  CD2        8.3980   64.6290   46.6390 C.ar  126  TYR126     -0.0009
     63  CE1       10.1970   66.7360   46.3350 C.ar  126  TYR126      0.0417
     64  CE2        7.9280   65.9340   46.4890 C.ar  126  TYR126      0.0417
     65  CZ         8.8280   66.9770   46.3410 C.ar  126  TYR126      0.1957
     66  OH         8.3470   68.2650   46.1880 O.3   126  TYR126     -0.2866
     67  N          8.4740   61.6600   48.9980 N.am  127  VAL127     -0.1980
     68  CA         7.3040   61.6860   49.8920 C.3   127  VAL127      0.1595
     69  C          7.6960   61.2930   51.3110 C.2   127  VAL127      0.2287
     70  O          7.2170   61.9040   52.2800 O.2   127  VAL127     -0.2864
     71  CB         6.1230   60.7850   49.3710 C.3   127  VAL127      0.0276
     72  CG1        4.9730   60.6990   50.4030 C.3   127  VAL127      0.0022
     73  CG2        5.5750   61.3270   48.0690 C.3   127  VAL127      0.0022
     74  N          8.4770   63.8560   53.8590 N.3   130  TYR130     -0.1227
     75  CA         7.2910   64.5000   54.4380 C.3   130  TYR130      0.1736
     76  C          6.6430   63.6530   55.5330 C.2   130  TYR130      0.2596
     77  O          6.3760   64.1550   56.6260 O.2   130  TYR130     -0.2718
     78  CB         6.2730   64.8840   53.3500 C.3   130  TYR130      0.0548
     79  CG         6.7680   65.9690   52.4200 C.ar  130  TYR130     -0.0200
     80  CD1        7.4040   65.6500   51.2230 C.ar  130  TYR130     -0.0009
     81  CD2        6.6080   67.3160   52.7410 C.ar  130  TYR130     -0.0009
     82  CE1        7.8680   66.6430   50.3660 C.ar  130  TYR130      0.0417
     83  CE2        7.0680   68.3190   51.8920 C.ar  130  TYR130      0.0417
     84  CZ         7.6940   67.9770   50.7050 C.ar  130  TYR130      0.1957
     85  OH         8.1580   68.9680   49.8620 O.3   130  TYR130     -0.2866
     86  N          6.4160   62.3700   55.2560 N.am  131  THR131     -0.1953
     87  CA         5.7460   61.4780   56.2160 C.3   131  THR131      0.1897
     88  C          6.5080   61.3170   57.5500 C.2   131  THR131      0.2313
     89  O          5.8970   61.3570   58.6200 O.2   131  THR131     -0.2863
     90  CB         5.4160   60.0930   55.5940 C.3   131  THR131      0.1794
     91  OG1        6.6140   59.4990   55.0790 O.3   131  THR131     -0.2208
     92  CG2        4.3850   60.2270   54.4610 C.3   131  THR131      0.0378
     93  N          5.9730   63.9880   60.1870 N.3   134  TYR134     -0.1227
     94  CA         4.6990   63.8570   60.8870 C.3   134  TYR134      0.1736
     95  C          4.6860   62.6680   61.8400 C.2   134  TYR134      0.2595
     96  O          4.0800   62.7400   62.9110 O.2   134  TYR134     -0.2718
     97  CB         3.5400   63.7860   59.8850 C.3   134  TYR134      0.0548
     98  CG         3.2580   65.1290   59.2640 C.ar  134  TYR134     -0.0200
     99  CD1        3.9900   65.5820   58.1660 C.ar  134  TYR134     -0.0009
    100  CD2        2.2710   65.9640   59.7900 C.ar  134  TYR134     -0.0009
    101  CE1        3.7430   66.8310   57.5990 C.ar  134  TYR134      0.0417
    102  CE2        2.0110   67.2100   59.2280 C.ar  134  TYR134      0.0417
    103  CZ         2.7520   67.6410   58.1420 C.ar  134  TYR134      0.1957
    104  OH         2.4880   68.8810   57.5990 O.3   134  TYR134     -0.2866
    105  N          5.3610   61.5860   61.4440 N.am  135  ARG135     -0.1980
    106  CA         5.5890   60.4120   62.2990 C.3   135  ARG135      0.1597
    107  C          6.3030   60.7980   63.6000 C.2   135  ARG135      0.2287
    108  O          6.0790   60.1950   64.6530 O.2   135  ARG135     -0.2864
    109  CB         6.4380   59.3740   61.5510 C.3   135  ARG135      0.0334
    110  CG         5.7370   58.6090   60.4300 C.3   135  ARG135      0.0492
    111  CD         5.2540   57.2500   60.9250 C.3   135  ARG135      0.2205
    112  NE         4.3840   56.5850   59.9630 N.pl3 135  ARG135     -0.0865
    113  CZ         3.3360   55.8380   60.2950 C.cat 135  ARG135      0.5346
    114  NH1        2.9940   55.6640   61.5700 N.pl3 135  ARG135      0.1354
    115  NH2        2.6140   55.2780   59.3460 N.pl3 135  ARG135      0.1354
    116  N          4.1960   61.2420   66.7430 N.3   138  LEU138     -0.1245
    117  CA         3.2580   60.1660   67.0690 C.3   138  LEU138      0.1561
    118  C          3.8350   59.0360   67.9080 C.2   138  LEU138      0.2260
    119  O          5.0260   58.7530   67.8530 O.2   138  LEU138     -0.2867
    120  CB         2.6570   59.5880   65.7790 C.3   138  LEU138      0.0270
    121  CG         2.1210   60.5870   64.7490 C.3   138  LEU138      0.0019
    122  CD1        1.5500   59.8430   63.5540 C.3   138  LEU138      0.0001
    123  CD2        1.0720   61.5570   65.3360 C.3   138  LEU138      0.0001
    124  N         -1.7040   57.8280   63.5000 N.3   146  ALA146     -0.1245
    125  CA        -1.3120   58.1170   62.1250 C.3   146  ALA146      0.1562
    126  C         -2.5080   58.4780   61.2410 C.2   146  ALA146      0.2260
    127  O         -2.4520   59.4750   60.5140 O.2   146  ALA146     -0.2867
    128  CB        -0.5410   56.9350   61.5410 C.3   146  ALA146      0.0290
    129  N         -3.5260   61.9850   62.2910 N.3   149  GLU149     -0.1231
    130  CA        -2.6570   63.0040   61.7530 C.3   149  GLU149      0.1699
    131  C         -2.8960   63.2540   60.2750 C.2   149  GLU149      0.2592
    132  O         -2.9560   64.4010   59.8390 O.2   149  GLU149     -0.2718
    133  CB        -1.1990   62.6180   61.9730 C.3   149  GLU149      0.0402
    134  CG        -0.2480   63.7810   61.9230 C.3   149  GLU149      0.1161
    135  CD        -0.4280   64.7960   63.0760 C.2   149  GLU149      0.3649
    136  OE1       -0.7700   64.3990   64.2090 O.co2 149  GLU149     -0.2457
    137  OE2       -0.2210   65.9950   62.8270 O.co2 149  GLU149     -0.2457
    138  N         -3.0640   62.1760   59.5180 N.am  150  ALA150     -0.1980
    139  CA        -3.2950   62.3100   58.0770 C.3   150  ALA150      0.1597
    140  C         -4.6260   63.0180   57.8000 C.2   150  ALA150      0.2287
    141  O         -4.6830   63.9500   56.9890 O.2   150  ALA150     -0.2864
    142  CB        -3.2500   60.9250   57.3980 C.3   150  ALA150      0.0319
    143  N         -4.5680   66.7340   58.7080 N.3   153  PHE153     -0.1241
    144  CA        -3.9000   67.4910   57.6630 C.3   153  PHE153      0.1605
    145  C         -4.8480   67.7500   56.4880 C.2   153  PHE153      0.2264
    146  O         -4.9480   68.8720   55.9830 O.2   153  PHE153     -0.2867
    147  CB        -2.6210   66.7820   57.2110 C.3   153  PHE153      0.0534
    148  CG        -1.8980   67.4960   56.1100 C.ar  153  PHE153     -0.0203
    149  CD1       -0.9010   68.4160   56.4060 C.ar  153  PHE153     -0.0042
    150  CD2       -2.2150   67.2470   54.7680 C.ar  153  PHE153     -0.0042
    151  CE1       -0.2320   69.0960   55.3660 C.ar  153  PHE153     -0.0003
    152  CE2       -1.5570   67.9200   53.7280 C.ar  153  PHE153     -0.0003
    153  CZ        -0.5570   68.8300   54.0270 C.ar  153  PHE153     -0.0000
    154  N         -6.3140   59.6030   50.6020 N.3   206  PHE206     -0.1227
    155  CA        -5.1360   60.3400   51.0440 C.3   206  PHE206      0.1736
    156  C         -4.3260   59.4910   52.0270 C.2   206  PHE206      0.2595
    157  O         -3.1040   59.3700   51.8970 O.2   206  PHE206     -0.2718
    158  CB        -5.5710   61.6740   51.6910 C.3   206  PHE206      0.0547
    159  CG        -4.4230   62.5350   52.1660 C.ar  206  PHE206     -0.0202
    160  CD1       -4.3000   62.8630   53.5170 C.ar  206  PHE206     -0.0042
    161  CD2       -3.4860   63.0600   51.2690 C.ar  206  PHE206     -0.0042
    162  CE1       -3.2520   63.6610   53.9710 C.ar  206  PHE206     -0.0003
    163  CE2       -2.4310   63.8700   51.7290 C.ar  206  PHE206     -0.0003
    164  CZ        -2.3200   64.1760   53.0910 C.ar  206  PHE206     -0.0000
    165  N         -5.0010   58.8980   53.0100 N.am  207  TYR207     -0.1976
    166  CA        -4.3070   58.0510   53.9620 C.3   207  TYR207      0.1639
    167  C         -3.6500   56.8470   53.2870 C.2   207  TYR207      0.2290
    168  O         -2.4590   56.5690   53.5260 O.2   207  TYR207     -0.2864
    169  CB        -5.2780   57.6070   55.0630 C.3   207  TYR207      0.0560
    170  CG        -4.6360   56.6530   56.0290 C.ar  207  TYR207     -0.0198
    171  CD1       -3.6690   57.0880   56.9480 C.ar  207  TYR207     -0.0009
    172  CD2       -4.9390   55.3060   55.9820 C.ar  207  TYR207     -0.0009
    173  CE1       -3.0790   56.1930   57.8350 C.ar  207  TYR207      0.0417
    174  CE2       -4.3550   54.4200   56.8490 C.ar  207  TYR207      0.0417
    175  CZ        -3.4350   54.8570   57.7690 C.ar  207  TYR207      0.1957
    176  OH        -2.8710   53.9270   58.6180 O.3   207  TYR207     -0.2866
    177  N         -0.5590   57.7780   51.2650 N.3   210  LEU210     -0.1231
    178  CA         0.6020   58.0610   52.1090 C.3   210  LEU210      0.1693
    179  C          1.2000   56.7380   52.6260 C.2   210  LEU210      0.2591
    180  O          2.4380   56.5530   52.6060 O.2   210  LEU210     -0.2718
    181  CB         0.2320   59.0040   53.2710 C.3   210  LEU210      0.0284
    182  CG        -0.1250   60.4310   52.8930 C.3   210  LEU210      0.0019
    183  CD1       -0.6520   61.1170   54.1240 C.3   210  LEU210      0.0001
    184  CD2        1.0640   61.1670   52.3690 C.3   210  LEU210      0.0001
    185  N          0.3420   55.8200   53.0720 N.am  211  ARG211     -0.1980
    186  CA         0.8180   54.5250   53.5610 C.3   211  ARG211      0.1597
    187  C          1.6160   53.8060   52.4690 C.2   211  ARG211      0.2287
    188  O          2.7100   53.2680   52.7240 O.2   211  ARG211     -0.2864
    189  CB        -0.3490   53.6350   54.0380 C.3   211  ARG211      0.0334
    190  CG        -0.8750   53.9450   55.4580 C.3   211  ARG211      0.0492
    191  CD         0.2230   53.7070   56.5120 C.3   211  ARG211      0.2205
    192  NE        -0.2300   53.3520   57.8580 N.pl3 211  ARG211     -0.0865
    193  CZ        -0.1210   54.1580   58.9120 C.cat 211  ARG211      0.5346
    194  NH1        0.3740   55.3750   58.7620 N.pl3 211  ARG211      0.1354
    195  NH2       -0.5300   53.7710   60.1050 N.pl3 211  ARG211      0.1354
    196  N          5.0120   55.4530   52.0330 N.3   214  GLU214     -0.1245
    197  CA         5.9030   55.1840   53.1710 C.3   214  GLU214      0.1567
    198  C          6.5480   53.8130   53.0860 C.2   214  GLU214      0.2260
    199  O          7.6890   53.6110   53.5420 O.2   214  GLU214     -0.2867
    200  CB         5.1360   55.2180   54.4950 C.3   214  GLU214      0.0388
    201  CG         4.7220   56.5540   54.9840 C.3   214  GLU214      0.1160
    202  CD         4.2060   56.4620   56.4100 C.2   214  GLU214      0.3649
    203  OE1        4.7620   57.1670   57.2720 O.co2 214  GLU214     -0.2457
    204  OE2        3.2780   55.6590   56.6720 O.co2 214  GLU214     -0.2457
    205  N          7.9740   74.1210   44.8520 N.3   256  HIS256     -0.1241
    206  CA         7.4870   72.7680   44.5580 C.3   256  HIS256      0.1621
    207  C          6.1380   72.7460   43.8190 C.2   256  HIS256      0.2264
    208  O          5.7740   71.7210   43.2280 O.2   256  HIS256     -0.2867
    209  CB         7.3910   71.9490   45.8500 C.3   256  HIS256      0.0745
    210  CG         6.1610   72.2300   46.6540 C.ar  256  HIS256      0.0817
    211  ND1        5.9220   73.4520   47.2450 N.ar  256  HIS256     -0.2268
    212  CD2        5.0990   71.4470   46.9630 C.ar  256  HIS256      0.1154
    213  CE1        4.7680   73.4100   47.8890 C.ar  256  HIS256      0.1986
    214  NE2        4.2480   72.2050   47.7320 N.ar  256  HIS256     -0.2212
@<TRIPOS>BOND
     1    25    26    1
     2    29    26    1
     3    29    30    1
     4    26    27    1
     5    30    31   ar
     6    30    32   ar
     7    31    33   ar
     8    32    34   ar
     9     7     1    1
    10     7     6    1
    11    27    28    2
    12    27    37   am
    13     1     2    1
    14    33    35   ar
    15    34    35   ar
    16    35    36    1
    17    37    38    1
    18     6     5    1
    19     2     5    1
    20     2     3    1
    21   208   207    2
    22    40    39    2
    23    38    39    1
    24    38    41    1
    25     4     3    2
    26    45    46    2
    27    45    44    1
    28    39    43   am
    29     3     8   am
    30    23    22   ar
    31    41    42    1
    32   207   206    1
    33    21    22    1
    34    21    20    1
    35    22    24   ar
    36    43    44    1
    37    18    19    2
    38    18    17    1
    39   206   205    1
    40   206   209    1
    41    44    47    1
    42    50    52   ar
    43    50    48   ar
    44     8     9    1
    45    52    53   ar
    46    47    48    1
    47    20    17    1
    48    16    17    1
    49    16    10   am
    50    48    49   ar
    51   209   210    1
    52    10     9    1
    53    10    11    2
    54     9    12    1
    55    66    65    1
    56    63    65   ar
    57    63    61   ar
    58    65    64   ar
    59    61    60   ar
    60    53    54    1
    61    53    51   ar
    62    64    62   ar
    63    62    60   ar
    64    60    59    1
    65   210   212   ar
    66   210   211   ar
    67    59    56    1
    68    49    51   ar
    69   212   214   ar
    70   211   213   ar
    71    12    14    1
    72    12    13    1
    73   214   213   ar
    74    55    56    1
    75    73    71    1
    76    56    57    1
    77    13    15    1
    78    67    57   am
    79    67    68    1
    80    57    58    2
    81    71    68    1
    82    71    72    1
    83    85    84    1
    84    68    69    1
    85    82    84   ar
    86    82    80   ar
    87   154   155    1
    88    84    83   ar
    89   155   158    1
    90   155   156    1
    91    80    79   ar
    92   177   178    1
    93   161   163   ar
    94   161   159   ar
    95    69    70    2
    96   158   159    1
    97   163   164   ar
    98    83    81   ar
    99   157   156    2
   100   156   165   am
   101   196   197    1
   102   178   179    1
   103   178   181    1
   104   159   160   ar
   105   184   182    1
   106    79    81   ar
   107    79    78    1
   108   187   188    2
   109   187   186    1
   110   180   179    2
   111   179   185   am
   112   182   181    1
   113   182   183    1
   114   165   166    1
   115   185   186    1
   116   198   197    1
   117   198   199    2
   118   164   162   ar
   119   197   200    1
   120   167   168    2
   121   167   166    1
   122    78    75    1
   123   160   162   ar
   124   186   189    1
   125   152   153   ar
   126   152   150   ar
   127    74    75    1
   128   166   169    1
   129   153   151   ar
   130   189   190    1
   131    75    76    1
   132    92    90    1
   133   200   201    1
   134   150   148   ar
   135   201   202    1
   136   169   170    1
   137    91    90    1
   138    86    76   am
   139    86    87    1
   140   151   149   ar
   141   190   191    1
   142    76    77    2
   143    90    87    1
   144   172   170   ar
   145   172   174   ar
   146   146   145    2
   147   170   171   ar
   148   148   149   ar
   149   148   147    1
   150    87    88    1
   151   202   204   ar
   152   202   203   ar
   153   145   144    1
   154   191   192    1
   155   174   175   ar
   156   171   173   ar
   157   141   140    2
   158   147   144    1
   159   142   139    1
   160    88    89    2
   161   101   103   ar
   162   101    99   ar
   163   104   103    1
   164   144   143    1
   165   175   173   ar
   166   175   176    1
   167   140   139    1
   168   192   193    2
   169   139   138    1
   170   103   102   ar
   171    99    98   ar
   172   194   193    1
   173   193   195    1
   174   102   100   ar
   175    98   100   ar
   176    98    97    1
   177   115   113    1
   178   138   131   am
   179   132   131    2
   180    97    94    1
   181   112   113    2
   182   112   111    1
   183    93    94    1
   184   131   130    1
   185   113   114    1
   186   110   111    1
   187   110   109    1
   188   127   126    2
   189    94    95    1
   190   126   125    1
   191   105    95   am
   192   105   106    1
   193   128   125    1
   194   109   106    1
   195   130   133    1
   196   130   129    1
   197    95    96    2
   198   134   133    1
   199   134   135    1
   200   125   124    1
   201   106   107    1
   202   137   135   ar
   203   135   136   ar
   204   122   121    1
   205   107   108    2
   206   121   123    1
   207   121   120    1
   208   120   117    1
   209   116   117    1
   210   117   118    1
   211   119   118    2
