@<TRIPOS>MOLECULE
tmp/3tjpA00.pdb
 196 185 0 0 0
SMALL
GASTEIGER

@<TRIPOS>ATOM
      1  N         18.2280   16.3800   12.0890 N.3   563  MET563     -0.1230
      2  CA        18.5260   17.2240   13.2400 C.3   563  MET563      0.1702
      3  C         19.3550   18.4560   12.8810 C.2   563  MET563      0.2592
      4  O         20.0790   18.4690   11.8850 O.2   563  MET563     -0.2718
      5  CB        19.2040   16.4020   14.3370 C.3   563  MET563      0.0401
      6  CG        18.3170   15.2910   14.8870 C.3   563  MET563      0.0596
      7  SD        19.1880   14.1350   15.9610 S.3   563  MET563     -0.1393
      8  CE        19.8570   15.2550   17.1840 C.3   563  MET563      0.0692
      9  N         19.2360   19.4890   13.7090 N.am  564  ALA564     -0.1966
     10  CA        19.8580   20.7830   13.4460 C.3   564  ALA564      0.1728
     11  C         21.3770   20.7800   13.6220 C.2   564  ALA564      0.2616
     12  O         22.0410   21.7710   13.3190 O.2   564  ALA564     -0.2715
     13  CB        19.2270   21.8560   14.3250 C.3   564  ALA564      0.0334
     14  N         21.9200   19.6720   14.1160 N.am  565  SER565     -0.1950
     15  CA        23.3580   19.5590   14.3200 C.3   565  SER565      0.1924
     16  C         24.1060   19.7320   13.0040 C.2   565  SER565      0.2314
     17  O         23.5940   19.3790   11.9420 O.2   565  SER565     -0.2863
     18  CB        23.7090   18.2100   14.9500 C.3   565  SER565      0.2116
     19  OG        25.1160   18.0260   15.0030 O.3   565  SER565     -0.2180
     20  N         22.5980   14.5410   11.9460 N.3   569  PRO569     -0.2116
     21  CA        22.2000   13.1830   12.3280 C.3   569  PRO569      0.1372
     22  C         20.7210   12.9520   12.0410 C.2   569  PRO569      0.2244
     23  O         19.9860   13.9180   11.8290 O.2   569  PRO569     -0.2868
     24  CB        22.4460   13.1560   13.8430 C.3   569  PRO569      0.0268
     25  CG        23.3010   14.3560   14.1340 C.3   569  PRO569      0.0207
     26  CD        22.8900   15.3720   13.1240 C.3   569  PRO569      0.0892
     27  N         16.8750   11.5810   13.0870 N.3   571  TRP571     -0.1241
     28  CA        15.9640   11.3020   14.1890 C.3   571  TRP571      0.1605
     29  C         14.8550   10.4000   13.6650 C.2   571  TRP571      0.2264
     30  O         14.0050   10.8360   12.8890 O.2   571  TRP571     -0.2867
     31  CB        15.3780   12.6080   14.7320 C.3   571  TRP571      0.0550
     32  CG        14.2660   12.4310   15.7280 C.ar  571  TRP571      0.0003
     33  CD1       13.0060   11.9680   15.4780 C.ar  571  TRP571      0.0946
     34  CD2       14.3050   12.7430   17.1270 C.ar  571  TRP571      0.0152
     35  NE1       12.2640   11.9580   16.6340 N.ar  571  TRP571     -0.2442
     36  CE2       13.0390   12.4310   17.6620 C.ar  571  TRP571      0.0810
     37  CE3       15.2900   13.2500   17.9810 C.ar  571  TRP571      0.0012
     38  CZ2       12.7310   12.6080   19.0090 C.ar  571  TRP571      0.0191
     39  CZ3       14.9830   13.4250   19.3200 C.ar  571  TRP571      0.0001
     40  CH2       13.7140   13.1050   19.8200 C.ar  571  TRP571      0.0015
     41  N         18.4290    7.4650   17.1150 N.3   588  ILE588     -0.1245
     42  CA        19.1910    8.4820   16.4010 C.3   588  ILE588      0.1561
     43  C         20.3460    7.8580   15.6260 C.2   588  ILE588      0.2260
     44  O         21.1360    7.0980   16.1820 O.2   588  ILE588     -0.2867
     45  CB        19.7450    9.5610   17.3550 C.3   588  ILE588      0.0252
     46  CG1       18.6140   10.4540   17.8670 C.3   588  ILE588      0.0019
     47  CG2       20.8050   10.4020   16.6560 C.3   588  ILE588      0.0019
     48  CD1       19.0880   11.5970   18.7420 C.3   588  ILE588      0.0001
     49  N         23.7240    8.7890   13.6240 N.3   590  LYS590     -0.1245
     50  CA        24.6770    9.8800   13.4630 C.3   590  LYS590      0.1561
     51  C         25.9950    9.4340   12.8360 C.2   590  LYS590      0.2260
     52  O         26.4690    8.3250   13.0810 O.2   590  LYS590     -0.2867
     53  CB        24.9570   10.5430   14.8120 C.3   590  LYS590      0.0271
     54  CG        25.7170   11.8530   14.6980 C.3   590  LYS590      0.0035
     55  CD        26.3580   12.2410   16.0170 C.3   590  LYS590      0.0206
     56  CE        26.8990   13.6590   15.9610 C.3   590  LYS590      0.1093
     57  NZ        25.8080   14.6680   16.0390 N.3   590  LYS590     -0.1314
     58  N         30.8540   11.4170   14.5280 N.3   593  ASP593     -0.1239
     59  CA        31.3020   11.2320   15.9020 C.3   593  ASP593      0.1674
     60  C         31.7400    9.7870   16.0960 C.2   593  ASP593      0.2266
     61  O         31.1750    8.8760   15.4920 O.2   593  ASP593     -0.2867
     62  CB        30.1860   11.5730   16.8940 C.3   593  ASP593      0.1410
     63  CG        30.2350   13.0180   17.3620 C.2   593  ASP593      0.3668
     64  OD1       31.3320   13.6140   17.3470 O.co2 593  ASP593     -0.2456
     65  OD2       29.1790   13.5580   17.7540 O.co2 593  ASP593     -0.2456
     66  N         31.5020    6.7680   18.2100 N.3   595  LEU595     -0.1245
     67  CA        30.5600    6.3210   19.2290 C.3   595  LEU595      0.1561
     68  C         31.1150    5.1770   20.0640 C.2   595  LEU595      0.2260
     69  O         30.4490    4.6820   20.9720 O.2   595  LEU595     -0.2867
     70  CB        29.2220    5.9320   18.5940 C.3   595  LEU595      0.0270
     71  CG        28.4490    7.0960   17.9670 C.3   595  LEU595      0.0019
     72  CD1       27.1840    6.5990   17.2930 C.3   595  LEU595      0.0001
     73  CD2       28.1210    8.1650   19.0040 C.3   595  LEU595      0.0001
     74  N         31.7100    7.1650   23.2470 N.3   598  ASP598     -0.1239
     75  CA        30.4030    7.2720   23.8820 C.3   598  ASP598      0.1674
     76  C         30.0060    5.9330   24.4870 C.2   598  ASP598      0.2266
     77  O         29.5590    5.8560   25.6310 O.2   598  ASP598     -0.2867
     78  CB        29.3520    7.7060   22.8580 C.3   598  ASP598      0.1410
     79  CG        29.4090    9.1900   22.5530 C.2   598  ASP598      0.3668
     80  OD1       28.5410    9.9310   23.0610 O.co2 598  ASP598     -0.2456
     81  OD2       30.3170    9.6160   21.8080 O.co2 598  ASP598     -0.2456
     82  N         21.6820    6.0230   28.3350 N.3   624  TYR624     -0.1241
     83  CA        20.9150    5.6160   27.1640 C.3   624  TYR624      0.1605
     84  C         21.7120    4.6450   26.2960 C.2   624  TYR624      0.2264
     85  O         22.9410    4.6080   26.3580 O.2   624  TYR624     -0.2867
     86  CB        20.5050    6.8460   26.3490 C.3   624  TYR624      0.0534
     87  CG        21.6490    7.7990   26.0740 C.ar  624  TYR624     -0.0201
     88  CD1       22.4330    7.6640   24.9370 C.ar  624  TYR624     -0.0009
     89  CD2       21.9480    8.8310   26.9570 C.ar  624  TYR624     -0.0009
     90  CE1       23.4810    8.5300   24.6870 C.ar  624  TYR624      0.0417
     91  CE2       22.9930    9.6990   26.7130 C.ar  624  TYR624      0.0417
     92  CZ        23.7550    9.5440   25.5780 C.ar  624  TYR624      0.1957
     93  OH        24.7970   10.4080   25.3330 O.3   624  TYR624     -0.2866
     94  N         21.8470    5.6770   18.4420 N.3   636  ILE636     -0.1231
     95  CA        21.6890    6.1960   19.7950 C.3   636  ILE636      0.1692
     96  C         20.2280    6.1610   20.2230 C.2   636  ILE636      0.2592
     97  O         19.3410    6.5370   19.4570 O.2   636  ILE636     -0.2718
     98  CB        22.2070    7.6430   19.9000 C.3   636  ILE636      0.0266
     99  CG1       23.6650    7.7280   19.4360 C.3   636  ILE636      0.0019
    100  CG2       22.0580    8.1660   21.3230 C.3   636  ILE636      0.0020
    101  CD1       24.1970    9.1410   19.3370 C.3   636  ILE636      0.0001
    102  N         19.9820    5.7090   21.4490 N.am  637  GLU637     -0.1966
    103  CA        18.6280    5.6550   21.9850 C.3   637  GLU637      0.1733
    104  C         18.0670    7.0540   22.2130 C.2   637  GLU637      0.2616
    105  O         18.7910    7.9640   22.6170 O.2   637  GLU637     -0.2715
    106  CB        18.5960    4.8680   23.2980 C.3   637  GLU637      0.0429
    107  CG        17.2290    4.8530   23.9670 C.3   637  GLU637      0.1163
    108  CD        17.2230    4.1010   25.2830 C.2   637  GLU637      0.3649
    109  OE1       18.3110    3.7130   25.7560 O.co2 637  GLU637     -0.2457
    110  OE2       16.1270    3.8970   25.8470 O.co2 637  GLU637     -0.2457
    111  N         16.7750    7.2220   21.9510 N.am  638  ILE638     -0.1963
    112  CA        16.1080    8.4910   22.2070 C.3   638  ILE638      0.1727
    113  C         15.3230    8.4350   23.5120 C.2   638  ILE638      0.2616
    114  O         14.3570    7.6830   23.6310 O.2   638  ILE638     -0.2715
    115  CB        15.1430    8.8720   21.0730 C.3   638  ILE638      0.0290
    116  CG1       15.9180    9.2270   19.8020 C.3   638  ILE638      0.0022
    117  CG2       14.2670   10.0370   21.5020 C.3   638  ILE638      0.0023
    118  CD1       15.0430    9.7260   18.6730 C.3   638  ILE638      0.0001
    119  N         15.7430    9.2300   24.4900 N.am  639  VAL639     -0.1977
    120  CA        15.0150    9.3270   25.7490 C.3   639  VAL639      0.1596
    121  C         13.8180   10.2490   25.5550 C.2   639  VAL639      0.2287
    122  O         13.9750   11.4190   25.2040 O.2   639  VAL639     -0.2864
    123  CB        15.9050    9.8640   26.8850 C.3   639  VAL639      0.0276
    124  CG1       15.0970   10.0180   28.1640 C.3   639  VAL639      0.0022
    125  CG2       17.0960    8.9430   27.1070 C.3   639  VAL639      0.0022
    126  N         12.5750   14.4630   26.4960 N.3   642  ALA642     -0.1231
    127  CA        13.8210   15.0630   26.9540 C.3   642  ALA642      0.1694
    128  C         14.2830   16.1660   26.0110 C.2   642  ALA642      0.2593
    129  O         14.2160   16.0220   24.7890 O.2   642  ALA642     -0.2718
    130  CB        14.8990   14.0030   27.0960 C.3   642  ALA642      0.0304
    131  N         14.7520   17.2680   26.5880 N.am  643  THR643     -0.1939
    132  CA        15.2850   18.3810   25.8120 C.3   643  THR643      0.2028
    133  C         16.5910   18.8680   26.4290 C.2   643  THR643      0.2642
    134  O         16.8880   18.5730   27.5860 O.2   643  THR643     -0.2714
    135  CB        14.2920   19.5550   25.7430 C.3   643  THR643      0.1808
    136  OG1       14.8030   20.5640   24.8630 O.3   643  THR643     -0.2208
    137  CG2       14.0770   20.1550   27.1240 C.3   643  THR643      0.0379
    138  N         17.3700   19.6130   25.6510 N.am  644  THR644     -0.1950
    139  CA        18.6400   20.1430   26.1290 C.3   644  THR644      0.1897
    140  C         18.4030   21.2980   27.0940 C.2   644  THR644      0.2313
    141  O         17.3820   21.9810   27.0190 O.2   644  THR644     -0.2863
    142  CB        19.5240   20.6350   24.9640 C.3   644  THR644      0.1794
    143  OG1       18.9070   21.7660   24.3370 O.3   644  THR644     -0.2208
    144  CG2       19.7180   19.5330   23.9330 C.3   644  THR644      0.0378
    145  N         18.1980   24.6670   25.0720 N.3   647  LYS647     -0.1245
    146  CA        16.9410   25.0180   24.4220 C.3   647  LYS647      0.1561
    147  C         15.9520   25.6040   25.4230 C.2   647  LYS647      0.2260
    148  O         15.1280   26.4490   25.0740 O.2   647  LYS647     -0.2867
    149  CB        16.3300   23.7950   23.7350 C.3   647  LYS647      0.0271
    150  CG        15.0340   24.0460   22.9980 C.3   647  LYS647      0.0035
    151  CD        15.1330   25.0870   21.9250 C.3   647  LYS647      0.0206
    152  CE        13.7590   25.3670   21.3060 C.3   647  LYS647      0.1093
    153  NZ        13.7990   26.5120   20.3530 N.3   647  LYS647     -0.1314
    154  N         24.6210   22.8500   26.0950 N.3   707  ASP707     -0.1239
    155  CA        23.8290   22.1770   25.0720 C.3   707  ASP707      0.1674
    156  C         24.0060   20.6590   25.0960 C.2   707  ASP707      0.2266
    157  O         23.2640   19.9300   24.4380 O.2   707  ASP707     -0.2867
    158  CB        24.1740   22.7310   23.6860 C.3   707  ASP707      0.1410
    159  CG        23.3140   22.1360   22.5890 C.2   707  ASP707      0.3668
    160  OD1       22.1770   22.6190   22.3950 O.co2 707  ASP707     -0.2456
    161  OD2       23.7750   21.1890   21.9180 O.co2 707  ASP707     -0.2456
    162  N         20.8830   17.3770   29.0550 N.3   710  MET710     -0.1245
    163  CA        19.4480   17.2820   28.8020 C.3   710  MET710      0.1570
    164  C         18.6570   16.9400   30.0620 C.2   710  MET710      0.2261
    165  O         19.2070   16.4200   31.0320 O.2   710  MET710     -0.2867
    166  CB        19.1650   16.2380   27.7190 C.3   710  MET710      0.0387
    167  CG        19.9260   16.4610   26.4240 C.3   710  MET710      0.0595
    168  SD        19.4340   15.3030   25.1340 S.3   710  MET710     -0.1393
    169  CE        17.7380   15.8110   24.8680 C.3   710  MET710      0.0692
    170  N         20.4760   14.3420   32.2380 N.3   718  PHE718     -0.1241
    171  CA        21.5480   13.4580   31.7770 C.3   718  PHE718      0.1605
    172  C         22.4090   14.0750   30.6720 C.2   718  PHE718      0.2264
    173  O         21.9080   14.7870   29.8030 O.2   718  PHE718     -0.2867
    174  CB        20.9660   12.1230   31.3030 C.3   718  PHE718      0.0534
    175  CG        19.9970   12.2550   30.1620 C.ar  718  PHE718     -0.0203
    176  CD1       20.4120   12.0650   28.8540 C.ar  718  PHE718     -0.0042
    177  CD2       18.6710   12.5740   30.3990 C.ar  718  PHE718     -0.0042
    178  CE1       19.5200   12.1880   27.8030 C.ar  718  PHE718     -0.0003
    179  CE2       17.7760   12.6990   29.3540 C.ar  718  PHE718     -0.0003
    180  CZ        18.1990   12.5050   28.0550 C.ar  718  PHE718     -0.0000
    181  N         25.1300   14.0340   27.3470 N.3   720  ILE720     -0.1231
    182  CA        25.2130   13.3550   26.0550 C.3   720  ILE720      0.1692
    183  C         26.4750   13.7390   25.2820 C.2   720  ILE720      0.2592
    184  O         27.1590   14.7020   25.6300 O.2   720  ILE720     -0.2718
    185  CB        23.9890   13.6620   25.1720 C.3   720  ILE720      0.0266
    186  CG1       23.8910   15.1660   24.9020 C.3   720  ILE720      0.0019
    187  CG2       22.7180   13.1580   25.8290 C.3   720  ILE720      0.0020
    188  CD1       22.7560   15.5560   23.9750 C.3   720  ILE720      0.0001
    189  N         26.7760   12.9720   24.2360 N.am  721  ASP721     -0.1974
    190  CA        27.8750   13.2830   23.3200 C.3   721  ASP721      0.1709
    191  C         29.2390   13.3570   24.0120 C.2   721  ASP721      0.2293
    192  O         29.8070   14.4370   24.1730 O.2   721  ASP721     -0.2864
    193  CB        27.5900   14.5840   22.5650 C.3   721  ASP721      0.1436
    194  CG        28.4210   14.7210   21.3020 C.2   721  ASP721      0.3671
    195  OD1       29.4720   14.0540   21.2040 O.co2 721  ASP721     -0.2456
    196  OD2       28.0230   15.4980   20.4080 O.co2 721  ASP721     -0.2456
@<TRIPOS>BOND
     1    23    22    2
     2     4     3    2
     3    17    16    2
     4    20    21    1
     5    20    26    1
     6    22    21    1
     7     1     2    1
     8    21    24    1
     9    51    52    2
    10    51    50    1
    11     3     2    1
    12     3     9   am
    13    30    29    2
    14    16    15    1
    15    27    28    1
    16    26    25    1
    17     2     5    1
    18    12    11    2
    19    10    11    1
    20    10     9    1
    21    10    13    1
    22    50    49    1
    23    50    53    1
    24    11    14   am
    25    29    28    1
    26    24    25    1
    27    14    15    1
    28    28    31    1
    29    15    18    1
    30     5     6    1
    31    58    59    1
    32    54    53    1
    33    54    55    1
    34    31    32    1
    35     6     7    1
    36    18    19    1
    37    33    32   ar
    38    33    35   ar
    39    61    60    2
    40    43    44    2
    41    43    42    1
    42    32    34   ar
    43    59    60    1
    44    59    62    1
    45     7     8    1
    46    56    55    1
    47    56    57    1
    48    42    41    1
    49    42    45    1
    50    35    36   ar
    51    47    45    1
    52    62    63    1
    53    34    36   ar
    54    34    37   ar
    55    72    71    1
    56    64    63   ar
    57    45    46    1
    58    63    65   ar
    59    36    38   ar
    60    46    48    1
    61    71    70    1
    62    71    73    1
    63    37    39   ar
    64    66    67    1
    65    94    95    1
    66    70    67    1
    67   118   116    1
    68    38    40   ar
    69    67    68    1
    70    39    40   ar
    71   101    99    1
    72    99    98    1
    73    97    96    2
    74    95    98    1
    75    95    96    1
    76   116   115    1
    77    98   100    1
    78    68    69    2
    79    96   102   am
    80   153   152    1
    81   196   194   ar
    82   115   117    1
    83   115   112    1
    84   195   194   ar
    85   194   193    1
    86   152   151    1
    87   102   103    1
    88    81    79   ar
    89   161   159   ar
    90   151   150    1
    91   111   112    1
    92   111   104   am
    93   103   104    1
    94   103   106    1
    95   112   113    1
    96   104   105    2
    97   160   159   ar
    98    79    78    1
    99    79    80   ar
   100   193   190    1
   101   159   158    1
   102    78    75    1
   103   150   149    1
   104    74    75    1
   105   106   107    1
   106   190   191    1
   107   190   189    1
   108   113   114    2
   109   113   119   am
   110   158   155    1
   111   149   146    1
   112    75    76    1
   113   144   142    1
   114   107   108    1
   115   188   186    1
   116   191   192    2
   117   189   183   am
   118   143   142    1
   119   146   145    1
   120   146   147    1
   121   157   156    2
   122    76    77    2
   123   119   120    1
   124    90    88   ar
   125    90    92   ar
   126   129   128    2
   127   136   135    1
   128   169   168    1
   129   186   185    1
   130    88    87   ar
   131   142   139    1
   132   155   156    1
   133   155   154    1
   134   148   147    2
   135   168   167    1
   136   185   187    1
   137   185   182    1
   138   122   121    2
   139   183   184    2
   140   183   182    1
   141   108   109   ar
   142   108   110   ar
   143    93    92    1
   144   121   120    1
   145    92    91   ar
   146   138   139    1
   147   138   133   am
   148   135   132    1
   149   135   137    1
   150   120   123    1
   151   132   133    1
   152   132   131    1
   153   128   131   am
   154   128   127    1
   155   182   181    1
   156    87    86    1
   157    87    89   ar
   158   139   140    1
   159    84    85    2
   160    84    83    1
   161    86    83    1
   162   167   166    1
   163   133   134    2
   164   126   127    1
   165    91    89   ar
   166   123   125    1
   167   123   124    1
   168   127   130    1
   169   141   140    2
   170    83    82    1
   171   166   163    1
   172   178   180   ar
   173   178   176   ar
   174   180   179   ar
   175   163   162    1
   176   163   164    1
   177   176   175   ar
   178   179   177   ar
   179   173   172    2
   180   164   165    2
   181   175   177   ar
   182   175   174    1
   183   172   171    1
   184   174   171    1
   185   171   170    1
