@<TRIPOS>MOLECULE
tmp/3tjsA01.pdb
 206 197 0 0 0
SMALL
GASTEIGER

@<TRIPOS>ATOM
      1  N         10.2030  -14.5950  -21.8030 N.3    29  PHE29      -0.1241
      2  CA        11.5020  -13.9310  -21.5840 C.3    29  PHE29       0.1605
      3  C         12.4780  -14.1620  -22.7380 C.2    29  PHE29       0.2264
      4  O         13.2640  -13.2650  -23.1070 O.2    29  PHE29      -0.2867
      5  CB        12.2040  -14.5160  -20.3260 C.3    29  PHE29       0.0534
      6  CG        11.8090  -13.8940  -18.9930 C.ar   29  PHE29      -0.0203
      7  CD1       11.4680  -12.5560  -18.8730 C.ar   29  PHE29      -0.0042
      8  CD2       11.8810  -14.6610  -17.8330 C.ar   29  PHE29      -0.0042
      9  CE1       11.1500  -11.9890  -17.6290 C.ar   29  PHE29      -0.0003
     10  CE2       11.5760  -14.1120  -16.5710 C.ar   29  PHE29      -0.0003
     11  CZ        11.2110  -12.7650  -16.4670 C.ar   29  PHE29      -0.0000
     12  N         22.2350   -9.4510   -6.7360 N.3    77  ARG77      -0.1245
     13  CA        21.1480   -9.6730   -7.6840 C.3    77  ARG77       0.1563
     14  C         20.0200   -8.7150   -7.2970 C.2    77  ARG77       0.2260
     15  O         20.1530   -7.9930   -6.3350 O.2    77  ARG77      -0.2867
     16  CB        20.6600  -11.1070   -7.6390 C.3    77  ARG77       0.0307
     17  CG        21.6690  -12.1300   -7.8870 C.3    77  ARG77       0.0489
     18  CD        21.0990  -13.5080   -8.5220 C.3    77  ARG77       0.2205
     19  NE        22.2990  -14.2980   -8.9270 N.pl3  77  ARG77      -0.0865
     20  CZ        23.1000  -14.9170   -8.0550 C.cat  77  ARG77       0.5346
     21  NH1       24.2030  -15.5620   -8.4310 N.pl3  77  ARG77       0.1354
     22  NH2       22.7770  -14.9240   -6.7930 N.pl3  77  ARG77       0.1354
     23  N         14.4860   -9.4790   -3.9150 N.3    80  PHE80      -0.1241
     24  CA        13.4610  -10.4370   -4.3780 C.3    80  PHE80       0.1605
     25  C         12.2040  -10.5520   -3.5050 C.2    80  PHE80       0.2264
     26  O         12.2790  -11.0130   -2.3720 O.2    80  PHE80      -0.2867
     27  CB        14.0570  -11.8240   -4.6620 C.3    80  PHE80       0.0534
     28  CG        13.0110  -12.9230   -4.8800 C.ar   80  PHE80      -0.0203
     29  CD1       12.3720  -13.0800   -6.1150 C.ar   80  PHE80      -0.0042
     30  CD2       12.6760  -13.8170   -3.8440 C.ar   80  PHE80      -0.0042
     31  CE1       11.4130  -14.1080   -6.3160 C.ar   80  PHE80      -0.0003
     32  CE2       11.7180  -14.8380   -4.0340 C.ar   80  PHE80      -0.0003
     33  CZ        11.0880  -14.9790   -5.2750 C.ar   80  PHE80      -0.0000
     34  N         13.6710  -16.1020    4.6920 N.3    86  MET86      -0.1245
     35  CA        14.4070  -16.4640    3.4970 C.3    86  MET86       0.1570
     36  C         15.2360  -15.3260    2.9100 C.2    86  MET86       0.2261
     37  O         16.0320  -15.5460    1.9990 O.2    86  MET86      -0.2867
     38  CB        13.4630  -17.0680    2.4580 C.3    86  MET86       0.0387
     39  CG        12.9900  -18.4910    2.8550 C.3    86  MET86       0.0595
     40  SD        14.3260  -19.7160    2.7950 S.3    86  MET86      -0.1393
     41  CE        14.8540  -19.5300    1.1210 C.3    86  MET86       0.0692
     42  N         21.7150  -16.6300   -2.0490 N.3    91  SER91      -0.1202
     43  CA        21.3280  -16.0530   -3.3410 C.3    91  SER91       0.2020
     44  C         20.7320  -14.6550   -3.2960 C.2    91  SER91       0.2618
     45  O         20.8430  -13.9290   -4.2770 O.2    91  SER91      -0.2717
     46  CB        20.3940  -16.9640   -4.1200 C.3    91  SER91       0.2103
     47  OG        19.3950  -17.4930   -3.2750 O.3    91  SER91      -0.2182
     48  N         20.1550  -14.2640   -2.1640 N.am   92  ILE92      -0.1979
     49  CA        19.4180  -12.9980   -2.0340 C.3    92  ILE92       0.1595
     50  C         20.2390  -12.0220   -1.1810 C.2    92  ILE92       0.2287
     51  O         19.9520  -10.8190   -1.0970 O.2    92  ILE92      -0.2864
     52  CB        18.0850  -13.2900   -1.3100 C.3    92  ILE92       0.0276
     53  CG1       17.0430  -13.8310   -2.2640 C.3    92  ILE92       0.0022
     54  CG2       17.4700  -12.0610   -0.6020 C.3    92  ILE92       0.0022
     55  CD1       15.8010  -14.3750   -1.4660 C.3    92  ILE92       0.0001
     56  N          6.7000  -25.2530   -3.4250 N.3   182  LEU182     -0.1231
     57  CA         7.3720  -24.0180   -3.0810 C.3   182  LEU182      0.1693
     58  C          7.7510  -23.3470   -4.3950 C.2   182  LEU182      0.2591
     59  O          8.9220  -23.2410   -4.7280 O.2   182  LEU182     -0.2718
     60  CB         8.5910  -24.3390   -2.1950 C.3   182  LEU182      0.0284
     61  CG         9.6470  -23.2940   -1.7990 C.3   182  LEU182      0.0019
     62  CD1        9.7230  -23.1050   -0.2860 C.3   182  LEU182      0.0001
     63  CD2       11.0010  -23.6600   -2.3740 C.3   182  LEU182      0.0001
     64  N          6.7380  -22.9190   -5.1600 N.am  183  LEU183     -0.1980
     65  CA         6.9670  -22.4060   -6.5240 C.3   183  LEU183      0.1596
     66  C          5.8120  -21.5410   -7.0690 C.2   183  LEU183      0.2287
     67  O          4.6940  -21.5230   -6.5470 O.2   183  LEU183     -0.2864
     68  CB         7.2720  -23.5740   -7.4930 C.3   183  LEU183      0.0297
     69  CG         8.5560  -23.5310   -8.3300 C.3   183  LEU183      0.0022
     70  CD1        8.7800  -24.8420   -9.1020 C.3   183  LEU183      0.0001
     71  CD2        8.5610  -22.3490   -9.2810 C.3   183  LEU183      0.0001
     72  N          3.9810  -11.9830   -9.6010 N.3   185  PHE185     -0.1241
     73  CA         5.2800  -11.2850   -9.8470 C.3   185  PHE185      0.1605
     74  C          5.1260  -10.1770  -10.8730 C.2   185  PHE185      0.2264
     75  O          5.9270   -9.2380  -10.9240 O.2   185  PHE185     -0.2867
     76  CB         6.3760  -12.2260  -10.3400 C.3   185  PHE185      0.0534
     77  CG         6.8350  -13.2020   -9.3320 C.ar  185  PHE185     -0.0203
     78  CD1        6.9530  -14.5520   -9.6690 C.ar  185  PHE185     -0.0042
     79  CD2        7.1750  -12.7850   -8.0460 C.ar  185  PHE185     -0.0042
     80  CE1        7.3900  -15.4920   -8.7410 C.ar  185  PHE185     -0.0003
     81  CE2        7.6170  -13.7160   -7.0920 C.ar  185  PHE185     -0.0003
     82  CZ         7.7240  -15.0800   -7.4450 C.ar  185  PHE185     -0.0000
     83  N          6.0780  -15.9020   -1.1590 N.3   205  VAL205     -0.1231
     84  CA         5.9670  -16.4640   -2.5260 C.3   205  VAL205      0.1692
     85  C          5.8990  -18.0090   -2.5450 C.2   205  VAL205      0.2592
     86  O          5.7410  -18.6380   -3.6080 O.2   205  VAL205     -0.2718
     87  CB         7.0870  -15.9250   -3.5090 C.3   205  VAL205      0.0266
     88  CG1        7.1370  -14.3950   -3.4980 C.3   205  VAL205      0.0020
     89  CG2        8.4510  -16.4970   -3.1810 C.3   205  VAL205      0.0020
     90  N          6.0420  -18.5960   -1.3560 N.am  206  PHE206     -0.1976
     91  CA         5.8230  -20.0220   -1.1200 C.3   206  PHE206      0.1639
     92  C          4.8410  -20.1220    0.0270 C.2   206  PHE206      0.2290
     93  O          4.7570  -19.2020    0.8530 O.2   206  PHE206     -0.2864
     94  CB         7.1370  -20.7440   -0.7720 C.3   206  PHE206      0.0560
     95  CG         8.2200  -19.8360   -0.2260 C.ar  206  PHE206     -0.0200
     96  CD1        8.3850  -19.6660    1.1480 C.ar  206  PHE206     -0.0042
     97  CD2        9.0730  -19.1520   -1.0900 C.ar  206  PHE206     -0.0042
     98  CE1        9.3830  -18.8180    1.6440 C.ar  206  PHE206     -0.0003
     99  CE2       10.0650  -18.2980   -0.6020 C.ar  206  PHE206     -0.0003
    100  CZ        10.2190  -18.1320    0.7560 C.ar  206  PHE206     -0.0000
    101  N         17.1480  -24.7230    2.6500 N.3   253  ILE253     -0.1231
    102  CA        16.0540  -24.6860    1.6880 C.3   253  ILE253      0.1692
    103  C         16.5470  -24.3570    0.2390 C.2   253  ILE253      0.2591
    104  O         16.0670  -24.9270   -0.7470 O.2   253  ILE253     -0.2718
    105  CB        14.9320  -23.7350    2.1940 C.3   253  ILE253      0.0266
    106  CG1       14.1280  -24.4620    3.2710 C.3   253  ILE253      0.0019
    107  CG2       14.0300  -23.2590    1.0210 C.3   253  ILE253      0.0020
    108  CD1       13.1780  -23.6270    4.1120 C.3   253  ILE253      0.0001
    109  N         17.5090  -23.4550    0.1080 N.am  254  ILE254     -0.1980
    110  CA        18.0910  -23.1830   -1.2090 C.3   254  ILE254      0.1595
    111  C         18.7650  -24.4480   -1.8280 C.2   254  ILE254      0.2287
    112  O         18.4690  -24.8640   -2.9950 O.2   254  ILE254     -0.2864
    113  CB        19.1370  -22.0730   -1.1300 C.3   254  ILE254      0.0276
    114  CG1       18.4890  -20.7570   -0.7340 C.3   254  ILE254      0.0022
    115  CG2       19.9740  -21.9490   -2.4800 C.3   254  ILE254      0.0022
    116  CD1       17.5660  -20.1690   -1.7600 C.3   254  ILE254      0.0001
    117  N         16.2060  -27.0810   -2.6590 N.3   257  PHE257     -0.1227
    118  CA        15.4870  -26.8110   -3.8700 C.3   257  PHE257      0.1736
    119  C         16.3660  -26.9920   -5.1000 C.2   257  PHE257      0.2595
    120  O         16.0260  -27.7610   -5.9990 O.2   257  PHE257     -0.2718
    121  CB        14.8210  -25.4510   -3.8570 C.3   257  PHE257      0.0547
    122  CG        13.8660  -25.2270   -5.0490 C.ar  257  PHE257     -0.0202
    123  CD1       12.5530  -25.6700   -4.9940 C.ar  257  PHE257     -0.0042
    124  CD2       14.3120  -24.5840   -6.2380 C.ar  257  PHE257     -0.0042
    125  CE1       11.6540  -25.4800   -6.1120 C.ar  257  PHE257     -0.0003
    126  CE2       13.4240  -24.3770   -7.3470 C.ar  257  PHE257     -0.0003
    127  CZ        12.0960  -24.8330   -7.2690 C.ar  257  PHE257     -0.0000
    128  N         17.5030  -26.3100   -5.1390 N.am  258  ALA258     -0.1980
    129  CA        18.3550  -26.3800   -6.2820 C.3   258  ALA258      0.1597
    130  C         18.8520  -27.7920   -6.5670 C.2   258  ALA258      0.2287
    131  O         19.0240  -28.1380   -7.7230 O.2   258  ALA258     -0.2864
    132  CB        19.5230  -25.4170   -6.1230 C.3   258  ALA258      0.0319
    133  N         16.7290  -28.2710  -10.2470 N.3   262  THR262     -0.1218
    134  CA        17.6250  -27.9930  -11.3910 C.3   262  THR262      0.1862
    135  C         18.2190  -29.2880  -12.0230 C.2   262  THR262      0.2287
    136  O         18.2080  -29.4440  -13.2450 O.2   262  THR262     -0.2866
    137  CB        18.8190  -27.0970  -10.9960 C.3   262  THR262      0.1770
    138  OG1       19.5870  -27.7890  -10.0220 O.3   262  THR262     -0.2211
    139  CG2       18.3800  -25.8160  -10.4020 C.3   262  THR262      0.0375
    140  N         18.8970  -23.1390  -17.8360 N.3   322  ILE322     -0.1231
    141  CA        17.7440  -22.9570  -16.9590 C.3   322  ILE322      0.1692
    142  C         17.6650  -21.5760  -16.1960 C.2   322  ILE322      0.2592
    143  O         16.5660  -21.1010  -15.8650 O.2   322  ILE322     -0.2718
    144  CB        17.5740  -24.2070  -16.0310 C.3   322  ILE322      0.0266
    145  CG1       18.5620  -24.2200  -14.8860 C.3   322  ILE322      0.0019
    146  CG2       17.6180  -25.5330  -16.8540 C.3   322  ILE322      0.0020
    147  CD1       17.9660  -23.5320  -13.6510 C.3   322  ILE322      0.0001
    148  N         18.8010  -20.8980  -16.0080 N.am  323  ALA323     -0.1966
    149  CA        18.7160  -19.5020  -15.4930 C.3   323  ALA323      0.1728
    150  C         18.1260  -18.4920  -16.5530 C.2   323  ALA323      0.2616
    151  O         17.3450  -17.5910  -16.1900 O.2   323  ALA323     -0.2715
    152  CB        20.1120  -18.9790  -14.8910 C.3   323  ALA323      0.0334
    153  N         18.5100  -18.6290  -17.8140 N.am  324  MET324     -0.1963
    154  CA        17.9250  -17.8490  -18.9230 C.3   324  MET324      0.1736
    155  C         18.3420  -16.3980  -19.0500 C.2   324  MET324      0.2616
    156  O         18.2810  -15.8740  -20.1490 O.2   324  MET324     -0.2715
    157  CB        16.3960  -17.7540  -18.8410 C.3   324  MET324      0.0427
    158  CG        15.6200  -18.9100  -19.4630 C.3   324  MET324      0.0599
    159  SD        13.9180  -18.6500  -18.9000 S.3   324  MET324     -0.1393
    160  CE        13.0050  -19.5660  -20.1190 C.3   324  MET324      0.0692
    161  N         18.7910  -15.8030  -17.9210 N.am  325  ARG325     -0.1963
    162  CA        19.3460  -14.4560  -17.8370 C.3   325  ARG325      0.1729
    163  C         20.1910  -14.4650  -16.5480 C.2   325  ARG325      0.2616
    164  O         19.8090  -15.0960  -15.6020 O.2   325  ARG325     -0.2715
    165  CB        18.3090  -13.3080  -17.7180 C.3   325  ARG325      0.0348
    166  CG        17.0590  -13.3980  -18.6330 C.3   325  ARG325      0.0492
    167  CD        16.1340  -12.2880  -18.3140 C.3   325  ARG325      0.2205
    168  NE        15.5030  -11.6350  -19.4510 N.pl3 325  ARG325     -0.0865
    169  CZ        14.4660  -10.8120  -19.3290 C.cat 325  ARG325      0.5346
    170  NH1       13.9770  -10.5610  -18.1290 N.pl3 325  ARG325      0.1354
    171  NH2       13.9230  -10.2360  -20.3900 N.pl3 325  ARG325      0.1354
    172  N         21.2920  -13.7250  -16.5120 N.am  326  LEU326     -0.1963
    173  CA        21.9940  -13.4150  -15.2590 C.3   326  LEU326      0.1728
    174  C         21.8250  -11.9250  -14.9870 C.2   326  LEU326      0.2616
    175  O         21.6980  -11.1350  -15.9480 O.2   326  LEU326     -0.2715
    176  CB        23.4840  -13.6830  -15.3900 C.3   326  LEU326      0.0311
    177  CG        23.8260  -14.9860  -16.1000 C.3   326  LEU326      0.0022
    178  CD1       25.3010  -14.7950  -16.4130 C.3   326  LEU326      0.0001
    179  CD2       23.5710  -16.2070  -15.1500 C.3   326  LEU326      0.0001
    180  N         21.8770  -11.5290  -13.7110 N.am  327  GLU327     -0.1977
    181  CA        21.6080  -10.1630  -13.3490 C.3   327  GLU327      0.1602
    182  C         22.4960   -9.6700  -12.2800 C.2   327  GLU327      0.2287
    183  O         22.8400  -10.4080  -11.3800 O.2   327  GLU327     -0.2864
    184  CB        20.1550  -10.0350  -12.8160 C.3   327  GLU327      0.0415
    185  CG        19.2550   -9.8410  -13.9810 C.3   327  GLU327      0.1163
    186  CD        17.7860  -10.0060  -13.6420 C.2   327  GLU327      0.3649
    187  OE1       17.0070  -10.1080  -14.6110 O.co2 327  GLU327     -0.2457
    188  OE2       17.4390  -10.0250  -12.4270 O.co2 327  GLU327     -0.2457
    189  N         27.4020  -20.0760   -9.9020 N.3   395  CYS395     -0.1235
    190  CA        26.5470  -21.0340   -9.2420 C.3   395  CYS395      0.1677
    191  C         27.4170  -21.8840   -8.3580 C.2   395  CYS395      0.2270
    192  O         28.2500  -22.6460   -8.8730 O.2   395  CYS395     -0.2867
    193  CB        25.9640  -21.9650  -10.2920 C.3   395  CYS395      0.0956
    194  SG        25.2160  -23.4150   -9.5210 S.3   395  CYS395     -0.0801
    195  N          8.1530  -17.7260  -16.2970 N.3   434  GLY434     -0.1210
    196  CA         9.5130  -17.2810  -15.9900 C.3   434  GLY434      0.1956
    197  C         10.4970  -18.3310  -15.4760 C.2   434  GLY434      0.2611
    198  O         11.4380  -18.0000  -14.6980 O.2   434  GLY434     -0.2717
    199  N         10.3120  -19.5750  -15.9490 N.am  435  LEU435     -0.1979
    200  CA        11.0960  -20.7680  -15.5390 C.3   435  LEU435      0.1596
    201  C         11.3500  -21.6150  -16.7740 C.2   435  LEU435      0.2287
    202  O         10.4120  -21.8760  -17.5390 O.2   435  LEU435     -0.2864
    203  CB        10.2950  -21.6020  -14.5320 C.3   435  LEU435      0.0297
    204  CG        10.1150  -21.1680  -13.0750 C.3   435  LEU435      0.0022
    205  CD1        8.6270  -20.8200  -12.7950 C.3   435  LEU435      0.0001
    206  CD2       10.5740  -22.3080  -12.1380 C.3   435  LEU435      0.0001
@<TRIPOS>BOND
     1     4     3    2
     2     3     2    1
     3     1     2    1
     4     2     5    1
     5   171   169    1
     6     5     6    1
     7   156   155    2
     8   160   159    1
     9   158   159    1
    10   158   157    1
    11   168   169    2
    12   168   167    1
    13   169   170    1
    14   155   154    1
    15   155   161   am
    16     6     7   ar
    17     6     8   ar
    18   154   157    1
    19   154   153    1
    20     7     9   ar
    21   166   167    1
    22   166   165    1
    23   161   162    1
    24   162   165    1
    25   162   163    1
    26   140   141    1
    27     8    10   ar
    28   153   150   am
    29     9    11   ar
    30   202   201    2
    31   141   142    1
    32   141   144    1
    33   146   144    1
    34   201   200    1
    35    10    11   ar
    36   150   151    2
    37   150   149    1
    38   163   172   am
    39   163   164    2
    40   172   173    1
    41   178   177    1
    42   195   196    1
    43   142   148   am
    44   142   143    2
    45   177   176    1
    46   177   179    1
    47   144   145    1
    48   148   149    1
    49   196   197    1
    50   199   200    1
    51   199   197   am
    52   175   174    2
    53   200   203    1
    54   149   152    1
    55   197   198    2
    56   176   173    1
    57   173   174    1
    58   174   180   am
    59   145   147    1
    60   187   186   ar
    61   203   204    1
    62   185   186    1
    63   185   184    1
    64   180   181    1
    65   186   188   ar
    66   181   184    1
    67   181   182    1
    68   136   135    2
    69   204   205    1
    70   204   206    1
    71   182   183    2
    72   135   134    1
    73   134   137    1
    74   134   133    1
    75   137   139    1
    76   137   138    1
    77    75    74    2
    78    74    73    1
    79    76    73    1
    80    76    77    1
    81   193   194    1
    82   193   190    1
    83   189   190    1
    84    73    72    1
    85    78    77   ar
    86    78    80   ar
    87    77    79   ar
    88    71    69    1
    89   190   191    1
    90    70    69    1
    91    19    18    1
    92    19    20    2
    93   192   191    2
    94    80    82   ar
    95    18    17    1
    96    21    20    1
    97    69    68    1
    98    20    22    1
    99    79    81   ar
   100    17    16    1
   101   131   130    2
   102    13    16    1
   103    13    14    1
   104    13    12    1
   105    68    65    1
   106    82    81   ar
   107   126   127   ar
   108   126   124   ar
   109    14    15    2
   110   127   125   ar
   111    66    67    2
   112    66    65    1
   113   130   129    1
   114    65    64    1
   115    31    29   ar
   116    31    33   ar
   117   129   132    1
   118   129   128    1
   119   124   122   ar
   120    29    28   ar
   121   125   123   ar
   122   120   119    2
   123    33    32   ar
   124    64    58   am
   125   128   119   am
   126   119   118    1
   127   122   123   ar
   128   122   121    1
   129    28    27    1
   130    28    30   ar
   131    59    58    2
   132    27    24    1
   133    58    57    1
   134    24    23    1
   135    24    25    1
   136    45    44    2
   137    46    43    1
   138    46    47    1
   139    32    30   ar
   140   118   121    1
   141   118   117    1
   142    86    85    2
   143    87    88    1
   144    87    89    1
   145    87    84    1
   146    25    26    2
   147    56    57    1
   148    43    44    1
   149    43    42    1
   150    44    48   am
   151    57    60    1
   152   112   111    2
   153    85    84    1
   154    85    90   am
   155    84    83    1
   156   115   113    1
   157    63    61    1
   158    53    55    1
   159    53    52    1
   160    60    61    1
   161    48    49    1
   162    49    52    1
   163    49    50    1
   164   111   110    1
   165    61    62    1
   166   116   114    1
   167    90    91    1
   168    52    54    1
   169   110   113    1
   170   110   109    1
   171    50    51    2
   172   113   114    1
   173    91    94    1
   174    91    92    1
   175    97    99   ar
   176    97    95   ar
   177    94    95    1
   178   104   103    2
   179    99   100   ar
   180    95    96   ar
   181    92    93    2
   182   109   103   am
   183   103   102    1
   184   100    98   ar
   185   107   105    1
   186    41    40    1
   187    96    98   ar
   188   102   105    1
   189   102   101    1
   190    37    36    2
   191   105   106    1
   192    38    39    1
   193    38    35    1
   194    40    39    1
   195    36    35    1
   196   106   108    1
   197    35    34    1
