@<TRIPOS>MOLECULE
tmp/3tjzA00.pdb
 164 157 0 0 0
SMALL
GASTEIGER

@<TRIPOS>ATOM
      1  N          8.8520  -64.5950   -4.9440 N.3     9  ASP9       -0.1225
      2  CA         9.4880  -63.3280   -4.6000 C.3     9  ASP9        0.1805
      3  C          9.5980  -62.4080   -5.8220 C.2     9  ASP9        0.2598
      4  O          9.8680  -62.8560   -6.9370 O.2     9  ASP9       -0.2718
      5  CB        10.8650  -63.5740   -3.9800 C.3     9  ASP9        0.1424
      6  CG        11.7060  -64.5360   -4.7970 C.2     9  ASP9        0.3668
      7  OD1       11.4120  -65.7500   -4.7640 O.co2   9  ASP9       -0.2456
      8  OD2       12.6590  -64.0870   -5.4710 O.co2   9  ASP9       -0.2456
      9  N          9.3300  -61.1270   -5.6030 N.am   10  GLY10      -0.1942
     10  CA         9.3870  -60.1320   -6.6550 C.3    10  GLY10       0.2014
     11  C          8.2360  -60.1050   -7.6420 C.2    10  GLY10       0.2639
     12  O          8.3200  -59.4590   -8.6700 O.2    10  GLY10      -0.2714
     13  N          7.1690  -60.8230   -7.3480 N.am   11  ALA11      -0.1963
     14  CA         6.0140  -60.8450   -8.2240 C.3    11  ALA11       0.1728
     15  C          5.2790  -59.5170   -8.1530 C.2    11  ALA11       0.2617
     16  O          4.6300  -59.1150   -9.1220 O.2    11  ALA11      -0.2715
     17  CB         5.0770  -61.9980   -7.8440 C.3    11  ALA11       0.0334
     18  N          5.4570  -58.8050   -7.0420 N.am   12  GLY12      -0.1940
     19  CA         4.6870  -57.6080   -6.7630 C.3    12  GLY12       0.2014
     20  C          3.6060  -57.6610   -5.6920 C.2    12  GLY12       0.2639
     21  O          2.7360  -56.8080   -5.6650 O.2    12  GLY12      -0.2714
     22  N          3.6490  -58.6500   -4.8050 N.am   13  LYS13      -0.1963
     23  CA         2.6220  -58.7780   -3.7650 C.3    13  LYS13       0.1728
     24  C          2.5020  -57.5680   -2.8160 C.2    13  LYS13       0.2617
     25  O          1.3710  -57.0900   -2.5590 O.2    13  LYS13      -0.2715
     26  CB         2.8010  -60.0810   -2.9700 C.3    13  LYS13       0.0311
     27  CG         2.9720  -61.3340   -3.8240 C.3    13  LYS13       0.0038
     28  CD         3.2840  -62.5650   -2.9680 C.3    13  LYS13       0.0206
     29  CE         4.6880  -62.5200   -2.4100 C.3    13  LYS13       0.1093
     30  NZ         5.7190  -62.8530   -3.4390 N.3    13  LYS13      -0.1314
     31  N          3.6240  -57.0610   -2.2870 N.am   14  THR14      -0.1937
     32  CA         3.5030  -55.9300   -1.3500 C.3    14  THR14       0.2028
     33  C          3.1420  -54.6430   -2.0890 C.2    14  THR14       0.2642
     34  O          2.3220  -53.8530   -1.6140 O.2    14  THR14      -0.2714
     35  CB         4.7580  -55.6460   -0.4600 C.3    14  THR14       0.1808
     36  OG1        5.8620  -55.3080   -1.2910 O.3    14  THR14      -0.2208
     37  CG2        5.1370  -56.8020    0.3740 C.3    14  THR14       0.0379
     38  N          3.7680  -54.4250   -3.2400 N.am   15  THR15      -0.1950
     39  CA         3.3770  -53.3030   -4.0800 C.3    15  THR15       0.1897
     40  C          1.8500  -53.2660   -4.2670 C.2    15  THR15       0.2313
     41  O          1.2110  -52.2370   -4.0360 O.2    15  THR15      -0.2863
     42  CB         4.1000  -53.3170   -5.4450 C.3    15  THR15       0.1794
     43  OG1        5.5170  -53.1500   -5.2510 O.3    15  THR15      -0.2208
     44  CG2        3.6040  -52.1760   -6.2870 C.3    15  THR15       0.0378
     45  N          2.4890  -45.9660   -4.3440 N.3    25  VAL25      -0.1231
     46  CA         3.4230  -46.9780   -4.8220 C.3    25  VAL25       0.1692
     47  C          4.6680  -46.8840   -3.9550 C.2    25  VAL25       0.2591
     48  O          5.4690  -45.9600   -4.0960 O.2    25  VAL25      -0.2718
     49  CB         3.7990  -46.7270   -6.3130 C.3    25  VAL25       0.0266
     50  CG1        4.9310  -47.6220   -6.7360 C.3    25  VAL25       0.0020
     51  CG2        2.5910  -46.9170   -7.2220 C.3    25  VAL25       0.0020
     52  N          4.8580  -47.8410   -3.0570 N.am   26  ILE26      -0.1980
     53  CA         5.9160  -47.6550   -2.0650 C.3    26  ILE26       0.1595
     54  C          7.2200  -48.2690   -2.5340 C.2    26  ILE26       0.2287
     55  O          7.2530  -48.9670   -3.5330 O.2    26  ILE26      -0.2864
     56  CB         5.5350  -48.2720   -0.7150 C.3    26  ILE26       0.0276
     57  CG1        5.6050  -49.8040   -0.7900 C.3    26  ILE26       0.0022
     58  CG2        4.1550  -47.7640   -0.2410 C.3    26  ILE26       0.0022
     59  CD1        4.9310  -50.5320    0.4070 C.3    26  ILE26       0.0001
     60  N          9.5390  -51.0710   -1.9280 N.3    28  THR28      -0.1203
     61  CA         9.4740  -52.2900   -1.1280 C.3    28  THR28       0.1994
     62  C         10.8520  -52.7690   -0.7500 C.2    28  THR28       0.2618
     63  O         11.8330  -52.4480   -1.4370 O.2    28  THR28      -0.2717
     64  CB         8.8270  -53.4160   -1.9080 C.3    28  THR28       0.1784
     65  OG1        9.6930  -53.7830   -2.9960 O.3    28  THR28      -0.2211
     66  CG2        7.4510  -52.9740   -2.4050 C.3    28  THR28       0.0376
     67  N         10.9050  -53.5440    0.3350 N.am   29  ILE29      -0.1966
     68  CA        12.0170  -54.4650    0.5810 C.3    29  ILE29       0.1712
     69  C         11.4540  -55.8750    0.4780 C.2    29  ILE29       0.2458
     70  O         10.2420  -56.0910    0.6680 O.2    29  ILE29      -0.2730
     71  CB        12.6590  -54.3080    1.9710 C.3    29  ILE29       0.0289
     72  CG1       11.6230  -54.5490    3.0630 C.3    29  ILE29       0.0022
     73  CG2       13.3500  -52.9440    2.1360 C.3    29  ILE29       0.0023
     74  CD1       12.1570  -54.3980    4.4480 C.3    29  ILE29       0.0001
     75  N         12.3210  -56.8530    0.1830 N.am   30  PRO30      -0.2716
     76  CA        11.8090  -58.2360    0.2220 C.3    30  PRO30       0.1536
     77  C         11.1360  -58.5010    1.5640 C.2    30  PRO30       0.2599
     78  O         11.6340  -58.1100    2.6450 O.2    30  PRO30      -0.2715
     79  CB        13.0760  -59.0910    0.0860 C.3    30  PRO30       0.0310
     80  CG        14.0750  -58.1690   -0.6200 C.3    30  PRO30       0.0237
     81  CD        13.7660  -56.7880   -0.1020 C.3    30  PRO30       0.0939
     82  N         10.0110  -59.1850    1.5240 N.am   31  THR31      -0.1951
     83  CA         9.2520  -59.3810    2.7560 C.3    31  THR31       0.1897
     84  C          9.6630  -60.6670    3.4640 C.2    31  THR31       0.2313
     85  O          9.3450  -61.7520    2.9900 O.2    31  THR31      -0.2863
     86  CB         7.7690  -59.4360    2.4070 C.3    31  THR31       0.1794
     87  OG1        7.4520  -58.3230    1.5470 O.3    31  THR31      -0.2208
     88  CG2        6.9000  -59.4280    3.6680 C.3    31  THR31       0.0378
     89  N         -0.2440  -60.7270    3.0170 N.3    50  ASP50      -0.1239
     90  CA         0.7760  -60.7530    1.9800 C.3    50  ASP50       0.1674
     91  C          1.9810  -61.5140    2.5430 C.2    50  ASP50       0.2266
     92  O          2.7030  -61.0340    3.4210 O.2    50  ASP50      -0.2867
     93  CB         1.1480  -59.3050    1.6520 C.3    50  ASP50       0.1410
     94  CG         2.5270  -59.1660    1.0460 C.2    50  ASP50       0.3668
     95  OD1        2.9870  -60.0840    0.3270 O.co2  50  ASP50      -0.2456
     96  OD2        3.1420  -58.1110    1.2940 O.co2  50  ASP50      -0.2456
     97  N          5.6270  -63.2780    2.2600 N.3    52  GLY52      -0.1210
     98  CA         6.8120  -63.2330    1.4380 C.3    52  GLY52       0.1956
     99  C          7.0780  -64.4850    0.6270 C.2    52  GLY52       0.2612
    100  O          6.8560  -65.6050    1.0850 O.2    52  GLY52      -0.2717
    101  N          7.5870  -64.2830   -0.5840 N.am   53  GLY53      -0.1942
    102  CA         7.7760  -65.3710   -1.5150 C.3    53  GLY53       0.2014
    103  C          9.1580  -66.0010   -1.6220 C.2    53  GLY53       0.2638
    104  O          9.3220  -66.9800   -2.3600 O.2    53  GLY53      -0.2714
    105  N         10.1620  -65.4760   -0.9260 N.am   54  GLN54      -0.1977
    106  CA        11.4610  -66.1420   -0.9780 C.3    54  GLN54       0.1601
    107  C         11.3950  -67.4720   -0.2190 C.2    54  GLN54       0.2287
    108  O         10.5250  -67.6640    0.6300 O.2    54  GLN54      -0.2864
    109  CB        12.6000  -65.2440   -0.4890 C.3    54  GLN54       0.0394
    110  CG        12.3980  -64.6630    0.8960 C.3    54  GLN54       0.0908
    111  CD        13.7170  -64.2870    1.5610 C.2    54  GLN54       0.2608
    112  OE1       14.1570  -63.1340    1.4840 O.2    54  GLN54      -0.2717
    113  NE2       14.3610  -65.2690    2.2150 N.am   54  GLN54      -0.0878
    114  N          0.9150  -59.9890  -13.4370 N.3   109  ASN109     -0.1225
    115  CA         1.2690  -58.6550  -12.9790 C.3   109  ASN109      0.1785
    116  C          2.4160  -58.1240  -13.8210 C.2   109  ASN109      0.2597
    117  O          2.9080  -58.8350  -14.6880 O.2   109  ASN109     -0.2718
    118  CB         1.6260  -58.6830  -11.4750 C.3   109  ASN109      0.1169
    119  CG         1.7760  -57.2840  -10.8700 C.2   109  ASN109      0.2627
    120  OD1        1.0910  -56.3450  -11.2730 O.2   109  ASN109     -0.2716
    121  ND2        2.6780  -57.1440   -9.9030 N.am  109  ASN109     -0.0877
    122  N          2.8310  -56.8800  -13.5640 N.am  110  LYS110     -0.1980
    123  CA         3.8270  -56.1740  -14.3820 C.3   110  LYS110      0.1596
    124  C          3.4530  -56.2360  -15.8540 C.2   110  LYS110      0.2287
    125  O          4.3130  -56.3000  -16.7330 O.2   110  LYS110     -0.2864
    126  CB         5.2260  -56.7410  -14.1680 C.3   110  LYS110      0.0298
    127  CG         5.5040  -57.0610  -12.7380 C.3   110  LYS110      0.0038
    128  CD         6.9180  -57.5010  -12.5310 C.3   110  LYS110      0.0206
    129  CE         7.2430  -57.4920  -11.0640 C.3   110  LYS110      0.1093
    130  NZ         8.6690  -57.7670  -10.8620 N.3   110  LYS110     -0.1314
    131  N          2.6420  -54.0560  -17.4900 N.3   112  ASP112     -0.1225
    132  CA         3.1590  -52.8140  -18.0590 C.3   112  ASP112      0.1805
    133  C          4.4590  -52.9850  -18.8350 C.2   112  ASP112      0.2597
    134  O          4.8390  -52.1090  -19.5990 O.2   112  ASP112     -0.2718
    135  CB         3.3600  -51.7710  -16.9490 C.3   112  ASP112      0.1424
    136  CG         4.5550  -52.0800  -16.0520 C.2   112  ASP112      0.3668
    137  OD1        4.9680  -53.2530  -15.9690 O.co2 112  ASP112     -0.2456
    138  OD2        5.0810  -51.1440  -15.4210 O.co2 112  ASP112     -0.2456
    139  N          5.1460  -54.1020  -18.6200 N.am  113  LEU113     -0.1979
    140  CA         6.4380  -54.3430  -19.2550 C.3   113  LEU113      0.1596
    141  C          6.2250  -54.9000  -20.6540 C.2   113  LEU113      0.2287
    142  O          5.3370  -55.7340  -20.8680 O.2   113  LEU113     -0.2864
    143  CB         7.2790  -55.2870  -18.4010 C.3   113  LEU113      0.0297
    144  CG         7.5270  -54.7620  -16.9850 C.3   113  LEU113      0.0022
    145  CD1        7.9700  -55.8730  -16.0490 C.3   113  LEU113      0.0001
    146  CD2        8.5600  -53.6640  -17.0430 C.3   113  LEU113      0.0001
    147  N         -1.4790  -54.1990  -13.2750 N.3   142  CYS142     -0.1221
    148  CA        -0.2540  -53.4590  -13.0690 C.3   142  CYS142      0.1808
    149  C         -0.3900  -52.8210  -11.7080 C.2   142  CYS142      0.2601
    150  O         -1.2170  -51.9360  -11.5100 O.2   142  CYS142     -0.2717
    151  CB        -0.0500  -52.3960  -14.1490 C.3   142  CYS142      0.0970
    152  SG         1.3730  -51.2880  -13.8900 S.3   142  CYS142     -0.0800
    153  N          0.4340  -53.2480  -10.7660 N.am  143  ALA143     -0.1965
    154  CA         0.2180  -52.7900   -9.4090 C.3   143  ALA143      0.1728
    155  C          0.6420  -51.3330   -9.2400 C.2   143  ALA143      0.2616
    156  O          0.0770  -50.6060   -8.4230 O.2   143  ALA143     -0.2715
    157  CB         0.9090  -53.7130   -8.4020 C.3   143  ALA143      0.0334
    158  N          1.6260  -50.9050  -10.0270 N.am  144  THR144     -0.1951
    159  CA         2.0730  -49.5190   -9.9620 C.3   144  THR144      0.1897
    160  C          1.0060  -48.5440  -10.4810 C.2   144  THR144      0.2313
    161  O          0.7380  -47.5380   -9.8380 O.2   144  THR144     -0.2863
    162  CB         3.4320  -49.3010  -10.6620 C.3   144  THR144      0.1794
    163  OG1        3.3030  -49.5110  -12.0760 O.3   144  THR144     -0.2208
    164  CG2        4.4520  -50.2640  -10.1090 C.3   144  THR144      0.0378
@<TRIPOS>BOND
     1   142   141    2
     2   141   140    1
     3   134   133    2
     4   140   139    1
     5   140   143    1
     6   133   139   am
     7   133   132    1
     8   143   144    1
     9   132   131    1
    10   132   135    1
    11   146   144    1
    12   144   145    1
    13   135   136    1
    14   125   124    2
    15   136   137   ar
    16   136   138   ar
    17   124   123    1
    18   117   116    2
    19   123   126    1
    20   123   122    1
    21   126   127    1
    22   151   152    1
    23   151   148    1
    24   116   122   am
    25   116   115    1
    26   114   115    1
    27   147   148    1
    28   148   149    1
    29   115   118    1
    30   127   128    1
    31   128   129    1
    32   163   162    1
    33   149   150    2
    34   149   153   am
    35   118   119    1
    36   120   119    2
    37   129   130    1
    38   119   121   am
    39   153   154    1
    40   162   164    1
    41   162   159    1
    42   160   159    1
    43   160   161    2
    44   158   159    1
    45   158   155   am
    46   154   155    1
    47   154   157    1
    48   155   156    2
    49    16    15    2
    50    12    11    2
    51    14    15    1
    52    14    17    1
    53    14    13    1
    54    15    18   am
    55    11    13   am
    56    11    10    1
    57    51    49    1
    58    18    19    1
    59     4     3    2
    60    19    20    1
    61    50    49    1
    62    10     9    1
    63    49    46    1
    64    44    42    1
    65     3     9   am
    66     3     2    1
    67    20    21    2
    68    20    22   am
    69     8     6   ar
    70    42    43    1
    71    42    39    1
    72     1     2    1
    73    46    45    1
    74    46    47    1
    75    22    23    1
    76     6     7   ar
    77     6     5    1
    78     2     5    1
    79    40    39    1
    80    40    41    2
    81    48    47    2
    82    39    38    1
    83    47    52   am
    84    27    26    1
    85    27    28    1
    86    23    26    1
    87    23    24    1
    88    55    54    2
    89    30    29    1
    90    38    33   am
    91    52    53    1
    92    65    64    1
    93    28    29    1
    94    24    25    2
    95    24    31   am
    96    54    53    1
    97    66    64    1
    98   104   103    2
    99    31    32    1
   100    33    34    2
   101    33    32    1
   102    53    56    1
   103    60    61    1
   104    64    61    1
   105   103   102    1
   106   103   105   am
   107   102   101    1
   108    63    62    2
   109    32    35    1
   110    36    35    1
   111    61    62    1
   112   106   105    1
   113   106   109    1
   114   106   107    1
   115    57    56    1
   116    57    59    1
   117    62    67   am
   118    56    58    1
   119    80    81    1
   120    80    79    1
   121   101    99   am
   122   109   110    1
   123    35    37    1
   124   107   108    2
   125    81    75    1
   126    79    76    1
   127    75    76    1
   128    75    69   am
   129    76    77    1
   130    95    94   ar
   131    67    68    1
   132    69    68    1
   133    69    70    2
   134    68    71    1
   135    99   100    2
   136    99    98    1
   137   110   111    1
   138    94    96   ar
   139    94    93    1
   140    98    97    1
   141   112   111    2
   142    82    77   am
   143    82    83    1
   144    87    86    1
   145   111   113   am
   146    77    78    2
   147    93    90    1
   148    71    73    1
   149    71    72    1
   150    90    91    1
   151    90    89    1
   152    86    83    1
   153    86    88    1
   154    91    92    2
   155    83    84    1
   156    85    84    2
   157    72    74    1
