@<TRIPOS>MOLECULE
tmp/3tk0A00.pdb
 243 236 0 0 0
SMALL
GASTEIGER

@<TRIPOS>ATOM
      1  N          4.4680   -9.7000   -4.5410 N.3    20  ARG20      -0.1231
      2  CA         3.3870  -10.6430   -4.2910 C.3    20  ARG20       0.1694
      3  C          2.0940  -10.1710   -4.9370 C.2    20  ARG20       0.2591
      4  O          1.3720  -10.9170   -5.5860 O.2    20  ARG20      -0.2718
      5  CB         3.0750  -10.7290   -2.7840 C.3    20  ARG20       0.0321
      6  CG         1.7660  -11.6500   -2.4620 C.3    20  ARG20       0.0489
      7  CD         1.6930  -11.9060   -0.9290 C.3    20  ARG20       0.2205
      8  NE         1.7760  -10.6510   -0.1950 N.pl3  20  ARG20      -0.0865
      9  CZ         1.6420  -10.5700    1.1440 C.cat  20  ARG20       0.5346
     10  NH1        1.3980  -11.6850    1.8180 N.pl3  20  ARG20       0.1354
     11  NH2        1.7460   -9.4260    1.8050 N.pl3  20  ARG20       0.1354
     12  N          1.7730   -8.8920   -4.7440 N.am   21  GLU21      -0.1979
     13  CA         0.5050   -8.3570   -5.2770 C.3    21  GLU21       0.1602
     14  C          0.5110   -8.2640   -6.7930 C.2    21  GLU21       0.2287
     15  O         -0.4600   -8.6670   -7.4150 O.2    21  GLU21      -0.2864
     16  CB         0.2640   -6.9200   -4.6820 C.3    21  GLU21       0.0415
     17  CG        -0.0730   -6.9850   -3.1440 C.3    21  GLU21       0.1163
     18  CD         1.0860   -7.4680   -2.2420 C.2    21  GLU21       0.3649
     19  OE1        2.2770   -7.0670   -2.4670 O.co2  21  GLU21      -0.2457
     20  OE2        0.7300   -8.3130   -1.3630 O.co2  21  GLU21      -0.2457
     21  N          0.1660  -11.6710   -8.2610 N.3    24  GLY24      -0.1210
     22  CA        -1.2540  -12.0210   -8.0990 C.3    24  GLY24       0.1956
     23  C         -2.1220  -11.4690   -9.2310 C.2    24  GLY24       0.2611
     24  O         -2.8920  -12.2310   -9.8500 O.2    24  GLY24      -0.2717
     25  N         -1.9720  -10.1500   -9.5300 N.am   25  ARG25      -0.1979
     26  CA        -2.7790   -9.5600  -10.6020 C.3    25  ARG25       0.1597
     27  C         -2.4610  -10.1930  -11.9610 C.2    25  ARG25       0.2287
     28  O         -3.3970  -10.4960  -12.7320 O.2    25  ARG25      -0.2864
     29  CB        -2.5820   -8.0340  -10.6570 C.3    25  ARG25       0.0334
     30  CG        -2.9990   -7.2500   -9.3920 C.3    25  ARG25       0.0492
     31  CD        -2.3740   -5.7580   -9.4170 C.3    25  ARG25       0.2205
     32  NE        -2.4700   -5.2410   -8.0540 N.pl3  25  ARG25      -0.0865
     33  CZ        -1.5810   -4.4350   -7.5320 C.cat  25  ARG25       0.5346
     34  NH1       -0.5100   -4.1050   -8.2630 N.pl3  25  ARG25       0.1354
     35  NH2       -1.7570   -3.9900   -6.2900 N.pl3  25  ARG25       0.1354
     36  N         -1.4340  -13.2050  -12.4450 N.3    27  SER27      -0.1202
     37  CA        -1.8170  -14.6280  -12.3980 C.3    27  SER27       0.2020
     38  C         -3.3100  -14.7480  -12.5270 C.2    27  SER27       0.2618
     39  O         -3.7780  -15.6180  -13.2550 O.2    27  SER27      -0.2717
     40  CB        -1.3080  -15.2500  -11.1120 C.3    27  SER27       0.2103
     41  OG         0.1190  -15.2690  -11.1430 O.3    27  SER27      -0.2182
     42  N         -4.0840  -13.9030  -11.8270 N.am   28  TRP28      -0.1975
     43  CA        -5.5220  -13.9580  -12.0110 C.3    28  TRP28       0.1640
     44  C         -5.8610  -13.6360  -13.4490 C.2    28  TRP28       0.2290
     45  O         -6.7470  -14.2870  -14.0100 O.2    28  TRP28      -0.2864
     46  CB        -6.3110  -13.0800  -11.0520 C.3    28  TRP28       0.0576
     47  CG        -6.2240  -13.4930   -9.6140 C.ar   28  TRP28       0.0006
     48  CD1       -5.6760  -12.7320   -8.6090 C.ar   28  TRP28       0.0946
     49  CD2       -6.7770  -14.6440   -9.0000 C.ar   28  TRP28       0.0152
     50  NE1       -5.8110  -13.3660   -7.3950 N.ar   28  TRP28      -0.2442
     51  CE2       -6.4290  -14.5610   -7.6060 C.ar   28  TRP28       0.0810
     52  CE3       -7.4020  -15.8110   -9.4680 C.ar   28  TRP28       0.0012
     53  CZ2       -6.7690  -15.5410   -6.6990 C.ar   28  TRP28       0.0191
     54  CZ3       -7.7720  -16.8000   -8.5410 C.ar   28  TRP28       0.0001
     55  CH2       -7.4470  -16.6310   -7.1750 C.ar   28  TRP28       0.0015
     56  N         -5.2090  -16.8040  -15.3940 N.3    31  LEU31      -0.1231
     57  CA        -6.1670  -17.8930  -15.1470 C.3    31  LEU31       0.1693
     58  C         -7.5680  -17.5640  -15.6490 C.2    31  LEU31       0.2592
     59  O         -8.2020  -18.3970  -16.2660 O.2    31  LEU31      -0.2718
     60  CB        -6.2350  -18.1910  -13.6580 C.3    31  LEU31       0.0284
     61  CG        -4.8920  -18.7340  -13.0710 C.3    31  LEU31       0.0019
     62  CD1       -4.9690  -18.8510  -11.4890 C.3    31  LEU31       0.0001
     63  CD2       -4.4390  -20.1400  -13.6350 C.3    31  LEU31       0.0001
     64  N         -8.0350  -16.3460  -15.3980 N.am   32  HIS32      -0.1976
     65  CA        -9.4180  -16.0240  -15.8230 C.3    32  HIS32       0.1656
     66  C         -9.4820  -15.9870  -17.3400 C.2    32  HIS32       0.2291
     67  O        -10.5410  -16.3270  -17.8950 O.2    32  HIS32      -0.2864
     68  CB        -9.9480  -14.6910  -15.1670 C.3    32  HIS32       0.0771
     69  CG       -10.1900  -14.7840  -13.7090 C.ar   32  HIS32       0.0820
     70  ND1      -11.2230  -15.5340  -13.1690 N.ar   32  HIS32      -0.2267
     71  CD2       -9.5870  -14.1510  -12.6740 C.ar   32  HIS32       0.1154
     72  CE1      -11.1630  -15.4090  -11.8340 C.ar   32  HIS32       0.1986
     73  NE2      -10.2380  -14.5240  -11.5190 N.ar   32  HIS32      -0.2212
     74  N         -0.2030  -25.6160  -11.2570 N.3    57  PHE57      -0.1241
     75  CA        -0.0810  -24.1960  -10.9010 C.3    57  PHE57       0.1605
     76  C          0.0950  -24.0500   -9.3820 C.2    57  PHE57       0.2264
     77  O          0.9940  -23.3220   -8.9270 O.2    57  PHE57      -0.2867
     78  CB        -1.2570  -23.4200  -11.4780 C.3    57  PHE57       0.0534
     79  CG        -1.0780  -21.9330  -11.3410 C.ar   57  PHE57      -0.0203
     80  CD1       -0.3060  -21.2470  -12.2720 C.ar   57  PHE57      -0.0042
     81  CD2       -1.6430  -21.2490  -10.2820 C.ar   57  PHE57      -0.0042
     82  CE1       -0.0830  -19.8300  -12.1770 C.ar   57  PHE57      -0.0003
     83  CE2       -1.4600  -19.8620  -10.2080 C.ar   57  PHE57      -0.0003
     84  CZ        -0.6860  -19.1710  -11.1440 C.ar   57  PHE57      -0.0000
     85  N          3.3090  -22.1010   -7.6660 N.3    61  TYR61      -0.1241
     86  CA         3.1110  -20.6750   -7.4000 C.3    61  TYR61       0.1605
     87  C          4.1710  -20.2500   -6.3870 C.2    61  TYR61       0.2264
     88  O          4.2800  -20.8780   -5.3690 O.2    61  TYR61      -0.2867
     89  CB         1.6810  -20.4470   -6.8630 C.3    61  TYR61       0.0534
     90  CG         1.3310  -18.9870   -6.9590 C.ar   61  TYR61      -0.0201
     91  CD1        1.1610  -18.4240   -8.2150 C.ar   61  TYR61      -0.0009
     92  CD2        1.0660  -18.2520   -5.8150 C.ar   61  TYR61      -0.0009
     93  CE1        0.8200  -17.0300   -8.3440 C.ar   61  TYR61       0.0417
     94  CE2        0.7480  -16.8870   -5.9080 C.ar   61  TYR61       0.0417
     95  CZ         0.5890  -16.3200   -7.1780 C.ar   61  TYR61       0.1957
     96  OH         0.2370  -15.0040   -7.2860 O.3    61  TYR61      -0.2866
     97  N          3.1420  -18.6750    1.0240 N.3    65  GLU65      -0.1231
     98  CA         1.9180  -18.5400    1.8100 C.3    65  GLU65       0.1699
     99  C          0.6690  -18.6200    0.9040 C.2    65  GLU65       0.2592
    100  O         -0.2700  -19.3970    1.2110 O.2    65  GLU65      -0.2718
    101  CB         1.9800  -17.2640    2.6510 C.3    65  GLU65       0.0402
    102  CG         0.7690  -17.1050    3.5400 C.3    65  GLU65       0.1161
    103  CD         0.7180  -15.7600    4.2940 C.2    65  GLU65       0.3649
    104  OE1        0.5510  -14.6770    3.6930 O.co2  65  GLU65      -0.2457
    105  OE2        0.7580  -15.7910    5.5340 O.co2  65  GLU65      -0.2457
    106  N          0.6910  -17.8950   -0.2260 N.am   66  CYS66      -0.1970
    107  CA        -0.4160  -17.9520   -1.1820 C.3    66  CYS66       0.1712
    108  C         -0.5870  -19.4000   -1.7540 C.2    66  CYS66       0.2296
    109  O         -1.7050  -19.9300   -1.9110 O.2    66  CYS66      -0.2864
    110  CB        -0.0930  -17.0970   -2.3920 C.3    66  CYS66       0.0983
    111  SG         0.1240  -15.2890   -2.0280 S.3    66  CYS66      -0.0798
    112  N         -2.0430  -21.8630    0.7800 N.3    69  ASP69      -0.1225
    113  CA        -3.4780  -21.5800    1.0070 C.3    69  ASP69       0.1805
    114  C         -4.2390  -22.1240   -0.2150 C.2    69  ASP69       0.2597
    115  O         -5.3510  -22.7310   -0.1000 O.2    69  ASP69      -0.2718
    116  CB        -3.6660  -20.0740    1.1730 C.3    69  ASP69       0.1424
    117  CG        -5.1530  -19.6390    1.0860 C.2    69  ASP69       0.3668
    118  OD1       -5.6400  -19.4050    2.1930 O.co2  69  ASP69      -0.2456
    119  OD2       -5.7810  -19.6000   -0.0530 O.co2  69  ASP69      -0.2456
    120  N         -3.6730  -21.9280   -1.4100 N.am   70  LEU70      -0.1979
    121  CA        -4.3190  -22.4810   -2.5970 C.3    70  LEU70       0.1596
    122  C         -4.4310  -24.0350   -2.5810 C.2    70  LEU70       0.2287
    123  O         -5.4440  -24.5980   -2.9820 O.2    70  LEU70      -0.2864
    124  CB        -3.5720  -22.0190   -3.8440 C.3    70  LEU70       0.0297
    125  CG        -4.1180  -22.5450   -5.1400 C.3    70  LEU70       0.0022
    126  CD1       -5.7010  -22.1790   -5.4120 C.3    70  LEU70       0.0001
    127  CD2       -3.2370  -22.0660   -6.3830 C.3    70  LEU70       0.0001
    128  N        -14.0680  -18.0020  -10.5510 N.3    92  CYS92      -0.1235
    129  CA       -14.5790  -16.8000   -9.9200 C.3    92  CYS92       0.1677
    130  C        -14.8630  -16.9770   -8.4120 C.2    92  CYS92       0.2270
    131  O        -14.4710  -16.1200   -7.6010 O.2    92  CYS92      -0.2867
    132  CB       -15.8770  -16.3080  -10.6240 C.3    92  CYS92       0.0956
    133  SG       -16.4410  -14.7280   -9.9070 S.3    92  CYS92      -0.0801
    134  N        -13.5550  -19.2420   -6.4930 N.3    94  LEU94      -0.1231
    135  CA       -12.2320  -19.4190   -5.8160 C.3    94  LEU94       0.1693
    136  C        -11.5440  -18.0590   -5.5580 C.2    94  LEU94       0.2592
    137  O        -11.0600  -17.7840   -4.4660 O.2    94  LEU94      -0.2718
    138  CB       -11.3180  -20.3180   -6.6380 C.3    94  LEU94       0.0284
    139  CG        -9.9310  -20.5480   -6.0020 C.3    94  LEU94       0.0019
    140  CD1       -9.9190  -21.4830   -4.8280 C.3    94  LEU94       0.0001
    141  CD2       -8.9330  -20.9890   -7.0830 C.3    94  LEU94       0.0001
    142  N        -11.4790  -17.2390   -6.5840 N.am   95  HIS95      -0.1962
    143  CA       -10.9240  -15.8820   -6.4780 C.3    95  HIS95       0.1787
    144  C        -11.6770  -15.1290   -5.3640 C.2    95  HIS95       0.2620
    145  O        -11.0070  -14.4380   -4.5350 O.2    95  HIS95      -0.2715
    146  CB       -10.9390  -15.1740   -7.8530 C.3    95  HIS95       0.0785
    147  CG       -10.1200  -13.9150   -7.9150 C.ar   95  HIS95       0.0821
    148  ND1       -9.8270  -13.3150   -9.1230 N.ar   95  HIS95      -0.2267
    149  CD2       -9.6140  -13.1050   -6.9500 C.ar   95  HIS95       0.1154
    150  CE1       -9.1250  -12.2120   -8.9060 C.ar   95  HIS95       0.1986
    151  NE2       -8.9660  -12.0610   -7.5900 N.ar   95  HIS95      -0.2212
    152  N        -13.0210  -15.2540   -5.3170 N.am   96  ASN96      -0.1972
    153  CA       -13.7390  -14.5750   -4.1770 C.3    96  ASN96       0.1688
    154  C        -13.3700  -15.1250   -2.8240 C.2    96  ASN96       0.2292
    155  O        -13.3740  -14.3310   -1.8640 O.2    96  ASN96      -0.2864
    156  CB       -15.2330  -14.6220   -4.3990 C.3    96  ASN96       0.1181
    157  CG       -15.7140  -13.5920   -5.3890 C.2    96  ASN96       0.2629
    158  OD1      -16.8460  -13.7690   -5.9800 O.2    96  ASN96      -0.2716
    159  ND2      -15.0060  -12.4600   -5.5190 N.am   96  ASN96      -0.0877
    160  N        -10.4000  -15.9450   -1.9070 N.3    98  VAL98      -0.1231
    161  CA        -9.1730  -15.1920   -1.6110 C.3    98  VAL98       0.1692
    162  C         -9.4860  -13.7560   -1.3060 C.2    98  VAL98       0.2592
    163  O         -8.9030  -13.1490   -0.3750 O.2    98  VAL98      -0.2718
    164  CB        -8.1500  -15.3350   -2.7720 C.3    98  VAL98       0.0266
    165  CG1       -6.8570  -14.5540   -2.4560 C.3    98  VAL98       0.0020
    166  CG2       -7.8060  -16.8500   -2.9510 C.3    98  VAL98       0.0020
    167  N        -10.3400  -13.0980   -2.1220 N.am   99  ASN99      -0.1974
    168  CA       -10.7720  -11.6870   -1.8450 C.3    99  ASN99       0.1688
    169  C        -11.2900  -11.5960   -0.4070 C.2    99  ASN99       0.2292
    170  O        -10.8210  -10.7340    0.3430 O.2    99  ASN99      -0.2864
    171  CB       -11.8900  -11.2960   -2.8100 C.3    99  ASN99       0.1181
    172  CG       -11.3820  -11.1230   -4.2490 C.2    99  ASN99       0.2629
    173  OD1      -10.1750  -10.8970   -4.4740 O.2    99  ASN99      -0.2716
    174  ND2      -12.3410  -11.1230   -5.2110 N.am   99  ASN99      -0.0877
    175  N        -10.7930  -13.5670    2.2300 N.3   101  LYS101     -0.1231
    176  CA        -9.6790  -13.7710    3.1540 C.3   101  LYS101      0.1693
    177  C         -8.9220  -12.4720    3.3940 C.2   101  LYS101      0.2591
    178  O         -8.4260  -12.2130    4.5120 O.2   101  LYS101     -0.2718
    179  CB        -8.7420  -14.8300    2.5240 C.3   101  LYS101      0.0285
    180  CG        -7.5820  -15.0980    3.3710 C.3   101  LYS101      0.0035
    181  CD        -6.4780  -15.8740    2.5580 C.3   101  LYS101      0.0206
    182  CE        -5.2640  -16.0880    3.5270 C.3   101  LYS101      0.1093
    183  NZ        -4.2910  -17.0520    2.9400 N.3   101  LYS101     -0.1314
    184  N         -8.6730  -11.6890    2.3590 N.am  102  LEU102     -0.1980
    185  CA        -7.8380  -10.4450    2.3650 C.3   102  LEU102      0.1596
    186  C         -8.5840   -9.1450    2.5830 C.2   102  LEU102      0.2287
    187  O         -7.9970   -8.0430    2.4840 O.2   102  LEU102     -0.2864
    188  CB        -7.1040  -10.3750    0.9820 C.3   102  LEU102      0.0297
    189  CG        -6.2270  -11.5770    0.6620 C.3   102  LEU102      0.0022
    190  CD1       -5.5490  -11.3550   -0.7050 C.3   102  LEU102      0.0001
    191  CD2       -5.1570  -11.8080    1.7410 C.3   102  LEU102      0.0001
    192  N        -11.1750   -7.9080    0.7640 N.3   104  LYS104     -0.1245
    193  CA       -11.5460   -7.2620   -0.4620 C.3   104  LYS104      0.1561
    194  C        -12.9870   -7.6670   -0.7430 C.2   104  LYS104      0.2260
    195  O        -13.4560   -8.7010   -0.2860 O.2   104  LYS104     -0.2867
    196  CB       -10.6670   -7.7570   -1.6010 C.3   104  LYS104      0.0271
    197  CG        -9.1810   -7.4730   -1.4440 C.3   104  LYS104      0.0035
    198  CD        -8.3730   -8.0440   -2.6200 C.3   104  LYS104      0.0206
    199  CE        -6.8960   -7.9610   -2.3690 C.3   104  LYS104      0.1093
    200  NZ        -6.4310   -6.5370   -2.5650 N.3   104  LYS104     -0.1314
    201  N        -16.3990  -10.0960   -6.0280 N.3   107  PHE107     -0.1241
    202  CA       -16.6840   -9.7840   -7.4100 C.3   107  PHE107      0.1605
    203  C        -17.9160  -10.5250   -7.8430 C.2   107  PHE107      0.2264
    204  O        -18.1230  -11.7060   -7.5000 O.2   107  PHE107     -0.2867
    205  CB       -15.4280  -10.2220   -8.2360 C.3   107  PHE107      0.0534
    206  CG       -15.5080   -9.8470   -9.7060 C.ar  107  PHE107     -0.0203
    207  CD1      -15.0160   -8.6330  -10.1460 C.ar  107  PHE107     -0.0042
    208  CD2      -16.0830  -10.7570  -10.6180 C.ar  107  PHE107     -0.0042
    209  CE1      -15.0900   -8.3070  -11.4990 C.ar  107  PHE107     -0.0003
    210  CE2      -16.1950  -10.4130  -11.9880 C.ar  107  PHE107     -0.0003
    211  CZ       -15.6990   -9.1750  -12.3840 C.ar  107  PHE107     -0.0000
    212  N        -18.3580  -12.2950  -15.1410 N.3   112  VAL112     -0.1245
    213  CA       -17.0460  -12.8550  -15.5670 C.3   112  VAL112      0.1561
    214  C        -16.8270  -12.8560  -17.0890 C.2   112  VAL112      0.2260
    215  O        -15.7200  -12.5580  -17.5850 O.2   112  VAL112     -0.2867
    216  CB       -16.7310  -14.2760  -14.9860 C.3   112  VAL112      0.0252
    217  CG1      -16.5170  -14.1410  -13.4550 C.3   112  VAL112      0.0019
    218  CG2      -17.6380  -15.3760  -15.4760 C.3   112  VAL112      0.0019
    219  N        -16.0390   -9.2540  -18.0450 N.3   115  ARG115     -0.1231
    220  CA       -14.7330   -8.8040  -17.5630 C.3   115  ARG115      0.1694
    221  C        -13.5490   -9.4440  -18.2670 C.2   115  ARG115      0.2592
    222  O        -12.5450   -8.7820  -18.4930 O.2   115  ARG115     -0.2718
    223  CB       -14.6530   -9.1990  -16.0650 C.3   115  ARG115      0.0321
    224  CG       -13.2900   -8.9580  -15.4060 C.3   115  ARG115      0.0489
    225  CD       -12.9620   -7.5130  -15.3520 C.3   115  ARG115      0.2205
    226  NE       -11.5960   -7.2960  -14.7910 N.pl3 115  ARG115     -0.0865
    227  CZ       -10.4950   -7.2950  -15.5090 C.cat 115  ARG115      0.5346
    228  NH1      -10.5030   -7.6140  -16.8090 N.pl3 115  ARG115      0.1354
    229  NH2       -9.3280   -6.9870  -14.9220 N.pl3 115  ARG115      0.1354
    230  N        -13.6870  -10.7160  -18.6390 N.am  116  TRP116     -0.1976
    231  CA       -12.5130  -11.4550  -19.0770 C.3   116  TRP116      0.1640
    232  C        -12.5900  -11.8780  -20.5290 C.2   116  TRP116      0.2290
    233  O        -11.5450  -12.3010  -21.1240 O.2   116  TRP116     -0.2864
    234  CB       -12.2420  -12.6550  -18.1360 C.3   116  TRP116      0.0576
    235  CG       -11.8430  -12.1810  -16.7840 C.ar  116  TRP116      0.0006
    236  CD1      -12.4910  -12.3140  -15.5930 C.ar  116  TRP116      0.0946
    237  CD2      -10.5770  -11.5580  -16.4620 C.ar  116  TRP116      0.0152
    238  NE1      -11.7620  -11.7780  -14.5760 N.ar  116  TRP116     -0.2442
    239  CE2      -10.5720  -11.3080  -15.0620 C.ar  116  TRP116      0.0810
    240  CE3       -9.4890  -11.1290  -17.2250 C.ar  116  TRP116      0.0012
    241  CZ2       -9.5080  -10.6750  -14.3950 C.ar  116  TRP116      0.0191
    242  CZ3       -8.3910  -10.4880  -16.5430 C.ar  116  TRP116      0.0001
    243  CH2       -8.4230  -10.2440  -15.1530 C.ar  116  TRP116      0.0015
@<TRIPOS>BOND
     1   233   232    2
     2   232   231    1
     3   231   230    1
     4   231   234    1
     5   230   221   am
     6   222   221    2
     7   221   220    1
     8   234   235    1
     9   219   220    1
    10    67    66    2
    11   215   214    2
    12   220   223    1
    13    66    65    1
    14   240   242   ar
    15   240   237   ar
    16   214   213    1
    17   228   227    1
    18   235   237   ar
    19   235   236   ar
    20   242   243   ar
    21   237   239   ar
    22    59    58    2
    23   223   224    1
    24    65    64    1
    25    65    68    1
    26    58    64   am
    27    58    57    1
    28   236   238   ar
    29   213   212    1
    30   213   216    1
    31   227   229    1
    32   227   226    2
    33   218   216    1
    34   224   225    1
    35    56    57    1
    36   225   226    1
    37    68    69    1
    38   243   241   ar
    39    57    60    1
    40   239   238   ar
    41   239   241   ar
    42   216   217    1
    43    45    44    2
    44    69    70   ar
    45    69    71   ar
    46    60    61    1
    47    63    61    1
    48    44    43    1
    49    39    38    2
    50    70    72   ar
    51    61    62    1
    52    28    27    2
    53    71    73   ar
    54    38    37    1
    55    38    42   am
    56    36    37    1
    57    37    40    1
    58   211   210   ar
    59   211   209   ar
    60    80    82   ar
    61    80    79   ar
    62    82    84   ar
    63    43    42    1
    64    43    46    1
    65   210   208   ar
    66    27    26    1
    67    72    73   ar
    68   209   207   ar
    69    78    79    1
    70    78    75    1
    71    79    81   ar
    72    74    75    1
    73    84    83   ar
    74    41    40    1
    75    46    47    1
    76    75    76    1
    77    29    26    1
    78    29    30    1
    79   132   129    1
    80   132   133    1
    81   208   206   ar
    82    26    25    1
    83   128   129    1
    84    81    83   ar
    85   207   206   ar
    86   129   130    1
    87    24    23    2
    88   206   205    1
    89    47    49   ar
    90    47    48   ar
    91    25    23   am
    92    52    49   ar
    93    52    54   ar
    94    31    30    1
    95    31    32    1
    96    76    77    2
    97    23    22    1
    98   148   150   ar
    99   148   147   ar
   100    49    51   ar
   101   150   151   ar
   102    48    50   ar
   103    54    55   ar
   104   130   131    2
   105    93    91   ar
   106    93    95   ar
   107    34    33    1
   108    21    22    1
   109   205   202    1
   110    91    90   ar
   111    32    33    2
   112   147   146    1
   113   147   149   ar
   114   146   143    1
   115   203   204    2
   116   203   202    1
   117    85    86    1
   118    51    50   ar
   119    51    53   ar
   120   151   149   ar
   121    33    35    1
   122    15    14    2
   123   202   201    1
   124    86    89    1
   125    86    87    1
   126    96    95    1
   127    95    94   ar
   128    55    53   ar
   129   141   139    1
   130    90    89    1
   131    90    92   ar
   132    14    13    1
   133   138   139    1
   134   138   135    1
   135   142   143    1
   136   142   136   am
   137   134   135    1
   138   143   144    1
   139    87    88    2
   140   127   125    1
   141   139   140    1
   142   158   157    2
   143    94    92   ar
   144   135   136    1
   145     4     3    2
   146   136   137    2
   147   159   157   am
   148   126   125    1
   149   157   156    1
   150   144   152   am
   151   144   145    2
   152   152   153    1
   153    13    12    1
   154    13    16    1
   155   174   172   am
   156   125   124    1
   157     3    12   am
   158     3     2    1
   159    16    17    1
   160     1     2    1
   161   173   172    2
   162   156   153    1
   163     2     5    1
   164   172   171    1
   165   153   154    1
   166   124   121    1
   167    17    18    1
   168   123   122    2
   169   166   164    1
   170   154   155    2
   171   171   168    1
   172     5     6    1
   173   164   165    1
   174   164   161    1
   175   198   199    1
   176   198   197    1
   177   121   122    1
   178   121   120    1
   179   200   199    1
   180    19    18   ar
   181     6     7    1
   182   110   111    1
   183   110   107    1
   184    18    20   ar
   185   167   168    1
   186   167   162   am
   187   109   108    2
   188   160   161    1
   189   168   169    1
   190   108   107    1
   191   161   162    1
   192   196   197    1
   193   196   193    1
   194   120   114   am
   195   162   163    2
   196   107   106    1
   197     7     8    1
   198   194   193    1
   199   194   195    2
   200   190   189    1
   201   193   192    1
   202   169   170    2
   203   106    99   am
   204   114   115    2
   205   114   113    1
   206     8     9    2
   207   119   117   ar
   208   189   188    1
   209   189   191    1
   210   112   113    1
   211    99   100    2
   212    99    98    1
   213   188   185    1
   214   113   116    1
   215    97    98    1
   216   117   116    1
   217   117   118   ar
   218     9    11    1
   219     9    10    1
   220    98   101    1
   221   175   176    1
   222   184   185    1
   223   184   177   am
   224   185   186    1
   225   187   186    2
   226   179   176    1
   227   179   180    1
   228   181   180    1
   229   181   182    1
   230   101   102    1
   231   183   182    1
   232   176   177    1
   233   177   178    2
   234   102   103    1
   235   104   103   ar
   236   103   105   ar
