@<TRIPOS>MOLECULE
tmp/3tk1B00.pdb
 95 92 0 0 0
SMALL
GASTEIGER

@<TRIPOS>ATOM
      1  N        -37.5610  -12.3880   -8.4280 N.3    58  VAL58      -0.1231
      2  CA       -38.5880  -12.1620   -9.4220 C.3    58  VAL58       0.1678
      3  C        -39.8630  -12.9160   -9.0470 C.2    58  VAL58       0.2434
      4  O        -39.8090  -13.9650   -8.4160 O.2    58  VAL58      -0.2733
      5  CB       -38.1140  -12.5480  -10.8240 C.3    58  VAL58       0.0265
      6  CG1      -36.7960  -11.8300  -11.1040 C.3    58  VAL58       0.0020
      7  CG2      -38.0130  -14.0560  -10.9470 C.3    58  VAL58       0.0020
      8  N        -41.0250  -12.3660   -9.4380 N.am   59  PRO59      -0.2718
      9  CA       -42.3200  -13.0210   -9.2080 C.3    59  PRO59       0.1535
     10  C        -42.3120  -14.4850   -9.6280 C.2    59  PRO59       0.2599
     11  O        -41.8090  -14.8040  -10.7210 O.2    59  PRO59      -0.2715
     12  CB       -43.2790  -12.2040  -10.0870 C.3    59  PRO59       0.0310
     13  CG       -42.6960  -10.8290  -10.0980 C.3    59  PRO59       0.0237
     14  CD       -41.1850  -10.9860   -9.9580 C.3    59  PRO59       0.0939
     15  N        -42.8610  -15.3600   -8.7720 N.am   60  GLY60      -0.1941
     16  CA       -42.9000  -16.7990   -9.0400 C.3    60  GLY60       0.2014
     17  C        -41.7230  -17.5740   -8.4750 C.2    60  GLY60       0.2639
     18  O        -41.7320  -18.8230   -8.4820 O.2    60  GLY60      -0.2714
     19  N        -40.7150  -16.8480   -7.9710 N.am   61  VAL61      -0.1963
     20  CA       -39.5390  -17.4850   -7.4120 C.3    61  VAL61       0.1727
     21  C        -39.8540  -18.2300   -6.1090 C.2    61  VAL61       0.2617
     22  O        -39.1090  -19.1320   -5.7050 O.2    61  VAL61      -0.2715
     23  CB       -38.3750  -16.4730   -7.1970 C.3    61  VAL61       0.0290
     24  CG1      -38.6780  -15.4730   -6.0900 C.3    61  VAL61       0.0023
     25  CG2      -37.1000  -17.2130   -6.8800 C.3    61  VAL61       0.0023
     26  N        -40.9560  -17.8520   -5.4510 N.am   62  GLY62      -0.1940
     27  CA       -41.3040  -18.4190   -4.1300 C.3    62  GLY62       0.2014
     28  C        -41.0570  -17.4770   -2.9480 C.2    62  GLY62       0.2639
     29  O        -40.9110  -17.9260   -1.8030 O.2    62  GLY62      -0.2714
     30  N        -41.0510  -16.1690   -3.2060 N.am   63  LYS63      -0.1963
     31  CA       -40.7340  -15.1710   -2.1520 C.3    63  LYS63       0.1728
     32  C        -41.7590  -15.1700   -0.9990 C.2    63  LYS63       0.2617
     33  O        -41.4120  -15.1440    0.1780 O.2    63  LYS63      -0.2715
     34  CB       -40.6410  -13.7780   -2.7700 C.3    63  LYS63       0.0311
     35  CG       -40.0930  -12.7180   -1.8650 C.3    63  LYS63       0.0038
     36  CD       -39.5220  -11.5240   -2.6600 C.3    63  LYS63       0.0206
     37  CE       -40.5400  -10.8960   -3.6040 C.3    63  LYS63       0.1093
     38  NZ       -41.7360  -10.3860   -2.8860 N.3    63  LYS63      -0.1314
     39  N        -43.0300  -15.2130   -1.3400 N.am   64  SER64      -0.1936
     40  CA       -44.0520  -15.0800   -0.3070 C.3    64  SER64       0.2055
     41  C        -44.0970  -16.3710    0.5350 C.2    64  SER64       0.2643
     42  O        -44.1220  -16.3370    1.7670 O.2    64  SER64      -0.2714
     43  CB       -45.3700  -14.6760   -0.9600 C.3    64  SER64       0.2130
     44  OG       -46.4340  -15.1370   -0.2260 O.3    64  SER64      -0.2179
     45  N        -44.0000  -17.5160   -0.1200 N.am   65  THR65      -0.1950
     46  CA       -43.8730  -18.7910    0.6070 C.3    65  THR65       0.1897
     47  C        -42.6040  -18.8600    1.4780 C.2    65  THR65       0.2313
     48  O        -42.6120  -19.3850    2.6130 O.2    65  THR65      -0.2863
     49  CB       -43.8970  -19.9520   -0.3860 C.3    65  THR65       0.1794
     50  OG1      -44.9690  -19.7480   -1.3400 O.3    65  THR65      -0.2208
     51  CG2      -44.0960  -21.2610    0.3320 C.3    65  THR65       0.0378
     52  N        -34.2020  -21.4160   -4.5490 N.3   191  ASN191     -0.1225
     53  CA       -35.3930  -21.9830   -3.8860 C.3   191  ASN191      0.1785
     54  C        -35.9920  -23.1010   -4.7470 C.2   191  ASN191      0.2597
     55  O        -35.5520  -23.3180   -5.8720 O.2   191  ASN191     -0.2718
     56  CB       -36.4220  -20.8980   -3.5590 C.3   191  ASN191      0.1169
     57  CG       -37.6010  -21.4320   -2.7090 C.2   191  ASN191      0.2627
     58  OD1      -37.4110  -22.1980   -1.7370 O.2   191  ASN191     -0.2716
     59  ND2      -38.8320  -21.0600   -3.0990 N.am  191  ASN191     -0.0877
     60  N        -36.9460  -23.8400   -4.1830 N.am  192  LYS192     -0.1980
     61  CA       -37.6130  -24.9710   -4.8790 C.3   192  LYS192      0.1596
     62  C        -36.7090  -26.1690   -5.0380 C.2   192  LYS192      0.2287
     63  O        -36.8970  -26.9770   -5.9310 O.2   192  LYS192     -0.2864
     64  CB       -38.1600  -24.5770   -6.2630 C.3   192  LYS192      0.0298
     65  CG       -39.1090  -23.3770   -6.2220 C.3   192  LYS192      0.0038
     66  CD       -40.0260  -23.3100   -7.4320 C.3   192  LYS192      0.0206
     67  CE       -40.8730  -22.0510   -7.3730 C.3   192  LYS192      0.1093
     68  NZ       -41.6640  -21.7350   -8.6030 N.3   192  LYS192     -0.1314
     69  N        -36.4510  -29.1620   -4.1070 N.3   194  ASP194     -0.1239
     70  CA       -37.2030  -30.2700   -3.5700 C.3   194  ASP194      0.1674
     71  C        -37.5180  -31.2340   -4.7010 C.2   194  ASP194      0.2266
     72  O        -37.4270  -30.8770   -5.8910 O.2   194  ASP194     -0.2867
     73  CB       -38.4740  -29.7960   -2.8270 C.3   194  ASP194      0.1410
     74  CG       -39.2140  -28.6600   -3.5410 C.2   194  ASP194      0.3668
     75  OD1      -39.4850  -28.7740   -4.7690 O.co2 194  ASP194     -0.2456
     76  OD2      -39.5110  -27.6410   -2.8800 O.co2 194  ASP194     -0.2456
     77  N        -36.0270  -25.2190    0.2220 N.3   230  SER230     -0.1202
     78  CA       -37.3930  -25.4930   -0.2440 C.3   230  SER230      0.2020
     79  C        -38.3420  -24.8680    0.7390 C.2   230  SER230      0.2619
     80  O        -38.5610  -25.3780    1.8550 O.2   230  SER230     -0.2717
     81  CB       -37.6400  -27.0210   -0.3340 C.3   230  SER230      0.2103
     82  OG       -39.0150  -27.3620   -0.4480 O.3   230  SER230     -0.2182
     83  N        -38.8590  -23.7160    0.3550 N.am  231  ALA231     -0.1965
     84  CA       -39.8220  -23.0010    1.1840 C.3   231  ALA231      0.1728
     85  C        -41.0630  -23.8450    1.4750 C.2   231  ALA231      0.2616
     86  O        -41.6200  -23.7760    2.5720 O.2   231  ALA231     -0.2715
     87  CB       -40.2040  -21.6650    0.5360 C.3   231  ALA231      0.0334
     88  N        -41.4930  -24.6630    0.5250 N.am  232  LEU232     -0.1977
     89  CA       -42.6770  -25.4830    0.7630 C.3   232  LEU232      0.1596
     90  C        -42.4420  -26.6020    1.7640 C.2   232  LEU232      0.2287
     91  O        -43.3830  -26.9950    2.4410 O.2   232  LEU232     -0.2864
     92  CB       -43.1690  -26.1260   -0.5240 C.3   232  LEU232      0.0297
     93  CG       -44.1990  -25.4030   -1.3720 C.3   232  LEU232      0.0022
     94  CD1      -44.5470  -26.3180   -2.5380 C.3   232  LEU232      0.0001
     95  CD2      -45.4280  -25.0270   -0.5710 C.3   232  LEU232      0.0001
@<TRIPOS>BOND
     1     6     5    1
     2     7     5    1
     3     5     2    1
     4    11    10    2
     5    13    12    1
     6    13    14    1
     7    12     9    1
     8    14     8    1
     9    10     9    1
    10    10    15   am
    11     8     9    1
    12     8     3   am
    13     2     3    1
    14     2     1    1
    15     3     4    2
    16    16    15    1
    17    16    17    1
    18    68    67    1
    19    18    17    2
    20    17    19   am
    21    19    20    1
    22    66    67    1
    23    66    65    1
    24    20    23    1
    25    20    21    1
    26    23    25    1
    27    23    24    1
    28    64    65    1
    29    64    61    1
    30    21    22    2
    31    21    26   am
    32    63    62    2
    33    72    71    2
    34    55    54    2
    35    26    27    1
    36    62    61    1
    37    61    60    1
    38    75    74   ar
    39    54    60   am
    40    54    53    1
    41    71    70    1
    42    52    53    1
    43    27    28    1
    44    69    70    1
    45    53    56    1
    46    37    38    1
    47    37    36    1
    48    70    73    1
    49    56    57    1
    50    74    76   ar
    51    74    73    1
    52    30    28   am
    53    30    31    1
    54    59    57   am
    55    28    29    2
    56    34    31    1
    57    34    35    1
    58    57    58    2
    59    36    35    1
    60    94    93    1
    61    31    32    1
    62    93    95    1
    63    93    92    1
    64    39    32   am
    65    39    40    1
    66    50    49    1
    67    32    33    2
    68    43    40    1
    69    43    44    1
    70    92    89    1
    71    82    81    1
    72    49    51    1
    73    49    46    1
    74    81    78    1
    75    40    41    1
    76    78    77    1
    77    78    79    1
    78    45    41   am
    79    45    46    1
    80    83    79   am
    81    83    84    1
    82    88    89    1
    83    88    85   am
    84    41    42    2
    85    87    84    1
    86    46    47    1
    87    79    80    2
    88    89    90    1
    89    84    85    1
    90    85    86    2
    91    47    48    2
    92    90    91    2
