@<TRIPOS>MOLECULE
tmp/3tk1A00.pdb
 104 100 0 0 0
SMALL
GASTEIGER

@<TRIPOS>ATOM
      1  N         -8.2740   -1.9720  -14.8290 N.3    57  VAL57      -0.1231
      2  CA        -7.4440   -1.4060  -13.7580 C.3    57  VAL57       0.1678
      3  C         -6.0140   -1.2000  -14.2570 C.2    57  VAL57       0.2434
      4  O         -5.5360   -1.9530  -15.1100 O.2    57  VAL57      -0.2733
      5  CB        -7.4240   -2.2770  -12.4980 C.3    57  VAL57       0.0265
      6  CG1       -8.8310   -2.7260  -12.1180 C.3    57  VAL57       0.0020
      7  CG2       -6.5030   -3.4620  -12.6880 C.3    57  VAL57       0.0020
      8  N         -5.3300   -0.1680  -13.7450 N.am   58  PRO58      -0.2718
      9  CA        -3.9100    0.0390  -14.0400 C.3    58  PRO58       0.1535
     10  C         -3.0920   -1.2480  -13.9650 C.2    58  PRO58       0.2599
     11  O         -3.2590   -2.0320  -13.0240 O.2    58  PRO58      -0.2715
     12  CB        -3.4770    1.0250  -12.9560 C.3    58  PRO58       0.0310
     13  CG        -4.7040    1.8380  -12.6880 C.3    58  PRO58       0.0237
     14  CD        -5.8860    0.9250  -12.9290 C.3    58  PRO58       0.0939
     15  N         -2.2320   -1.4670  -14.9550 N.am   59  GLY59      -0.1941
     16  CA        -1.4080   -2.6680  -15.0210 C.3    59  GLY59       0.2014
     17  C         -2.0060   -3.7790  -15.8650 C.2    59  GLY59       0.2639
     18  O         -1.3010   -4.7540  -16.1890 O.2    59  GLY59      -0.2714
     19  N         -3.2870   -3.6400  -16.2500 N.am   60  VAL60      -0.1963
     20  CA        -3.9790   -4.6830  -17.0200 C.3    60  VAL60       0.1727
     21  C         -3.5040   -4.7670  -18.4850 C.2    60  VAL60       0.2617
     22  O         -3.6610   -5.8130  -19.1200 O.2    60  VAL60      -0.2715
     23  CB        -5.5260   -4.5190  -16.9710 C.3    60  VAL60       0.0290
     24  CG1       -5.9640   -3.3260  -17.8150 C.3    60  VAL60       0.0023
     25  CG2       -6.2270   -5.7910  -17.4580 C.3    60  VAL60       0.0023
     26  N         -2.8750   -3.6970  -18.9960 N.am   61  GLY61      -0.1940
     27  CA        -2.4010   -3.6570  -20.3990 C.3    61  GLY61       0.2014
     28  C         -3.1560   -2.7080  -21.3240 C.2    61  GLY61       0.2639
     29  O         -3.1430   -2.8600  -22.5510 O.2    61  GLY61      -0.2714
     30  N         -3.7980   -1.7160  -20.7290 N.am   62  LYS62      -0.1963
     31  CA        -4.6580   -0.8190  -21.4710 C.3    62  LYS62       0.1728
     32  C         -3.9130    0.0030  -22.5360 C.2    62  LYS62       0.2617
     33  O         -4.3760    0.1250  -23.6820 O.2    62  LYS62      -0.2715
     34  CB        -5.3920    0.0730  -20.4860 C.3    62  LYS62       0.0311
     35  CG        -6.5620    0.8030  -21.0640 C.3    62  LYS62       0.0038
     36  CD        -7.5840    1.1790  -19.9930 C.3    62  LYS62       0.0206
     37  CE        -6.9760    2.0260  -18.8760 C.3    62  LYS62       0.1093
     38  NZ        -6.2920    3.2750  -19.3410 N.3    62  LYS62      -0.1314
     39  N         -2.7520    0.5460  -22.1840 N.am   63  SER63      -0.1936
     40  CA        -2.0210    1.4170  -23.1280 C.3    63  SER63       0.2055
     41  C         -1.4910    0.5890  -24.2770 C.2    63  SER63       0.2643
     42  O         -1.6140    0.9710  -25.4310 O.2    63  SER63      -0.2714
     43  CB        -0.8520    2.1960  -22.4660 C.3    63  SER63       0.2130
     44  OG        -1.1030    3.5990  -22.4080 O.3    63  SER63      -0.2179
     45  N         -0.9010   -0.5500  -23.9530 N.am   64  THR64      -0.1950
     46  CA        -0.4120   -1.4490  -24.9710 C.3    64  THR64       0.1897
     47  C         -1.5370   -1.9010  -25.8880 C.2    64  THR64       0.2313
     48  O         -1.3360   -2.0610  -27.0930 O.2    64  THR64      -0.2863
     49  CB         0.2540   -2.6850  -24.3340 C.3    64  THR64       0.1794
     50  OG1        1.1290   -2.2700  -23.2750 O.3    64  THR64      -0.2208
     51  CG2        1.0170   -3.5020  -25.3890 C.3    64  THR64       0.0378
     52  N        -10.9920    6.1860  -22.9470 N.3   123  GLU123     -0.1245
     53  CA       -10.2630    5.3600  -22.0070 C.3   123  GLU123      0.1567
     54  C        -10.4660    5.9440  -20.6160 C.2   123  GLU123      0.2260
     55  O        -10.4730    7.1590  -20.4610 O.2   123  GLU123     -0.2867
     56  CB        -8.7820    5.4220  -22.4190 C.3   123  GLU123      0.0388
     57  CG        -7.7550    4.9410  -21.4090 C.3   123  GLU123      0.1160
     58  CD        -6.3140    5.0470  -21.8750 C.2   123  GLU123      0.3649
     59  OE1       -5.9540    6.0240  -22.5530 O.co2 123  GLU123     -0.2457
     60  OE2       -5.5120    4.1670  -21.5100 O.co2 123  GLU123     -0.2457
     61  N         -6.4540  -10.1320  -21.0850 N.3   170  ASN170     -0.1225
     62  CA        -5.2470   -9.7380  -21.8160 C.3   170  ASN170      0.1785
     63  C         -4.0330  -10.4660  -21.2400 C.2   170  ASN170      0.2597
     64  O         -4.1370  -11.1290  -20.2010 O.2   170  ASN170     -0.2718
     65  CB        -5.0820   -8.2090  -21.7980 C.3   170  ASN170      0.1169
     66  CG        -3.9590   -7.7170  -22.6940 C.2   170  ASN170      0.2627
     67  OD1       -3.7070   -8.2430  -23.7930 O.2   170  ASN170     -0.2716
     68  ND2       -3.2710   -6.6910  -22.2260 N.am  170  ASN170     -0.0877
     69  N         -2.8930  -10.3720  -21.9220 N.am  171  LYS171     -0.1980
     70  CA        -1.6280  -11.0340  -21.4950 C.3   171  LYS171      0.1596
     71  C         -1.6920  -12.5260  -21.6930 C.2   171  LYS171      0.2287
     72  O         -0.9930  -13.2690  -21.0200 O.2   171  LYS171     -0.2864
     73  CB        -1.2400  -10.7330  -20.0410 C.3   171  LYS171      0.0298
     74  CG        -1.1550   -9.2510  -19.7370 C.3   171  LYS171      0.0038
     75  CD        -0.3180   -8.9510  -18.5170 C.3   171  LYS171      0.0206
     76  CE        -0.3310   -7.4610  -18.1970 C.3   171  LYS171      0.1093
     77  NZ         0.3170   -7.1100  -16.8940 N.3   171  LYS171     -0.1314
     78  N         -0.2940  -14.7830  -23.3670 N.3   173  ASP173     -0.1239
     79  CA         0.9220  -15.1120  -24.0940 C.3   173  ASP173      0.1674
     80  C          1.8500  -15.9360  -23.1840 C.2   173  ASP173      0.2266
     81  O          1.7040  -15.9430  -21.9560 O.2   173  ASP173     -0.2867
     82  CB         1.6100  -13.8350  -24.6350 C.3   173  ASP173      0.1410
     83  CG         1.6230  -12.6880  -23.6200 C.2   173  ASP173      0.3668
     84  OD1        2.0310  -12.8950  -22.4570 O.co2 173  ASP173     -0.2456
     85  OD2        1.2330  -11.5600  -23.9760 O.co2 173  ASP173     -0.2456
     86  N         -3.3340  -10.8950  -26.5540 N.3   205  SER205     -0.1202
     87  CA        -2.0160  -10.4520  -26.1050 C.3   205  SER205      0.2020
     88  C         -1.7200   -9.1490  -26.8500 C.2   205  SER205      0.2619
     89  O         -1.3200   -9.1600  -28.0190 O.2   205  SER205     -0.2717
     90  CB        -0.9290  -11.5130  -26.3680 C.3   205  SER205      0.2103
     91  OG         0.3780  -10.9880  -26.2190 O.3   205  SER205     -0.2182
     92  N         -1.9360   -8.0280  -26.1650 N.am  206  ALA206     -0.1965
     93  CA        -1.6490   -6.7190  -26.7420 C.3   206  ALA206      0.1728
     94  C         -0.1720   -6.5640  -27.0870 C.2   206  ALA206      0.2616
     95  O          0.1580   -5.9090  -28.0650 O.2   206  ALA206     -0.2715
     96  CB        -2.0960   -5.5980  -25.8190 C.3   206  ALA206      0.0334
     97  N          0.7120   -7.1640  -26.2920 N.am  207  LEU207     -0.1977
     98  CA         2.1560   -7.0420  -26.5170 C.3   207  LEU207      0.1596
     99  C          2.5690   -7.7730  -27.8050 C.2   207  LEU207      0.2287
    100  O          3.4350   -7.2900  -28.5320 O.2   207  LEU207     -0.2864
    101  CB         2.9610   -7.5850  -25.3110 C.3   207  LEU207      0.0297
    102  CG         4.3630   -7.0590  -24.8880 C.3   207  LEU207      0.0022
    103  CD1        5.3110   -6.9670  -26.0810 C.3   207  LEU207      0.0001
    104  CD2        4.3500   -5.7360  -24.1210 C.3   207  LEU207      0.0001
@<TRIPOS>BOND
     1   100    99    2
     2    95    94    2
     3    89    88    2
     4    99    98    1
     5    48    47    2
     6    94    93    1
     7    94    97   am
     8    88    92   am
     9    88    87    1
    10    93    92    1
    11    93    96    1
    12    86    87    1
    13    98    97    1
    14    98   101    1
    15    90    91    1
    16    90    87    1
    17   103   102    1
    18    47    46    1
    19    42    41    2
    20    51    49    1
    21   101   102    1
    22    46    49    1
    23    46    45    1
    24   102   104    1
    25    82    79    1
    26    82    83    1
    27    49    50    1
    28    41    45   am
    29    41    40    1
    30    79    78    1
    31    79    80    1
    32    85    83   ar
    33    67    66    2
    34    33    32    2
    35    83    84   ar
    36    80    81    2
    37    40    43    1
    38    40    39    1
    39    52    53    1
    40    66    68   am
    41    66    65    1
    42    59    58   ar
    43    29    28    2
    44    32    39   am
    45    32    31    1
    46    43    44    1
    47    56    53    1
    48    56    57    1
    49    53    54    1
    50    69    70    1
    51    69    63   am
    52    58    60   ar
    53    58    57    1
    54    62    65    1
    55    62    63    1
    56    62    61    1
    57    71    70    1
    58    71    72    2
    59    70    73    1
    60    31    30    1
    61    31    34    1
    62    28    30   am
    63    28    27    1
    64    63    64    2
    65    35    34    1
    66    35    36    1
    67    54    55    2
    68    27    26    1
    69    73    74    1
    70    36    37    1
    71    74    75    1
    72    38    37    1
    73    22    21    2
    74    26    21   am
    75    75    76    1
    76    21    20    1
    77    76    77    1
    78    24    23    1
    79    25    23    1
    80    20    23    1
    81    20    19    1
    82    19    17   am
    83    18    17    2
    84    17    16    1
    85     4     3    2
    86    16    15    1
    87    15    10   am
    88     1     2    1
    89     3     2    1
    90     3     8   am
    91     9    10    1
    92     9     8    1
    93     9    12    1
    94    10    11    2
    95     2     5    1
    96     8    14    1
    97    12    13    1
    98    14    13    1
    99     7     5    1
   100     5     6    1
