@<TRIPOS>MOLECULE
tmp/3tk2A00.pdb
 119 116 0 0 0
SMALL
GASTEIGER

@<TRIPOS>ATOM
      1  N         -2.5710   -9.2130   -9.4520 N.3   149  TYR149     -0.1241
      2  CA        -1.6700   -8.1430   -9.8300 C.3   149  TYR149      0.1605
      3  C         -0.4290   -8.0490   -8.9000 C.2   149  TYR149      0.2264
      4  O          0.6880   -7.9360   -9.3570 O.2   149  TYR149     -0.2867
      5  CB        -2.4130   -6.8090   -9.8190 C.3   149  TYR149      0.0534
      6  CG        -1.5840   -5.5680   -9.9920 C.ar  149  TYR149     -0.0201
      7  CD1       -0.8210   -5.3460  -11.1170 C.ar  149  TYR149     -0.0009
      8  CD2       -1.5580   -4.6230   -8.9710 C.ar  149  TYR149     -0.0009
      9  CE1       -0.0650   -4.2160  -11.2690 C.ar  149  TYR149      0.0417
     10  CE2       -0.7510   -3.4520   -9.1400 C.ar  149  TYR149      0.0417
     11  CZ        -0.0250   -3.2840  -10.2890 C.ar  149  TYR149      0.1957
     12  OH         0.7210   -2.1720  -10.4990 O.3   149  TYR149     -0.2866
     13  N          1.9230  -10.9470   -9.5420 N.3   152  ALA152     -0.1231
     14  CA         2.6360  -10.7170  -10.7940 C.3   152  ALA152      0.1694
     15  C          3.7250   -9.6860  -10.6290 C.2   152  ALA152      0.2592
     16  O          4.8380   -9.7980  -11.1770 O.2   152  ALA152     -0.2718
     17  CB         1.6580  -10.3600  -11.9210 C.3   152  ALA152      0.0304
     18  N          3.3990   -8.6080   -9.9220 N.am  153  TYR153     -0.1976
     19  CA         4.3720   -7.5590   -9.6310 C.3   153  TYR153      0.1639
     20  C          5.5640   -8.1980   -8.8860 C.2   153  TYR153      0.2290
     21  O          6.7590   -7.9420   -9.2310 O.2   153  TYR153     -0.2864
     22  CB         3.6730   -6.4740   -8.7630 C.3   153  TYR153      0.0560
     23  CG         4.6340   -5.4050   -8.3130 C.ar  153  TYR153     -0.0198
     24  CD1        4.9180   -4.2800   -9.1050 C.ar  153  TYR153     -0.0009
     25  CD2        5.3110   -5.5260   -7.1270 C.ar  153  TYR153     -0.0009
     26  CE1        5.8290   -3.3340   -8.7270 C.ar  153  TYR153      0.0417
     27  CE2        6.2460   -4.5540   -6.7180 C.ar  153  TYR153      0.0417
     28  CZ         6.4750   -3.4390   -7.5380 C.ar  153  TYR153      0.1957
     29  OH         7.3760   -2.4850   -7.2040 O.3   153  TYR153     -0.2866
     30  N          7.8550  -10.0430  -11.0840 N.3   156  GLY156     -0.1225
     31  CA         8.7030   -9.1650  -11.9160 C.3   156  GLY156      0.1811
     32  C          9.9570   -8.6060  -11.2540 C.2   156  GLY156      0.2280
     33  O         10.7940   -8.0290  -11.9540 O.2   156  GLY156     -0.2866
     34  N         13.5200   -9.9370  -12.8340 N.3   159  LYS159     -0.1245
     35  CA        13.9220   -9.3480  -14.1130 C.3   159  LYS159      0.1561
     36  C         14.3370   -7.9190  -13.8610 C.2   159  LYS159      0.2260
     37  O         15.3310   -7.4320  -14.4410 O.2   159  LYS159     -0.2867
     38  CB        12.7530   -9.4280  -15.1090 C.3   159  LYS159      0.0271
     39  CG        12.9690   -8.6970  -16.4200 C.3   159  LYS159      0.0035
     40  CD        11.7400   -8.7080  -17.3690 C.3   159  LYS159      0.0206
     41  CE        11.2350  -10.1110  -17.7790 C.3   159  LYS159      0.1093
     42  NZ        10.0490   -9.8970  -18.7150 N.3   159  LYS159     -0.1314
     43  N         10.0300   -0.2850  -11.5310 N.3   169  LEU169     -0.1245
     44  CA         8.8980   -1.0010  -10.8690 C.3   169  LEU169      0.1561
     45  C          8.4240   -0.2730   -9.6670 C.2   169  LEU169      0.2260
     46  O          7.2220   -0.2690   -9.4160 O.2   169  LEU169     -0.2867
     47  CB         9.1650   -2.4490  -10.5000 C.3   169  LEU169      0.0270
     48  CG         9.2400   -3.4460  -11.6010 C.3   169  LEU169      0.0019
     49  CD1        9.4720   -4.7870  -10.9880 C.3   169  LEU169      0.0001
     50  CD2        7.8580   -3.3840  -12.2400 C.3   169  LEU169      0.0001
     51  N          5.8540    2.1710  -10.5990 N.3   172  LEU172     -0.1245
     52  CA         4.5500    1.5350  -10.8810 C.3   172  LEU172      0.1561
     53  C          3.8110    1.1570   -9.5930 C.2   172  LEU172      0.2260
     54  O          2.6190    1.4390   -9.4390 O.2   172  LEU172     -0.2867
     55  CB         4.8090    0.2750  -11.7120 C.3   172  LEU172      0.0270
     56  CG         3.5340   -0.4960  -12.0390 C.3   172  LEU172      0.0019
     57  CD1        2.4500    0.3030  -12.8300 C.3   172  LEU172      0.0001
     58  CD2        3.9090   -1.8140  -12.7900 C.3   172  LEU172      0.0001
     59  N         -4.0170   -5.5330  -14.0640 N.3   245  PHE245     -0.1241
     60  CA        -3.4810   -6.8340  -14.3040 C.3   245  PHE245      0.1605
     61  C         -3.0750   -6.9940  -15.7980 C.2   245  PHE245      0.2264
     62  O         -1.9280   -7.3990  -16.0850 O.2   245  PHE245     -0.2867
     63  CB        -4.4390   -7.9370  -13.8410 C.3   245  PHE245      0.0534
     64  CG        -3.8330   -9.2580  -14.0500 C.ar  245  PHE245     -0.0203
     65  CD1       -2.9410   -9.7720  -13.1200 C.ar  245  PHE245     -0.0042
     66  CD2       -4.0440   -9.9710  -15.2680 C.ar  245  PHE245     -0.0042
     67  CE1       -2.3460  -10.9970  -13.3070 C.ar  245  PHE245     -0.0003
     68  CE2       -3.4200  -11.1980  -15.4470 C.ar  245  PHE245     -0.0003
     69  CZ        -2.5490  -11.7020  -14.4350 C.ar  245  PHE245     -0.0000
     70  N         -0.3160   -4.5430  -17.4390 N.3   248  THR248     -0.1203
     71  CA         0.9640   -4.8900  -16.9060 C.3   248  THR248      0.1994
     72  C          1.3990   -6.3400  -17.0710 C.2   248  THR248      0.2618
     73  O          2.4360   -6.7000  -16.5130 O.2   248  THR248     -0.2717
     74  CB         1.0930   -4.5460  -15.3400 C.3   248  THR248      0.1784
     75  OG1        0.1250   -5.3340  -14.6120 O.3   248  THR248     -0.2211
     76  CG2        0.8620   -3.0440  -15.0660 C.3   248  THR248      0.0376
     77  N          0.7810   -7.1090  -17.9760 N.am  249  ALA249     -0.1966
     78  CA         1.2460   -8.4520  -18.3310 C.3   249  ALA249      0.1713
     79  C          2.3400   -8.6670  -19.5030 C.2   249  ALA249      0.2458
     80  O          2.9740   -9.7170  -19.5700 O.2   249  ALA249     -0.2730
     81  CB         0.0200   -9.4090  -18.6560 C.3   249  ALA249      0.0333
     82  N          2.5590   -7.7040  -20.4400 N.am  250  PRO250     -0.2716
     83  CA         3.6240   -7.8090  -21.4240 C.3   250  PRO250      0.1536
     84  C          5.0910   -7.8830  -20.8650 C.2   250  PRO250      0.2599
     85  O          5.3350   -7.6170  -19.6800 O.2   250  PRO250     -0.2715
     86  CB         3.4310   -6.5600  -22.2430 C.3   250  PRO250      0.0310
     87  CG         1.9580   -6.2530  -22.0880 C.3   250  PRO250      0.0237
     88  CD         1.7630   -6.4990  -20.6500 C.3   250  PRO250      0.0939
     89  N          6.0500   -8.2430  -21.6980 N.am  251  ASP251     -0.1958
     90  CA         7.4670   -8.3210  -21.2910 C.3   251  ASP251      0.1840
     91  C          7.9790   -6.9170  -20.9880 C.2   251  ASP251      0.2622
     92  O          7.9790   -6.0440  -21.8720 O.2   251  ASP251     -0.2715
     93  CB         8.2530   -8.9190  -22.5050 C.3   251  ASP251      0.1450
     94  CG         9.7430   -8.9620  -22.2560 C.2   251  ASP251      0.3671
     95  OD1       10.1870   -8.7400  -21.1030 O.co2 251  ASP251     -0.2456
     96  OD2       10.4980   -9.1720  -23.2520 O.co2 251  ASP251     -0.2456
     97  N          8.4130   -6.6580  -19.7570 N.am  252  PHE252     -0.1974
     98  CA         8.8790   -5.3180  -19.3920 C.3   252  PHE252      0.1639
     99  C         10.3380   -5.0700  -19.8110 C.2   252  PHE252      0.2290
    100  O         10.7500   -3.9270  -19.7560 O.2   252  PHE252     -0.2864
    101  CB         8.7630   -5.0990  -17.8970 C.3   252  PHE252      0.0560
    102  CG         7.3820   -4.7530  -17.4100 C.ar  252  PHE252     -0.0200
    103  CD1        7.2570   -4.1220  -16.1600 C.ar  252  PHE252     -0.0042
    104  CD2        6.2190   -5.0380  -18.1540 C.ar  252  PHE252     -0.0042
    105  CE1        6.0300   -3.8140  -15.6650 C.ar  252  PHE252     -0.0003
    106  CE2        4.9480   -4.7220  -17.6040 C.ar  252  PHE252     -0.0003
    107  CZ         4.8690   -4.1360  -16.3820 C.ar  252  PHE252     -0.0000
    108  N         12.0210   -1.3630  -19.9150 N.3   256  TYR256     -0.1241
    109  CA        13.0980   -0.8630  -19.0530 C.3   256  TYR256      0.1605
    110  C         14.2380   -0.2860  -19.8420 C.2   256  TYR256      0.2264
    111  O         14.7740    0.7720  -19.4540 O.2   256  TYR256     -0.2867
    112  CB        13.6120   -1.9760  -18.2060 C.3   256  TYR256      0.0534
    113  CG        12.6440   -2.5750  -17.1990 C.ar  256  TYR256     -0.0201
    114  CD1       12.7220   -3.9340  -16.9420 C.ar  256  TYR256     -0.0009
    115  CD2       11.6700   -1.7970  -16.5390 C.ar  256  TYR256     -0.0009
    116  CE1       11.9280   -4.5530  -16.0090 C.ar  256  TYR256      0.0417
    117  CE2       10.8310   -2.3990  -15.6110 C.ar  256  TYR256      0.0417
    118  CZ        10.9590   -3.7710  -15.3550 C.ar  256  TYR256      0.1957
    119  OH        10.1220   -4.3800  -14.4350 O.3   256  TYR256     -0.2866
@<TRIPOS>BOND
     1    96    94   ar
     2    93    94    1
     3    93    90    1
     4    94    95   ar
     5    86    87    1
     6    86    83    1
     7    87    88    1
     8    92    91    2
     9    89    90    1
    10    89    84   am
    11    83    84    1
    12    83    82    1
    13    90    91    1
    14    91    97   am
    15    84    85    2
    16    88    82    1
    17    82    79   am
    18   108   109    1
    19   110   111    2
    20   110   109    1
    21    99   100    2
    22    99    98    1
    23    97    98    1
    24    80    79    2
    25    79    78    1
    26    98   101    1
    27   109   112    1
    28    42    41    1
    29    81    78    1
    30    78    77    1
    31   112   113    1
    32   104   106   ar
    33   104   102   ar
    34    77    72   am
    35   101   102    1
    36    41    40    1
    37   106   107   ar
    38    70    71    1
    39   102   103   ar
    40    40    39    1
    41   113   114   ar
    42   113   115   ar
    43    72    71    1
    44    72    73    2
    45   114   116   ar
    46    71    74    1
    47   115   117   ar
    48    39    38    1
    49   107   105   ar
    50   103   105   ar
    51    62    61    2
    52   116   118   ar
    53    61    60    1
    54   117   118   ar
    55    68    66   ar
    56    68    69   ar
    57   118   119    1
    58    74    76    1
    59    74    75    1
    60    66    64   ar
    61    38    35    1
    62    37    36    2
    63    69    67   ar
    64    60    59    1
    65    60    63    1
    66    35    36    1
    67    35    34    1
    68    64    63    1
    69    64    65   ar
    70    67    65   ar
    71    57    56    1
    72    58    56    1
    73    50    48    1
    74    56    55    1
    75    33    32    2
    76    17    14    1
    77    31    32    1
    78    31    30    1
    79    55    52    1
    80    48    49    1
    81    48    47    1
    82    43    44    1
    83     9     7   ar
    84     9    11   ar
    85    16    15    2
    86     7     6   ar
    87    52    51    1
    88    52    53    1
    89    44    47    1
    90    44    45    1
    91    14    15    1
    92    14    13    1
    93    15    18   am
    94    12    11    1
    95    11    10   ar
    96     6     5    1
    97     6     8   ar
    98    18    19    1
    99     2     5    1
   100     2     1    1
   101     2     3    1
   102    45    46    2
   103    19    20    1
   104    19    22    1
   105    53    54    2
   106     4     3    2
   107    21    20    2
   108    10     8   ar
   109    24    26   ar
   110    24    23   ar
   111    22    23    1
   112    26    28   ar
   113    23    25   ar
   114    28    29    1
   115    28    27   ar
   116    25    27   ar
