@<TRIPOS>MOLECULE
tmp/3tk3D01.pdb
 102 94 0 0 0
SMALL
GASTEIGER

@<TRIPOS>ATOM
      1  N        154.9950  -32.6530   23.9880 N.3    74  ILE74      -0.1245
      2  CA       154.5420  -32.4440   25.3600 C.3    74  ILE74       0.1561
      3  C        154.7800  -33.7640   26.0690 C.2    74  ILE74       0.2260
      4  O        154.0490  -34.7390   25.8550 O.2    74  ILE74      -0.2867
      5  CB       153.0380  -32.0180   25.4250 C.3    74  ILE74       0.0252
      6  CG1      152.8840  -30.5250   25.1380 C.3    74  ILE74       0.0019
      7  CG2      152.4670  -32.2650   26.7770 C.3    74  ILE74       0.0019
      8  CD1      153.7320  -29.6500   26.0610 C.3    74  ILE74       0.0001
      9  N        152.3490  -36.7820   26.8880 N.3    77  VAL77      -0.1245
     10  CA       151.5130  -37.3900   25.8510 C.3    77  VAL77       0.1561
     11  C        152.2760  -37.7890   24.6040 C.2    77  VAL77       0.2260
     12  O        151.6780  -38.3260   23.6710 O.2    77  VAL77      -0.2867
     13  CB       150.2960  -36.5080   25.4270 C.3    77  VAL77       0.0252
     14  CG1      149.3590  -36.3030   26.6050 C.3    77  VAL77       0.0019
     15  CG2      150.7450  -35.1780   24.7970 C.3    77  VAL77       0.0019
     16  N        147.6060  -32.7090   15.2170 N.3    87  ILE87      -0.1231
     17  CA       148.2360  -31.7650   16.1290 C.3    87  ILE87       0.1692
     18  C        149.7560  -31.8950   16.0910 C.2    87  ILE87       0.2592
     19  O        150.4530  -30.9300   15.7850 O.2    87  ILE87      -0.2718
     20  CB       147.7550  -31.9560   17.5950 C.3    87  ILE87       0.0266
     21  CG1      146.2900  -31.5600   17.7450 C.3    87  ILE87       0.0019
     22  CG2      148.5900  -31.1390   18.5680 C.3    87  ILE87       0.0020
     23  CD1      145.7640  -31.7910   19.1260 C.3    87  ILE87       0.0001
     24  N        150.2650  -33.0940   16.3920 N.am   88  PHE88      -0.1976
     25  CA       151.6940  -33.3000   16.6910 C.3    88  PHE88       0.1639
     26  C        152.5820  -33.7210   15.5270 C.2    88  PHE88       0.2290
     27  O        153.7960  -33.9020   15.6980 O.2    88  PHE88      -0.2864
     28  CB       151.8530  -34.2970   17.8240 C.3    88  PHE88       0.0560
     29  CG       151.3740  -33.7840   19.1320 C.ar   88  PHE88      -0.0200
     30  CD1      152.0670  -32.7950   19.7870 C.ar   88  PHE88      -0.0042
     31  CD2      150.2310  -34.2860   19.7070 C.ar   88  PHE88      -0.0042
     32  CE1      151.6320  -32.3220   20.9920 C.ar   88  PHE88      -0.0003
     33  CE2      149.7900  -33.8150   20.9120 C.ar   88  PHE88      -0.0003
     34  CZ       150.4880  -32.8330   21.5550 C.ar   88  PHE88      -0.0000
     35  N        147.2100  -33.7640   32.8630 N.3   182  ILE182     -0.1245
     36  CA       148.0990  -33.1460   31.9010 C.3   182  ILE182      0.1561
     37  C        148.6040  -31.8010   32.4140 C.2   182  ILE182      0.2260
     38  O        149.7300  -31.4010   32.1230 O.2   182  ILE182     -0.2867
     39  CB       147.4180  -33.0040   30.5530 C.3   182  ILE182      0.0252
     40  CG1      146.9560  -34.3800   30.0980 C.3   182  ILE182      0.0019
     41  CG2      148.3640  -32.4190   29.5410 C.3   182  ILE182      0.0019
     42  CD1      146.6450  -34.4590   28.6350 C.3   182  ILE182      0.0001
     43  N        140.5720  -34.7380   21.7800 N.3   270  PHE270     -0.1227
     44  CA       141.3060  -34.1930   22.8730 C.3   270  PHE270      0.1736
     45  C        141.2130  -32.7290   22.8760 C.2   270  PHE270      0.2595
     46  O        140.9590  -32.1420   23.8800 O.2   270  PHE270     -0.2718
     47  CB       142.7450  -34.5910   22.6840 C.3   270  PHE270      0.0547
     48  CG       143.6690  -34.0400   23.6890 C.ar  270  PHE270     -0.0202
     49  CD1      143.4630  -34.2490   25.0090 C.ar  270  PHE270     -0.0042
     50  CD2      144.7950  -33.3560   23.3010 C.ar  270  PHE270     -0.0042
     51  CE1      144.3270  -33.7720   25.9110 C.ar  270  PHE270     -0.0003
     52  CE2      145.6660  -32.8890   24.2160 C.ar  270  PHE270     -0.0003
     53  CZ       145.4270  -33.0920   25.5170 C.ar  270  PHE270     -0.0000
     54  N        141.4360  -32.1300   21.7230 N.am  271  ALA271     -0.1980
     55  CA       141.3540  -30.6970   21.5700 C.3   271  ALA271      0.1597
     56  C        139.9630  -30.1820   21.6780 C.2   271  ALA271      0.2287
     57  O        139.7010  -29.2140   22.3250 O.2   271  ALA271     -0.2864
     58  CB       141.9210  -30.3130   20.2830 C.3   271  ALA271      0.0319
     59  N        138.2250  -30.8670   25.6910 N.3   274  GLU274     -0.1231
     60  CA       138.7240  -30.0820   26.7790 C.3   274  GLU274      0.1699
     61  C        138.8090  -28.6140   26.8370 C.2   274  GLU274      0.2592
     62  O        138.4250  -28.0910   27.8420 O.2   274  GLU274     -0.2718
     63  CB       140.1460  -30.5190   27.0690 C.3   274  GLU274      0.0402
     64  CG       140.7380  -29.9060   28.3180 C.3   274  GLU274      0.1161
     65  CD       142.2560  -29.9270   28.3270 C.2   274  GLU274      0.3649
     66  OE1      142.8480  -30.0050   29.4100 O.co2 274  GLU274     -0.2457
     67  OE2      142.8750  -29.8550   27.2580 O.co2 274  GLU274     -0.2457
     68  N        139.2560  -27.9470   25.7930 N.am  275  THR275     -0.1953
     69  CA       139.3890  -26.4940   25.8080 C.3   275  THR275      0.1897
     70  C        138.1320  -25.7130   25.6570 C.2   275  THR275      0.2313
     71  O        137.9370  -24.7340   26.2880 O.2   275  THR275     -0.2863
     72  CB       140.4880  -26.0030   24.8860 C.3   275  THR275      0.1794
     73  OG1      141.6860  -26.6530   25.2470 O.3   275  THR275     -0.2208
     74  CG2      140.7210  -24.5930   25.0690 C.3   275  THR275      0.0378
     75  N        145.1270  -21.9240   27.5090 N.3   336  ILE336     -0.1245
     76  CA       146.3520  -22.5750   27.0930 C.3   336  ILE336      0.1561
     77  C        147.4550  -21.5520   27.3210 C.2   336  ILE336      0.2260
     78  O        147.9040  -20.8760   26.3950 O.2   336  ILE336     -0.2867
     79  CB       146.2800  -23.0420   25.6200 C.3   336  ILE336      0.0252
     80  CG1      145.2620  -24.1710   25.4730 C.3   336  ILE336      0.0019
     81  CG2      147.6200  -23.5550   25.1670 C.3   336  ILE336      0.0019
     82  CD1      144.8080  -24.3790   24.0770 C.3   336  ILE336      0.0001
     83  N        151.0570  -24.3450   22.7040 N.3   340  VAL340     -0.1245
     84  CA       151.5170  -25.6990   22.4570 C.3   340  VAL340      0.1561
     85  C        152.8640  -25.5380   21.7550 C.2   340  VAL340      0.2260
     86  O        152.9710  -24.7700   20.8000 O.2   340  VAL340     -0.2867
     87  CB       150.4920  -26.4710   21.5950 C.3   340  VAL340      0.0252
     88  CG1      151.0300  -27.8280   21.1530 C.3   340  VAL340      0.0019
     89  CG2      149.1880  -26.6280   22.3640 C.3   340  VAL340      0.0019
     90  N        145.0050  -22.6210   15.6830 N.3   409  CYS409     -0.1235
     91  CA       144.0810  -23.7230   15.9610 C.3   409  CYS409      0.1677
     92  C        143.2560  -24.0870   14.7220 C.2   409  CYS409      0.2270
     93  O        142.5880  -23.2390   14.1200 O.2   409  CYS409     -0.2867
     94  CB       143.1960  -23.3970   17.1660 C.3   409  CYS409      0.0956
     95  SG       141.9140  -24.6000   17.5900 S.3   409  CYS409     -0.0801
     96  N        149.8570  -26.8810   31.0350 N.3   450  VAL450     -0.1245
     97  CA       149.6340  -26.7460   29.6000 C.3   450  VAL450      0.1561
     98  C        148.2200  -26.2000   29.3520 C.2   450  VAL450      0.2260
     99  O        147.9700  -25.5210   28.3580 O.2   450  VAL450     -0.2867
    100  CB       149.8610  -28.0670   28.8360 C.3   450  VAL450      0.0252
    101  CG1      148.6240  -28.9310   28.8950 C.3   450  VAL450      0.0019
    102  CG2      150.2220  -27.7800   27.3920 C.3   450  VAL450      0.0019
@<TRIPOS>BOND
     1    93    92    2
     2    92    91    1
     3    16    17    1
     4    26    27    2
     5    26    25    1
     6    90    91    1
     7    19    18    2
     8    91    94    1
     9    18    17    1
    10    18    24   am
    11    17    20    1
    12    24    25    1
    13    25    28    1
    14    94    95    1
    15    20    21    1
    16    20    22    1
    17    21    23    1
    18    28    29    1
    19    29    31   ar
    20    29    30   ar
    21    31    33   ar
    22    30    32   ar
    23    58    55    1
    24    86    85    2
    25    33    34   ar
    26    32    34   ar
    27    88    87    1
    28    55    56    1
    29    55    54    1
    30    87    89    1
    31    87    84    1
    32    56    57    2
    33    54    45   am
    34    85    84    1
    35    43    44    1
    36    84    83    1
    37    47    44    1
    38    47    48    1
    39    44    45    1
    40    45    46    2
    41    50    48   ar
    42    50    52   ar
    43    12    11    2
    44    48    49   ar
    45     1     2    1
    46    82    80    1
    47    52    53   ar
    48    11    10    1
    49    15    13    1
    50    72    74    1
    51    72    73    1
    52    72    69    1
    53    49    51   ar
    54     6     5    1
    55     6     8    1
    56    81    79    1
    57     2     5    1
    58     2     3    1
    59     5     7    1
    60    13    10    1
    61    13    14    1
    62    80    79    1
    63    53    51   ar
    64    79    76    1
    65    70    69    1
    66    70    71    2
    67    59    60    1
    68    68    69    1
    69    68    61   am
    70    10     9    1
    71     4     3    2
    72    78    77    2
    73    60    61    1
    74    60    63    1
    75    61    62    2
    76    63    64    1
    77    76    77    1
    78    76    75    1
    79    67    65   ar
    80   102   100    1
    81    64    65    1
    82    65    66   ar
    83    99    98    2
    84    42    40    1
    85   100   101    1
    86   100    97    1
    87    98    97    1
    88    41    39    1
    89    97    96    1
    90    40    39    1
    91    39    36    1
    92    36    37    1
    93    36    35    1
    94    38    37    2
