@<TRIPOS>MOLECULE
tmp/3tk5A00.pdb
 204 201 0 0 0
SMALL
GASTEIGER

@<TRIPOS>ATOM
      1  N         11.5310    4.2830   10.0100 N.3    82  LYS82      -0.1231
      2  CA        10.4010    4.4560   10.9310 C.3    82  LYS82       0.1693
      3  C          9.8850    3.1170   11.4250 C.2    82  LYS82       0.2592
      4  O          9.3190    3.0260   12.5110 O.2    82  LYS82      -0.2718
      5  CB         9.2490    5.1930   10.2460 C.3    82  LYS82       0.0285
      6  CG         9.3930    6.7070   10.1530 C.3    82  LYS82       0.0035
      7  CD         8.5280    7.2420    9.0070 C.3    82  LYS82       0.0206
      8  CE         8.1770    8.7120    9.1640 C.3    82  LYS82       0.1093
      9  NZ         6.9490    9.0290    8.3590 N.3    82  LYS82      -0.1314
     10  N         10.0650    2.0830   10.6100 N.am   83  GLU83      -0.1966
     11  CA         9.5910    0.7430   10.9300 C.3    83  GLU83       0.1733
     12  C         10.1470    0.2210   12.2580 C.2    83  GLU83       0.2617
     13  O          9.4020   -0.3350   13.0720 O.2    83  GLU83      -0.2715
     14  CB         9.9400   -0.2390    9.7960 C.3    83  GLU83       0.0429
     15  CG         9.2590    0.0330    8.4370 C.3    83  GLU83       0.1163
     16  CD         9.9960   -0.6440    7.3130 C.2    83  GLU83       0.3649
     17  OE1       11.1550   -0.4310    7.0810 O.co2  83  GLU83      -0.2457
     18  OE2        9.2800   -1.4880    6.6140 O.co2  83  GLU83      -0.2457
     19  N         11.4500    0.3980   12.4660 N.am   84  THR84      -0.1937
     20  CA        12.1300   -0.1900   13.6120 C.3    84  THR84       0.2028
     21  C         12.7010    0.8550   14.5740 C.2    84  THR84       0.2642
     22  O         13.0720    0.5200   15.7050 O.2    84  THR84      -0.2714
     23  CB        13.2860   -1.1050   13.1570 C.3    84  THR84       0.1808
     24  OG1       14.1860   -0.3570   12.3210 O.3    84  THR84      -0.2208
     25  CG2       12.7550   -2.3290   12.3740 C.3    84  THR84       0.0379
     26  N         12.7790    2.1080   14.1080 N.am   85  TYR85      -0.1973
     27  CA        13.5550    3.1910   14.7670 C.3    85  TYR85       0.1639
     28  C         15.0450    2.8930   14.9260 C.2    85  TYR85       0.2290
     29  O         15.7030    3.4670   15.7960 O.2    85  TYR85      -0.2864
     30  CB        12.9540    3.5900   16.1130 C.3    85  TYR85       0.0560
     31  CG        11.8780    4.6470   16.0280 C.ar   85  TYR85      -0.0198
     32  CD1       10.9900    4.6850   14.9510 C.ar   85  TYR85      -0.0009
     33  CD2       11.7250    5.5910   17.0420 C.ar   85  TYR85      -0.0009
     34  CE1        9.9780    5.6550   14.8780 C.ar   85  TYR85       0.0417
     35  CE2       10.7170    6.5630   16.9850 C.ar   85  TYR85       0.0417
     36  CZ         9.8530    6.5870   15.9020 C.ar   85  TYR85       0.1957
     37  OH         8.8560    7.5380   15.8370 O.3    85  TYR85      -0.2866
     38  N          7.0120   15.8130   28.2150 N.3   132  ARG132     -0.1245
     39  CA         5.8640   15.6100   29.0860 C.3   132  ARG132      0.1563
     40  C          6.2400   15.1430   30.4820 C.2   132  ARG132      0.2260
     41  O          7.2000   14.3880   30.6590 O.2   132  ARG132     -0.2867
     42  CB         4.8690   14.6670   28.4120 C.3   132  ARG132      0.0307
     43  CG         3.9420   15.4300   27.4930 C.3   132  ARG132      0.0489
     44  CD         3.5860   14.6880   26.2280 C.3   132  ARG132      0.2205
     45  NE         2.4450   13.8140   26.4220 N.pl3 132  ARG132     -0.0865
     46  CZ         1.5920   13.4580   25.4620 C.cat 132  ARG132      0.5346
     47  NH1        1.7380   13.9020   24.2150 N.pl3 132  ARG132      0.1354
     48  NH2        0.5810   12.6500   25.7580 N.pl3 132  ARG132      0.1354
     49  N          2.7780   10.5490   31.0380 N.3   135  GLU135     -0.1231
     50  CA         2.3100   10.0110   29.7570 C.3   135  GLU135      0.1699
     51  C          1.2200   10.8660   29.0850 C.2   135  GLU135      0.2592
     52  O          1.3100   11.1770   27.8860 O.2   135  GLU135     -0.2718
     53  CB         1.8480    8.5610   29.9250 C.3   135  GLU135      0.0402
     54  CG         1.4460    7.8740   28.6370 C.3   135  GLU135      0.1161
     55  CD         1.4800    6.3620   28.7390 C.2   135  GLU135      0.3649
     56  OE1        2.2280    5.8350   29.5970 O.co2 135  GLU135     -0.2457
     57  OE2        0.7630    5.6970   27.9460 O.co2 135  GLU135     -0.2457
     58  N          0.2110   11.2580   29.8600 N.am  136  LYS136     -0.1980
     59  CA        -0.9460   11.9750   29.3050 C.3   136  LYS136      0.1596
     60  C         -0.8740   13.4710   29.5600 C.2   136  LYS136      0.2287
     61  O         -1.7730   14.2180   29.1680 O.2   136  LYS136     -0.2864
     62  CB        -2.2540   11.4150   29.8660 C.3   136  LYS136      0.0298
     63  CG        -2.2510    9.9030   30.0690 C.3   136  LYS136      0.0038
     64  CD        -3.4930    9.2570   29.4950 C.3   136  LYS136      0.0206
     65  CE        -3.2330    8.7670   28.0740 C.3   136  LYS136      0.1093
     66  NZ        -2.5090    7.4620   28.0530 N.3   136  LYS136     -0.1314
     67  N          8.9640   -4.6370   20.9250 N.3   162  PHE162     -0.1227
     68  CA         9.5740   -4.3040   19.6270 C.3   162  PHE162      0.1736
     69  C         11.0560   -4.6400   19.6650 C.2   162  PHE162      0.2595
     70  O         11.6500   -4.6260   20.7350 O.2   162  PHE162     -0.2718
     71  CB         9.4230   -2.8090   19.3390 C.3   162  PHE162      0.0547
     72  CG         8.0110   -2.3060   19.4160 C.ar  162  PHE162     -0.0202
     73  CD1        7.2270   -2.2300   18.2760 C.ar  162  PHE162     -0.0042
     74  CD2        7.4690   -1.8910   20.6270 C.ar  162  PHE162     -0.0042
     75  CE1        5.9170   -1.7640   18.3420 C.ar  162  PHE162     -0.0003
     76  CE2        6.1600   -1.4260   20.7040 C.ar  162  PHE162     -0.0003
     77  CZ         5.3820   -1.3590   19.5600 C.ar  162  PHE162     -0.0000
     78  N         11.6690   -4.9180   18.5140 N.am  163  ILE163     -0.1980
     79  CA        13.1010   -5.2890   18.5050 C.3   163  ILE163      0.1595
     80  C         14.0510   -4.1960   19.0580 C.2   163  ILE163      0.2287
     81  O         13.8690   -3.0030   18.7960 O.2   163  ILE163     -0.2864
     82  CB        13.5910   -5.8500   17.1370 C.3   163  ILE163      0.0276
     83  CG1       15.0880   -6.1750   17.1920 C.3   163  ILE163      0.0022
     84  CG2       13.3760   -4.8520   16.0460 C.3   163  ILE163      0.0022
     85  CD1       15.5000   -7.5130   16.5130 C.3   163  ILE163      0.0001
     86  N         11.1640    8.5150   34.0990 N.3   179  ASP179     -0.1225
     87  CA        11.3980    8.1900   32.6890 C.3   179  ASP179      0.1805
     88  C         11.5060    9.4790   31.8780 C.2   179  ASP179      0.2598
     89  O         11.1770   10.5590   32.3630 O.2   179  ASP179     -0.2718
     90  CB        10.2470    7.3360   32.1270 C.3   179  ASP179      0.1424
     91  CG        10.6710    6.4610   30.9490 C.2   179  ASP179      0.3668
     92  OD1       11.8550    6.4690   30.5620 O.co2 179  ASP179     -0.2456
     93  OD2        9.8050    5.7560   30.3930 O.co2 179  ASP179     -0.2456
     94  N         12.0120    9.3600   30.6560 N.am  180  ALA180     -0.1966
     95  CA        11.8580   10.4000   29.6620 C.3   180  ALA180      0.1728
     96  C         10.4370   10.2210   29.1540 C.2   180  ALA180      0.2616
     97  O          9.7850    9.2440   29.5040 O.2   180  ALA180     -0.2715
     98  CB        12.8780   10.2240   28.5300 C.3   180  ALA180      0.0334
     99  N          9.9550   11.1550   28.3420 N.am  181  CYS181     -0.1954
    100  CA         8.6110   11.0640   27.7870 C.3   181  CYS181      0.1843
    101  C          8.5090   11.8210   26.4460 C.2   181  CYS181      0.2625
    102  O          9.5260   12.2600   25.8690 O.2   181  CYS181     -0.2714
    103  CB         7.5730   11.5610   28.8170 C.3   181  CYS181      0.0997
    104  SG         5.8550   11.0280   28.5540 S.3   181  CYS181     -0.0797
    105  N          7.2900   11.9510   25.9340 N.am  182  GLN182     -0.1977
    106  CA         7.0850   12.5840   24.6470 C.3   182  GLN182      0.1601
    107  C          7.5620   14.0260   24.7040 C.2   182  GLN182      0.2287
    108  O          7.2360   14.7590   25.6430 O.2   182  GLN182     -0.2864
    109  CB         5.6070   12.4970   24.2520 C.3   182  GLN182      0.0394
    110  CG         5.1240   13.0680   22.9590 C.3   182  GLN182      0.0908
    111  CD         5.7680   12.6090   21.6910 C.2   182  GLN182      0.2608
    112  OE1        6.6240   11.6980   21.7130 O.2   182  GLN182     -0.2717
    113  NE2        5.3310   13.1880   20.5750 N.am  182  GLN182     -0.0878
    114  N         12.4680   13.3260   23.1750 N.3   185  SER185     -0.1217
    115  CA        13.1560   12.6460   22.0700 C.3   185  SER185      0.1889
    116  C         14.1860   13.5430   21.3990 C.2   185  SER185      0.2288
    117  O         13.9520   14.7370   21.2580 O.2   185  SER185     -0.2866
    118  CB        12.1630   12.1600   21.0160 C.3   185  SER185      0.2089
    119  OG        11.4800   11.0210   21.4820 O.3   185  SER185     -0.2183
    120  N         17.8140   10.2630   23.3940 N.3   203  VAL203     -0.1231
    121  CA        16.4400    9.8560   23.7170 C.3   203  VAL203      0.1692
    122  C         15.7390    9.4030   22.4240 C.2   203  VAL203      0.2593
    123  O         15.5950   10.1900   21.4650 O.2   203  VAL203     -0.2718
    124  CB        15.6470   10.9790   24.4180 C.3   203  VAL203      0.0266
    125  CG1       14.2440   10.5060   24.7620 C.3   203  VAL203      0.0020
    126  CG2       16.3600   11.4380   25.6960 C.3   203  VAL203      0.0020
    127  N         15.3440    8.1330   22.3790 N.am  204  SER204     -0.1938
    128  CA        14.8050    7.5770   21.1430 C.3   204  SER204      0.2055
    129  C         13.3250    7.2170   21.2290 C.2   204  SER204      0.2643
    130  O         12.4920    7.8210   20.5210 O.2   204  SER204     -0.2714
    131  CB        15.6250    6.3800   20.6530 C.3   204  SER204      0.2130
    132  OG        15.3100    6.0670   19.2960 O.3   204  SER204     -0.2179
    133  N         12.9910    6.2300   22.0640 N.am  205  TRP205     -0.1959
    134  CA        11.5900    5.8090   22.2060 C.3   205  TRP205      0.1771
    135  C         11.2760    5.0510   23.4950 C.2   205  TRP205      0.2620
    136  O         12.1720    4.6860   24.2550 O.2   205  TRP205     -0.2715
    137  CB        11.1210    5.0050   20.9780 C.3   205  TRP205      0.0590
    138  CG        11.8550    3.7130   20.7410 C.ar  205  TRP205      0.0006
    139  CD1       13.0300    3.5520   20.0560 C.ar  205  TRP205      0.0946
    140  CD2       11.4440    2.3970   21.1460 C.ar  205  TRP205      0.0152
    141  NE1       13.3890    2.2260   20.0420 N.ar  205  TRP205     -0.2442
    142  CE2       12.4270    1.4930   20.6880 C.ar  205  TRP205      0.0810
    143  CE3       10.3430    1.8930   21.8630 C.ar  205  TRP205      0.0012
    144  CZ2       12.3500    0.1140   20.9280 C.ar  205  TRP205      0.0191
    145  CZ3       10.2610    0.5140   22.0960 C.ar  205  TRP205      0.0001
    146  CH2       11.2560   -0.3540   21.6290 C.ar  205  TRP205      0.0015
    147  N          9.9830    4.8440   23.7300 N.am  206  GLY206     -0.1940
    148  CA         9.4890    4.0180   24.8290 C.3   206  GLY206      0.2014
    149  C          8.0290    3.6610   24.6120 C.2   206  GLY206      0.2639
    150  O          7.3090    4.3610   23.8990 O.2   206  GLY206     -0.2714
    151  N          7.5950    2.5680   25.2280 N.am  207  GLU207     -0.1963
    152  CA         6.1800    2.1940   25.2540 C.3   207  GLU207      0.1733
    153  C          5.4660    2.9300   26.3950 C.2   207  GLU207      0.2617
    154  O          5.4950    2.5010   27.5550 O.2   207  GLU207     -0.2715
    155  CB         6.0550    0.6760   25.3720 C.3   207  GLU207      0.0429
    156  CG         6.6400   -0.0430   24.1770 C.3   207  GLU207      0.1163
    157  CD         6.7540   -1.5360   24.3830 C.2   207  GLU207      0.3649
    158  OE1        7.8990   -2.0590   24.3350 O.co2 207  GLU207     -0.2457
    159  OE2        5.7000   -2.1880   24.5970 O.co2 207  GLU207     -0.2457
    160  N          4.8450    4.0580   26.0590 N.am  208  GLY208     -0.1940
    161  CA         4.3830    5.0190   27.0520 C.3   208  GLY208      0.2014
    162  C          5.5380    5.6840   27.7800 C.2   208  GLY208      0.2639
    163  O          6.6550    5.7740   27.2610 O.2   208  GLY208     -0.2714
    164  N          5.2830    6.1430   28.9990 N.am  209  CYS209     -0.1967
    165  CA         6.3100    6.8020   29.7900 C.3   209  CYS209      0.1712
    166  C          6.2260    6.2950   31.2180 C.2   209  CYS209      0.2296
    167  O          5.1900    6.4390   31.8740 O.2   209  CYS209     -0.2864
    168  CB         6.1210    8.3230   29.7820 C.3   209  CYS209      0.0983
    169  SG         6.0270    9.0580   28.1530 S.3   209  CYS209     -0.0798
    170  N          5.8840    3.4130   32.2970 N.3   211  ARG211     -0.1245
    171  CA         5.1140    2.1620   32.4360 C.3   211  ARG211      0.1563
    172  C          5.8950    1.0340   33.1230 C.2   211  ARG211      0.2260
    173  O          7.0770    0.8120   32.8170 O.2   211  ARG211     -0.2867
    174  CB         4.6360    1.6680   31.0790 C.3   211  ARG211      0.0307
    175  CG         3.5650    2.5460   30.4380 C.3   211  ARG211      0.0489
    176  CD         2.9030    1.8490   29.2630 C.3   211  ARG211      0.2205
    177  NE         2.1910    2.7990   28.4210 N.pl3 211  ARG211     -0.0865
    178  CZ         1.8020    2.5500   27.1750 C.cat 211  ARG211      0.5346
    179  NH1        2.0480    1.3690   26.6240 N.pl3 211  ARG211      0.1354
    180  NH2        1.1720    3.4860   26.4740 N.pl3 211  ARG211      0.1354
    181  N         13.3380    3.1110   29.1050 N.3   216  GLY216     -0.1210
    182  CA        13.6130    4.1110   28.0810 C.3   216  GLY216      0.1956
    183  C         14.5850    3.5370   27.0740 C.2   216  GLY216      0.2612
    184  O         15.5590    2.8820   27.4610 O.2   216  GLY216     -0.2717
    185  N         14.3250    3.7580   25.7870 N.am  217  ILE217     -0.1965
    186  CA        15.2370    3.2760   24.7430 C.3   217  ILE217      0.1727
    187  C         15.9720    4.4320   24.0410 C.2   217  ILE217      0.2616
    188  O         15.3400    5.3620   23.5330 O.2   217  ILE217     -0.2715
    189  CB        14.5290    2.3880   23.6850 C.3   217  ILE217      0.0290
    190  CG1       13.4240    1.4940   24.3230 C.3   217  ILE217      0.0022
    191  CG2       15.5710    1.5750   22.8990 C.3   217  ILE217      0.0023
    192  CD1       13.9610    0.3440   25.2150 C.3   217  ILE217      0.0001
    193  N         17.3040    4.3240   24.0070 N.am  218  TYR218     -0.1974
    194  CA        18.2050    5.3830   23.5790 C.3   218  TYR218      0.1639
    195  C         19.0620    4.8690   22.4460 C.2   218  TYR218      0.2290
    196  O         19.4840    3.7130   22.4620 O.2   218  TYR218     -0.2864
    197  CB        19.1420    5.8020   24.7320 C.3   218  TYR218      0.0560
    198  CG        18.4310    6.3640   25.9260 C.ar  218  TYR218     -0.0198
    199  CD1       18.4030    7.7330   26.1610 C.ar  218  TYR218     -0.0009
    200  CD2       17.7590    5.5200   26.8140 C.ar  218  TYR218     -0.0009
    201  CE1       17.7310    8.2470   27.2470 C.ar  218  TYR218      0.0417
    202  CE2       17.0890    6.0160   27.9020 C.ar  218  TYR218      0.0417
    203  CZ        17.0690    7.3840   28.1160 C.ar  218  TYR218      0.1957
    204  OH        16.3930    7.8710   29.2120 O.3   218  TYR218     -0.2866
@<TRIPOS>BOND
     1    18    16   ar
     2    17    16   ar
     3    16    15    1
     4     9     8    1
     5    15    14    1
     6     7     8    1
     7     7     6    1
     8    14    11    1
     9     1     2    1
    10     6     5    1
    11     5     2    1
    12    10    11    1
    13    10     3   am
    14    11    12    1
    15     2     3    1
    16     3     4    2
    17    12    19   am
    18    12    13    2
    19    24    23    1
    20    25    23    1
    21    19    20    1
    22    23    20    1
    23    20    21    1
    24    26    21   am
    25    26    27    1
    26    21    22    2
    27    27    28    1
    28    27    30    1
    29    34    32   ar
    30    34    36   ar
    31    28    29    2
    32    32    31   ar
    33    37    36    1
    34    36    35   ar
    35    31    30    1
    36    31    33   ar
    37    84    82    1
    38    85    83    1
    39    35    33   ar
    40    82    83    1
    41    82    79    1
    42    73    75   ar
    43    73    72   ar
    44    75    77   ar
    45    79    78    1
    46    79    80    1
    47    78    69   am
    48    81    80    2
    49   132   131    1
    50    71    72    1
    51    71    68    1
    52    72    74   ar
    53    77    76   ar
    54    68    69    1
    55    68    67    1
    56    69    70    2
    57   141   139   ar
    58   141   142   ar
    59   139   138   ar
    60   130   129    2
    61   113   111   am
    62    74    76   ar
    63   131   128    1
    64   142   144   ar
    65   142   140   ar
    66   138   137    1
    67   138   140   ar
    68   144   146   ar
    69   137   134    1
    70   118   119    1
    71   118   115    1
    72   128   129    1
    73   128   127    1
    74   140   143   ar
    75   129   133   am
    76   117   116    2
    77   116   115    1
    78   123   122    2
    79   146   145   ar
    80   111   112    2
    81   111   110    1
    82   143   145   ar
    83   133   134    1
    84   115   114    1
    85   134   135    1
    86   127   122   am
    87   122   121    1
    88   195   196    2
    89   195   194    1
    90   191   189    1
    91   110   109    1
    92   120   121    1
    93   135   147   am
    94   135   136    2
    95   188   187    2
    96   194   193    1
    97   194   197    1
    98   189   190    1
    99   189   186    1
   100   121   124    1
   101   147   148    1
   102   150   149    2
   103   193   187   am
   104   187   186    1
   105   156   157    1
   106   156   155    1
   107    47    46    1
   108   109   106    1
   109   190   192    1
   110   158   157   ar
   111   157   159   ar
   112   124   125    1
   113   124   126    1
   114   149   148    1
   115   149   151   am
   116   106   107    1
   117   106   105    1
   118   107   108    2
   119   197   198    1
   120   186   185    1
   121   151   152    1
   122   152   155    1
   123   152   153    1
   124    46    48    1
   125    46    45    2
   126   185   183   am
   127   102   101    2
   128   198   199   ar
   129   198   200   ar
   130   105   101   am
   131   160   153   am
   132   160   161    1
   133   199   201   ar
   134    44    45    1
   135    44    43    1
   136   153   154    2
   137   101   100    1
   138   180   178    1
   139   179   178    1
   140   200   202   ar
   141   161   162    1
   142   183   184    2
   143   183   182    1
   144   178   177    2
   145   201   203   ar
   146   163   162    2
   147    43    42    1
   148   162   164   am
   149   100    99    1
   150   100   103    1
   151    52    51    2
   152   202   203   ar
   153    57    55   ar
   154    66    65    1
   155    65    64    1
   156   182   181    1
   157   203   204    1
   158   169   104    1
   159   169   168    1
   160    38    39    1
   161    99    96   am
   162    42    39    1
   163   177   176    1
   164    98    95    1
   165   104   103    1
   166    54    55    1
   167    54    53    1
   168    55    56   ar
   169   164   165    1
   170    51    50    1
   171    51    58   am
   172    39    40    1
   173    96    97    2
   174    96    95    1
   175    61    60    2
   176   176   175    1
   177    59    60    1
   178    59    58    1
   179    59    62    1
   180    64    63    1
   181    95    94    1
   182    50    53    1
   183    50    49    1
   184   168   165    1
   185   165   166    1
   186    62    63    1
   187    93    91   ar
   188   175   174    1
   189    40    41    2
   190    92    91   ar
   191    94    88   am
   192    91    90    1
   193   174   171    1
   194   166   167    2
   195    88    89    2
   196    88    87    1
   197    90    87    1
   198   170   171    1
   199   171   172    1
   200    87    86    1
   201   173   172    2
