@<TRIPOS>MOLECULE
tmp/3tk6A00.pdb
 187 184 0 0 0
SMALL
GASTEIGER

@<TRIPOS>ATOM
      1  N         11.2640    4.7000   10.5120 N.3    82  LYS82      -0.1231
      2  CA        10.1500    4.9970   11.4050 C.3    82  LYS82       0.1693
      3  C          9.6080    3.7590   12.0970 C.2    82  LYS82       0.2592
      4  O          9.1070    3.8540   13.2190 O.2    82  LYS82      -0.2718
      5  CB         9.0070    5.7010   10.6580 C.3    82  LYS82       0.0285
      6  CG         9.4480    6.7510    9.6230 C.3    82  LYS82       0.0035
      7  CD         8.2650    7.5970    9.1260 C.3    82  LYS82       0.0206
      8  CE         8.0470    8.8670    9.9630 C.3    82  LYS82       0.1093
      9  NZ         6.8910    9.6980    9.4540 N.3    82  LYS82      -0.1314
     10  N          9.7190    2.6000   11.4440 N.am   83  GLU83      -0.1966
     11  CA         9.0730    1.3780   11.9440 C.3    83  GLU83       0.1733
     12  C          9.6550    0.8550   13.2560 C.2    83  GLU83       0.2617
     13  O          8.9160    0.3860   14.1280 O.2    83  GLU83      -0.2715
     14  CB         9.0930    0.2770   10.8750 C.3    83  GLU83       0.0429
     15  CG         8.3390    0.6560    9.5930 C.3    83  GLU83       0.1163
     16  CD         6.9720    1.3020    9.7970 C.2    83  GLU83       0.3649
     17  OE1        6.1930    0.8360   10.6310 O.co2  83  GLU83      -0.2457
     18  OE2        6.6910    2.2860    9.1090 O.co2  83  GLU83      -0.2457
     19  N         10.9750    0.9610   13.3920 N.am   84  THR84      -0.1937
     20  CA        11.7000    0.4790   14.5650 C.3    84  THR84       0.2028
     21  C         12.4250    1.6150   15.3270 C.2    84  THR84       0.2642
     22  O         12.8520    1.4090   16.4590 O.2    84  THR84      -0.2714
     23  CB        12.7590   -0.5220   14.1410 C.3    84  THR84       0.1808
     24  OG1       13.6460    0.1040   13.2010 O.3    84  THR84      -0.2208
     25  CG2       12.0780   -1.7800   13.4730 C.3    84  THR84       0.0379
     26  N         12.5250    2.7880   14.7050 N.am   85  TYR85      -0.1973
     27  CA        13.3470    3.9190   15.2050 C.3    85  TYR85       0.1639
     28  C         14.8420    3.6050   15.2240 C.2    85  TYR85       0.2290
     29  O         15.6240    4.2690   15.9260 O.2    85  TYR85      -0.2864
     30  CB        12.8820    4.4050   16.5860 C.3    85  TYR85       0.0560
     31  CG        11.7800    5.4540   16.5830 C.ar   85  TYR85      -0.0198
     32  CD1       10.7710    5.4600   15.6060 C.ar   85  TYR85      -0.0009
     33  CD2       11.7070    6.4120   17.5970 C.ar   85  TYR85      -0.0009
     34  CE1        9.7360    6.3960   15.6360 C.ar   85  TYR85       0.0417
     35  CE2       10.6900    7.3500   17.6270 C.ar   85  TYR85       0.0417
     36  CZ         9.7060    7.3380   16.6460 C.ar   85  TYR85       0.1957
     37  OH         8.7050    8.2880   16.6840 O.3    85  TYR85      -0.2866
     38  N          7.1160   15.9510   28.7980 N.3   132  ARG132     -0.1245
     39  CA         6.0240   15.6840   29.7360 C.3   132  ARG132      0.1563
     40  C          6.4990   15.2190   31.1020 C.2   132  ARG132      0.2260
     41  O          7.4690   14.4620   31.1880 O.2   132  ARG132     -0.2867
     42  CB         5.1060   14.6500   29.0930 C.3   132  ARG132      0.0307
     43  CG         4.2540   15.3810   28.0740 C.3   132  ARG132      0.0489
     44  CD         4.0110   14.7040   26.7600 C.3   132  ARG132      0.2205
     45  NE         3.1540   13.5530   26.8630 N.pl3 132  ARG132     -0.0865
     46  CZ         2.4200   13.0570   25.8650 C.cat 132  ARG132      0.5346
     47  NH1        2.3860   13.6290   24.6730 N.pl3 132  ARG132      0.1354
     48  NH2        1.6980   11.9680   26.0760 N.pl3 132  ARG132      0.1354
     49  N          3.0230   10.5420   31.7830 N.3   135  GLU135     -0.1245
     50  CA         2.7090   10.0020   30.4740 C.3   135  GLU135      0.1567
     51  C          1.6120   10.7510   29.7150 C.2   135  GLU135      0.2260
     52  O          1.7300   10.9920   28.4950 O.2   135  GLU135     -0.2867
     53  CB         2.3790    8.5210   30.6080 C.3   135  GLU135      0.0388
     54  CG         2.1500    7.8350   29.3080 C.3   135  GLU135      0.1160
     55  CD         1.9790    6.3420   29.4630 C.2   135  GLU135      0.3649
     56  OE1        2.7250    5.6940   30.2350 O.co2 135  GLU135     -0.2457
     57  OE2        1.1060    5.8130   28.7630 O.co2 135  GLU135     -0.2457
     58  N          9.0510   -4.1250   21.4170 N.3   162  PHE162     -0.1241
     59  CA         9.6420   -3.7680   20.1310 C.3   162  PHE162      0.1605
     60  C         11.1380   -4.1090   20.0890 C.2   162  PHE162      0.2264
     61  O         11.8110   -4.1640   21.1300 O.2   162  PHE162     -0.2867
     62  CB         9.4380   -2.2790   19.8510 C.3   162  PHE162      0.0534
     63  CG         7.9990   -1.8420   19.8890 C.ar  162  PHE162     -0.0203
     64  CD1        7.2410   -1.8070   18.7250 C.ar  162  PHE162     -0.0042
     65  CD2        7.4050   -1.4420   21.0980 C.ar  162  PHE162     -0.0042
     66  CE1        5.9120   -1.3810   18.7550 C.ar  162  PHE162     -0.0003
     67  CE2        6.0830   -1.0180   21.1390 C.ar  162  PHE162     -0.0003
     68  CZ         5.3340   -0.9920   19.9560 C.ar  162  PHE162     -0.0000
     69  N         11.4610    8.5630   34.6190 N.3   179  ASP179     -0.1225
     70  CA        11.8420    8.2390   33.2310 C.3   179  ASP179      0.1805
     71  C         11.9010    9.5680   32.4920 C.2   179  ASP179      0.2598
     72  O         11.4980   10.5990   33.0290 O.2   179  ASP179     -0.2718
     73  CB        10.7430    7.3650   32.6330 C.3   179  ASP179      0.1424
     74  CG        11.1400    6.6420   31.3720 C.2   179  ASP179      0.3668
     75  OD1       12.2550    6.8170   30.8390 O.co2 179  ASP179     -0.2456
     76  OD2       10.2920    5.8600   30.8910 O.co2 179  ASP179     -0.2456
     77  N         12.4040    9.5390   31.2670 N.am  180  ALA180     -0.1966
     78  CA        12.1550   10.6220   30.3600 C.3   180  ALA180      0.1728
     79  C         10.7720   10.3540   29.8040 C.2   180  ALA180      0.2616
     80  O         10.1440    9.3280   30.1350 O.2   180  ALA180     -0.2715
     81  CB        13.2190   10.6590   29.2110 C.3   180  ALA180      0.0334
     82  N         10.3270   11.2570   28.9490 N.am  181  CYS181     -0.1954
     83  CA         9.0210   11.1490   28.3390 C.3   181  CYS181      0.1843
     84  C          8.9630   11.9290   27.0130 C.2   181  CYS181      0.2625
     85  O          9.9550   12.5120   26.5160 O.2   181  CYS181     -0.2714
     86  CB         7.9410   11.6160   29.3520 C.3   181  CYS181      0.0997
     87  SG         6.2410   11.0060   28.9890 S.3   181  CYS181     -0.0797
     88  N          7.8000   11.8820   26.3860 N.am  182  GLN182     -0.1977
     89  CA         7.5940   12.5380   25.1160 C.3   182  GLN182      0.1601
     90  C          7.9530   14.0210   25.2200 C.2   182  GLN182      0.2287
     91  O          7.6000   14.6630   26.1970 O.2   182  GLN182     -0.2864
     92  CB         6.1230   12.3770   24.7770 C.3   182  GLN182      0.0394
     93  CG         5.6830   13.1120   23.5750 C.3   182  GLN182      0.0908
     94  CD         5.8530   12.2990   22.3640 C.2   182  GLN182      0.2608
     95  OE1        5.3150   11.1680   22.2560 O.2   182  GLN182     -0.2717
     96  NE2        6.5990   12.8500   21.4010 N.am  182  GLN182     -0.0878
     97  N         12.4810   13.7550   23.8950 N.3   185  SER185     -0.1217
     98  CA        12.9400   13.1970   22.6150 C.3   185  SER185      0.1889
     99  C         13.9740   14.0680   21.9030 C.2   185  SER185      0.2288
    100  O         13.7800   15.2570   21.7320 O.2   185  SER185     -0.2866
    101  CB        11.7160   13.0080   21.6910 C.3   185  SER185      0.2089
    102  OG        10.5590   12.6230   22.4710 O.3   185  SER185     -0.2183
    103  N         17.7570   10.8140   23.6260 N.3   203  VAL203     -0.1231
    104  CA        16.4380   10.3160   24.0210 C.3   203  VAL203      0.1692
    105  C         15.6790    9.9010   22.7490 C.2   203  VAL203      0.2593
    106  O         15.5230   10.7080   21.8270 O.2   203  VAL203     -0.2718
    107  CB        15.6290   11.3990   24.7710 C.3   203  VAL203      0.0266
    108  CG1       14.1990   10.8490   25.1700 C.3   203  VAL203      0.0020
    109  CG2       16.3930   11.8880   26.0460 C.3   203  VAL203      0.0020
    110  N         15.1910    8.6750   22.7140 N.am  204  SER204     -0.1938
    111  CA        14.6040    8.1610   21.4830 C.3   204  SER204      0.2055
    112  C         13.1160    7.7860   21.6010 C.2   204  SER204      0.2643
    113  O         12.2760    8.3740   20.9150 O.2   204  SER204     -0.2714
    114  CB        15.4070    6.9750   20.9490 C.3   204  SER204      0.2130
    115  OG        14.9980    6.6320   19.6210 O.3   204  SER204     -0.2179
    116  N         12.7950    6.8260   22.4630 N.am  205  TRP205     -0.1959
    117  CA        11.3940    6.3960   22.5850 C.3   205  TRP205      0.1771
    118  C         11.2400    5.5360   23.8330 C.2   205  TRP205      0.2620
    119  O         12.2100    5.2180   24.5090 O.2   205  TRP205     -0.2715
    120  CB        10.9730    5.6250   21.3180 C.3   205  TRP205      0.0590
    121  CG        11.7700    4.3500   21.0290 C.ar  205  TRP205      0.0006
    122  CD1       12.9350    4.2310   20.2910 C.ar  205  TRP205      0.0946
    123  CD2       11.4210    3.0090   21.4300 C.ar  205  TRP205      0.0152
    124  NE1       13.3210    2.9170   20.2370 N.ar  205  TRP205     -0.2442
    125  CE2       12.4240    2.1540   20.9500 C.ar  205  TRP205      0.0810
    126  CE3       10.3740    2.4610   22.1880 C.ar  205  TRP205      0.0012
    127  CZ2       12.4090    0.7610   21.1890 C.ar  205  TRP205      0.0191
    128  CZ3       10.3570    1.0620   22.4200 C.ar  205  TRP205      0.0001
    129  CH2       11.3600    0.2400   21.9120 C.ar  205  TRP205      0.0015
    130  N         10.0010    5.2150   24.1660 N.am  206  GLY206     -0.1940
    131  CA         9.6950    4.3400   25.3070 C.3   206  GLY206      0.2014
    132  C          8.2390    3.9150   25.0870 C.2   206  GLY206      0.2639
    133  O          7.5300    4.5570   24.2960 O.2   206  GLY206     -0.2714
    134  N          7.8250    2.8290   25.7470 N.am  207  GLU207     -0.1963
    135  CA         6.4260    2.3710   25.7430 C.3   207  GLU207      0.1733
    136  C          5.7070    3.1070   26.8850 C.2   207  GLU207      0.2617
    137  O          5.8470    2.7790   28.0630 O.2   207  GLU207     -0.2715
    138  CB         6.3710    0.8510   25.9030 C.3   207  GLU207      0.0429
    139  CG         7.1550    0.0940   24.8110 C.3   207  GLU207      0.1163
    140  CD         6.9750   -1.4210   24.8960 C.2   207  GLU207      0.3649
    141  OE1        7.9630   -2.1740   24.7280 O.co2 207  GLU207     -0.2457
    142  OE2        5.8320   -1.8490   25.1730 O.co2 207  GLU207     -0.2457
    143  N          5.0420    4.1830   26.5370 N.am  208  GLY208     -0.1940
    144  CA         4.6180    5.1390   27.5740 C.3   208  GLY208      0.2014
    145  C          5.8180    5.8410   28.1970 C.2   208  GLY208      0.2639
    146  O          6.8440    6.0520   27.5240 O.2   208  GLY208     -0.2714
    147  N          5.7040    6.1760   29.4830 N.am  209  CYS209     -0.1967
    148  CA         6.7850    6.7930   30.2380 C.3   209  CYS209      0.1712
    149  C          6.6420    6.2580   31.6190 C.2   209  CYS209      0.2296
    150  O          5.5300    6.3060   32.1760 O.2   209  CYS209     -0.2864
    151  CB         6.6260    8.3270   30.2990 C.3   209  CYS209      0.0983
    152  SG         6.4470    9.0360   28.7000 S.3   209  CYS209     -0.0798
    153  N          6.5440    3.3640   32.8490 N.3   211  ARG211     -0.1245
    154  CA         5.7130    2.1680   33.0220 C.3   211  ARG211      0.1563
    155  C          6.4720    1.0280   33.6720 C.2   211  ARG211      0.2260
    156  O          7.6700    0.8120   33.4140 O.2   211  ARG211     -0.2867
    157  CB         5.1650    1.7240   31.6730 C.3   211  ARG211      0.0307
    158  CG         4.0400    2.6030   31.1760 C.3   211  ARG211      0.0489
    159  CD         3.3650    1.9790   29.9960 C.3   211  ARG211      0.2205
    160  NE         2.6030    2.9420   29.2200 N.pl3 211  ARG211     -0.0865
    161  CZ         2.1430    2.6990   28.0000 C.cat 211  ARG211      0.5346
    162  NH1        2.3750    1.5130   27.4410 N.pl3 211  ARG211      0.1354
    163  NH2        1.4520    3.6340   27.3490 N.pl3 211  ARG211      0.1354
    164  N         13.4880    3.4780   29.4130 N.3   216  GLY216     -0.1210
    165  CA        13.6410    4.5010   28.3650 C.3   216  GLY216      0.1956
    166  C         14.6480    3.9710   27.3610 C.2   216  GLY216      0.2612
    167  O         15.6060    3.2920   27.7520 O.2   216  GLY216     -0.2717
    168  N         14.4140    4.2340   26.0800 N.am  217  ILE217     -0.1965
    169  CA        15.2310    3.7220   24.9850 C.3   217  ILE217      0.1727
    170  C         15.9420    4.9190   24.3610 C.2   217  ILE217      0.2616
    171  O         15.3110    5.8950   23.9260 O.2   217  ILE217     -0.2715
    172  CB        14.4100    3.0030   23.8960 C.3   217  ILE217      0.0290
    173  CG1       13.3650    2.0570   24.5390 C.3   217  ILE217      0.0022
    174  CG2       15.3460    2.2110   22.9580 C.3   217  ILE217      0.0023
    175  CD1       13.9920    0.9960   25.5090 C.3   217  ILE217      0.0001
    176  N         17.2540    4.7850   24.2880 N.am  218  TYR218     -0.1974
    177  CA        18.1600    5.8600   23.8410 C.3   218  TYR218      0.1639
    178  C         18.9540    5.4390   22.6430 C.2   218  TYR218      0.2290
    179  O         19.3770    4.2980   22.5690 O.2   218  TYR218     -0.2864
    180  CB        19.1540    6.1950   24.9580 C.3   218  TYR218      0.0560
    181  CG        18.4370    6.7280   26.1720 C.ar  218  TYR218     -0.0198
    182  CD1       18.4310    8.0830   26.4370 C.ar  218  TYR218     -0.0009
    183  CD2       17.7380    5.8600   27.0360 C.ar  218  TYR218     -0.0009
    184  CE1       17.7640    8.5890   27.5260 C.ar  218  TYR218      0.0417
    185  CE2       17.0500    6.3490   28.1200 C.ar  218  TYR218      0.0417
    186  CZ        17.0370    7.7170   28.3550 C.ar  218  TYR218      0.1957
    187  OH        16.3960    8.2530   29.4420 O.3   218  TYR218     -0.2866
@<TRIPOS>BOND
     1    18    16   ar
     2     7     6    1
     3     7     8    1
     4     9     8    1
     5    15    16    1
     6    15    14    1
     7     6     5    1
     8    16    17   ar
     9     1     2    1
    10     5     2    1
    11    14    11    1
    12     2     3    1
    13    10    11    1
    14    10     3   am
    15    11    12    1
    16     3     4    2
    17    24    23    1
    18    12    19   am
    19    12    13    2
    20    19    20    1
    21    25    23    1
    22    23    20    1
    23    20    21    1
    24    26    27    1
    25    26    21   am
    26    27    28    1
    27    27    30    1
    28    28    29    2
    29    21    22    2
    30    32    34   ar
    31    32    31   ar
    32    34    36   ar
    33    31    30    1
    34    31    33   ar
    35    36    37    1
    36    36    35   ar
    37    33    35   ar
    38    64    66   ar
    39    64    63   ar
    40    66    68   ar
    41   115   114    1
    42    62    63    1
    43    62    59    1
    44    63    65   ar
    45    68    67   ar
    46    60    59    1
    47    60    61    2
    48    59    58    1
    49   124   122   ar
    50   124   125   ar
    51   122   121   ar
    52   113   112    2
    53   114   111    1
    54   125   127   ar
    55   125   123   ar
    56   121   120    1
    57   121   123   ar
    58    65    67   ar
    59   127   129   ar
    60   120   117    1
    61    96    94   am
    62   123   126   ar
    63   111   112    1
    64   111   110    1
    65   112   116   am
    66   101   102    1
    67   101    98    1
    68   100    99    2
    69   106   105    2
    70    99    98    1
    71   129   128   ar
    72   126   128   ar
    73    95    94    2
    74    94    93    1
    75   116   117    1
    76   179   178    2
    77   117   118    1
    78    98    97    1
    79   178   177    1
    80   110   105   am
    81   105   104    1
    82   174   172    1
    83    93    92    1
    84   103   104    1
    85   118   130   am
    86   118   119    2
    87   177   176    1
    88   177   180    1
    89   172   173    1
    90   172   169    1
    91   171   170    2
    92   104   107    1
    93   130   131    1
    94   176   170   am
    95   133   132    2
    96   170   169    1
    97   173   175    1
    98    47    46    1
    99   141   140   ar
   100   107   108    1
   101   107   109    1
   102    92    89    1
   103   139   140    1
   104   139   138    1
   105   140   142   ar
   106   180   181    1
   107   169   168    1
   108   132   131    1
   109   132   134   am
   110    89    90    1
   111    89    88    1
   112    90    91    2
   113   135   134    1
   114   135   138    1
   115   135   136    1
   116    46    48    1
   117    46    45    2
   118   168   166   am
   119   181   182   ar
   120   181   183   ar
   121    88    84   am
   122   182   184   ar
   123    85    84    2
   124   143   136   am
   125   143   144    1
   126    44    45    1
   127    44    43    1
   128   136   137    2
   129    84    83    1
   130   183   185   ar
   131   163   161    1
   132   166   167    2
   133   166   165    1
   134   162   161    1
   135   146   145    2
   136   184   186   ar
   137   144   145    1
   138   161   160    2
   139    43    42    1
   140   185   186   ar
   141   145   147   am
   142    83    82    1
   143    83    86    1
   144   186   187    1
   145   165   164    1
   146    52    51    2
   147   152    87    1
   148   152   151    1
   149    57    55   ar
   150    38    39    1
   151    82    79   am
   152    87    86    1
   153    42    39    1
   154    81    78    1
   155   160   159    1
   156    54    55    1
   157    54    53    1
   158    55    56   ar
   159   147   148    1
   160    51    50    1
   161    39    40    1
   162    79    80    2
   163    79    78    1
   164   159   158    1
   165   148   151    1
   166   148   149    1
   167    78    77    1
   168    50    53    1
   169    50    49    1
   170    75    74   ar
   171    76    74   ar
   172    40    41    2
   173   158   157    1
   174    77    71   am
   175    74    73    1
   176   149   150    2
   177   157   154    1
   178    71    72    2
   179    71    70    1
   180    73    70    1
   181   153   154    1
   182   154   155    1
   183    70    69    1
   184   156   155    2
