@<TRIPOS>MOLECULE
tmp/3tk7A00.pdb
 164 153 0 0 0
SMALL
GASTEIGER

@<TRIPOS>ATOM
      1  N        -28.7750   -2.1200   41.7900 N.3    17  ASP17      -0.1239
      2  CA       -27.7230   -1.8980   40.8030 C.3    17  ASP17       0.1674
      3  C        -26.6030   -1.1070   41.4800 C.2    17  ASP17       0.2266
      4  O        -26.6620    0.1100   41.5380 O.2    17  ASP17      -0.2867
      5  CB       -28.3280   -1.1020   39.6230 C.3    17  ASP17       0.1410
      6  CG       -27.4870   -1.1710   38.3470 C.2    17  ASP17       0.3668
      7  OD1      -26.5740   -2.0260   38.2640 O.co2  17  ASP17      -0.2456
      8  OD2      -27.7690   -0.3650   37.4150 O.co2  17  ASP17      -0.2456
      9  N        -26.9560   -6.3570   40.8560 N.3    33  THR33      -0.1203
     10  CA       -26.1290   -6.3440   39.6590 C.3    33  THR33       0.1994
     11  C        -24.9610   -5.3870   39.8290 C.2    33  THR33       0.2619
     12  O        -25.0980   -4.3320   40.4580 O.2    33  THR33      -0.2717
     13  CB       -26.9030   -5.9020   38.3750 C.3    33  THR33       0.1784
     14  OG1      -27.5360   -4.6180   38.5830 O.3    33  THR33      -0.2211
     15  CG2      -27.9470   -6.9440   37.9670 C.3    33  THR33       0.0376
     16  N        -23.8020   -5.7910   39.3170 N.am   34  THR34      -0.1938
     17  CA       -22.6370   -4.9230   39.2610 C.3    34  THR34       0.2028
     18  C        -22.2780   -4.8450   37.7940 C.2    34  THR34       0.2642
     19  O        -22.7920   -5.6070   36.9870 O.2    34  THR34      -0.2714
     20  CB       -21.4070   -5.4670   40.0280 C.3    34  THR34       0.1808
     21  OG1      -20.8750   -6.6440   39.3760 O.3    34  THR34      -0.2208
     22  CG2      -21.7610   -5.7850   41.4780 C.3    34  THR34       0.0379
     23  N        -21.4390   -3.8880   37.4440 N.am   35  ASN35      -0.1971
     24  CA       -20.8920   -3.7970   36.0930 C.3    35  ASN35       0.1688
     25  C        -19.4970   -3.1750   36.2750 C.2    35  ASN35       0.2292
     26  O        -19.1580   -2.7800   37.3750 O.2    35  ASN35      -0.2864
     27  CB       -21.8220   -3.0540   35.1010 C.3    35  ASN35       0.1181
     28  CG       -21.8880   -1.5520   35.3330 C.2    35  ASN35       0.2629
     29  OD1      -20.9320   -0.9400   35.8160 O.2    35  ASN35      -0.2716
     30  ND2      -23.0000   -0.9430   34.9330 N.am   35  ASN35      -0.0877
     31  N        -18.1930   -0.3070   35.5640 N.3    37  SER37      -0.1202
     32  CA       -18.1780    1.0780   36.0350 C.3    37  SER37       0.2020
     33  C        -18.5550    1.1560   37.5250 C.2    37  SER37       0.2618
     34  O        -18.0330    1.9830   38.2700 O.2    37  SER37      -0.2717
     35  CB       -19.1290    1.9240   35.2100 C.3    37  SER37       0.2103
     36  OG       -18.7150    1.9370   33.8600 O.3    37  SER37      -0.2182
     37  N        -19.4790    0.2980   37.9470 N.am   38  LEU38      -0.1979
     38  CA       -19.9100    0.2520   39.3490 C.3    38  LEU38       0.1596
     39  C        -18.8080   -0.3220   40.2470 C.2    38  LEU38       0.2287
     40  O        -18.6510    0.1070   41.3950 O.2    38  LEU38      -0.2864
     41  CB       -21.2090   -0.5380   39.4940 C.3    38  LEU38       0.0297
     42  CG       -22.4620    0.0830   38.8660 C.3    38  LEU38       0.0022
     43  CD1      -23.6090   -0.9290   38.8440 C.3    38  LEU38       0.0001
     44  CD2      -22.8650    1.3650   39.5920 C.3    38  LEU38       0.0001
     45  N        -19.6220   -9.0400   35.7470 N.3    98  GLU98      -0.1245
     46  CA       -19.4060   -8.9170   34.2960 C.3    98  GLU98       0.1567
     47  C        -18.0180   -9.3110   33.8560 C.2    98  GLU98       0.2260
     48  O        -17.0350   -8.9680   34.5110 O.2    98  GLU98      -0.2867
     49  CB       -19.7350   -7.4800   33.8180 C.3    98  GLU98       0.0388
     50  CG       -19.6420   -7.3050   32.2910 C.3    98  GLU98       0.1160
     51  CD       -20.4480   -6.1310   31.7130 C.2    98  GLU98       0.3649
     52  OE1      -21.2740   -5.5040   32.4370 O.co2  98  GLU98      -0.2457
     53  OE2      -20.2730   -5.8340   30.4890 O.co2  98  GLU98      -0.2457
     54  N        -22.3130  -11.6560   33.6170 N.3   134  LYS134     -0.1245
     55  CA       -22.8390  -10.6110   32.7470 C.3   134  LYS134      0.1561
     56  C        -21.9620  -10.5540   31.5120 C.2   134  LYS134      0.2260
     57  O        -20.7200  -10.5110   31.6170 O.2   134  LYS134     -0.2867
     58  CB       -22.7980   -9.2630   33.4540 C.3   134  LYS134      0.0271
     59  CG       -23.9940   -8.4020   33.1800 C.3   134  LYS134      0.0035
     60  CD       -23.8620   -7.0530   33.8860 C.3   134  LYS134      0.0206
     61  CE       -25.1710   -6.7190   34.5290 C.3   134  LYS134      0.1093
     62  NZ       -25.2330   -5.3300   35.0300 N.3   134  LYS134     -0.1314
     63  N        -26.3460  -13.2940   32.2850 N.3   156  ASN156     -0.1240
     64  CA       -27.1080  -12.0550   32.2300 C.3   156  ASN156      0.1653
     65  C        -26.5710  -11.3190   31.0120 C.2   156  ASN156      0.2266
     66  O        -25.4640  -10.8020   31.0280 O.2   156  ASN156     -0.2867
     67  CB       -26.8840  -11.2470   33.5140 C.3   156  ASN156      0.1155
     68  CG       -27.5020   -9.8510   33.4710 C.2   156  ASN156      0.2627
     69  OD1      -27.9140   -9.3470   32.4020 O.2   156  ASN156     -0.2716
     70  ND2      -27.5770   -9.2150   34.6350 N.am  156  ASN156     -0.0877
     71  N        -26.2310   -8.3480   28.7280 N.3   158  THR158     -0.1218
     72  CA       -26.3630   -6.9220   28.9310 C.3   158  THR158      0.1862
     73  C        -26.0840   -6.0970   27.6630 C.2   158  THR158      0.2287
     74  O        -25.7030   -6.6390   26.6040 O.2   158  THR158     -0.2866
     75  CB       -25.4440   -6.4980   30.1060 C.3   158  THR158      0.1770
     76  OG1      -25.7490   -5.1670   30.5430 O.3   158  THR158     -0.2211
     77  CG2      -23.9540   -6.6340   29.7410 C.3   158  THR158      0.0375
     78  N        -30.8330   -8.0430   30.0650 N.3   178  SER178     -0.1217
     79  CA       -30.9030   -6.7110   30.6450 C.3   178  SER178      0.1889
     80  C        -31.0680   -5.6420   29.5760 C.2   178  SER178      0.2288
     81  O        -30.1050   -4.9460   29.2200 O.2   178  SER178     -0.2866
     82  CB       -29.6710   -6.4000   31.4980 C.3   178  SER178      0.2089
     83  OG       -29.5820   -7.2500   32.6310 O.3   178  SER178     -0.2183
     84  N        -31.6530   -2.1610   28.1960 N.3   180  PHE180     -0.1241
     85  CA       -31.3990   -0.8520   28.7770 C.3   180  PHE180      0.1605
     86  C        -32.4910    0.1490   28.4700 C.2   180  PHE180      0.2264
     87  O        -33.0570    0.1560   27.3710 O.2   180  PHE180     -0.2867
     88  CB       -30.0650   -0.2950   28.2570 C.3   180  PHE180      0.0534
     89  CG       -28.8590   -0.8540   28.9490 C.ar  180  PHE180     -0.0203
     90  CD1      -27.7520   -0.0470   29.1960 C.ar  180  PHE180     -0.0042
     91  CD2      -28.8460   -2.1600   29.4240 C.ar  180  PHE180     -0.0042
     92  CE1      -26.6370   -0.5520   29.8370 C.ar  180  PHE180     -0.0003
     93  CE2      -27.7330   -2.6670   30.0820 C.ar  180  PHE180     -0.0003
     94  CZ       -26.6350   -1.8630   30.2950 C.ar  180  PHE180     -0.0000
     95  N        -29.8710    4.5680   28.7160 N.3   183  ARG183     -0.1245
     96  CA       -28.9390    4.9630   27.6780 C.3   183  ARG183      0.1563
     97  C        -29.6620    5.2700   26.3800 C.2   183  ARG183      0.2260
     98  O        -29.1900    6.0770   25.5920 O.2   183  ARG183     -0.2867
     99  CB       -27.8480    3.9190   27.4850 C.3   183  ARG183      0.0307
    100  CG       -27.0200    3.7180   28.7330 C.3   183  ARG183      0.0489
    101  CD       -25.7230    2.9890   28.4300 C.3   183  ARG183      0.2205
    102  NE       -25.0400    2.6300   29.6680 N.pl3 183  ARG183     -0.0865
    103  CZ       -23.8080    2.1180   29.7270 C.cat 183  ARG183      0.5346
    104  NH1      -23.1040    1.9370   28.6280 N.pl3 183  ARG183      0.1354
    105  NH2      -23.2740    1.8250   30.9010 N.pl3 183  ARG183      0.1354
    106  N        -35.1950   -8.2510   32.4940 N.3   226  MET226     -0.1245
    107  CA       -34.8470   -7.3360   33.5670 C.3   226  MET226      0.1570
    108  C        -34.4670   -5.9700   33.0270 C.2   226  MET226      0.2261
    109  O        -33.3630   -5.7800   32.5050 O.2   226  MET226     -0.2867
    110  CB       -33.7010   -7.8770   34.4120 C.3   226  MET226      0.0387
    111  CG       -33.4170   -6.9910   35.6200 C.3   226  MET226      0.0595
    112  SD       -32.2840   -7.7180   36.7980 S.3   226  MET226     -0.1393
    113  CE       -30.7390   -7.5430   35.9180 C.3   226  MET226      0.0692
    114  N        -32.9830   -2.4220   32.8870 N.3   228  ALA228     -0.1231
    115  CA       -31.7950   -1.8590   33.5300 C.3   228  ALA228      0.1694
    116  C        -31.5200   -0.4600   32.9950 C.2   228  ALA228      0.2593
    117  O        -32.1400   -0.0450   32.0190 O.2   228  ALA228     -0.2718
    118  CB       -30.5920   -2.7500   33.2680 C.3   228  ALA228      0.0304
    119  N        -30.5950    0.2480   33.6480 N.am  229  SER229     -0.1938
    120  CA       -30.1650    1.6000   33.2460 C.3   229  SER229      0.2055
    121  C        -31.3160    2.5910   33.3860 C.2   229  SER229      0.2643
    122  O        -32.1160    2.7300   32.4800 O.2   229  SER229     -0.2714
    123  CB       -29.6440    1.5840   31.8120 C.3   229  SER229      0.2130
    124  OG       -29.1460    2.8420   31.4140 O.3   229  SER229     -0.2179
    125  N        -31.4490    3.2250   34.5380 N.am  230  PHE230     -0.1959
    126  CA       -32.5320    4.1830   34.7490 C.3   230  PHE230      0.1771
    127  C        -32.0110    5.5640   35.0450 C.2   230  PHE230      0.2619
    128  O        -30.9190    5.7230   35.5950 O.2   230  PHE230     -0.2715
    129  CB       -33.4920    3.7000   35.8360 C.3   230  PHE230      0.0574
    130  CG       -34.2790    2.4970   35.4260 C.ar  230  PHE230     -0.0200
    131  CD1      -35.4080    2.6390   34.6180 C.ar  230  PHE230     -0.0042
    132  CD2      -33.8670    1.2310   35.7750 C.ar  230  PHE230     -0.0042
    133  CE1      -36.1180    1.5330   34.1930 C.ar  230  PHE230     -0.0003
    134  CE2      -34.5780    0.1140   35.3640 C.ar  230  PHE230     -0.0003
    135  CZ       -35.7020    0.2600   34.5690 C.ar  230  PHE230     -0.0000
    136  N        -32.7830    6.5620   34.6340 N.am  231  ARG231     -0.1977
    137  CA       -32.4340    7.9570   34.8480 C.3   231  ARG231      0.1597
    138  C        -33.4190    8.6800   35.7810 C.2   231  ARG231      0.2287
    139  O        -33.1160    9.7580   36.2520 O.2   231  ARG231     -0.2864
    140  CB       -32.3820    8.6920   33.5000 C.3   231  ARG231      0.0334
    141  CG       -31.4100    8.0970   32.4820 C.3   231  ARG231      0.0492
    142  CD       -29.9580    8.3180   32.8940 C.3   231  ARG231      0.2205
    143  NE       -29.0300    7.6170   32.0090 N.pl3 231  ARG231     -0.0865
    144  CZ       -28.4310    6.4570   32.2870 C.cat 231  ARG231      0.5346
    145  NH1      -28.6220    5.8360   33.4480 N.pl3 231  ARG231      0.1354
    146  NH2      -27.6100    5.9220   31.4010 N.pl3 231  ARG231      0.1354
    147  N        -33.5680   -3.7220   37.6570 N.3   246  THR246     -0.1218
    148  CA       -32.3890   -3.4020   38.4670 C.3   246  THR246      0.1862
    149  C        -32.2710   -1.8820   38.5550 C.2   246  THR246      0.2287
    150  O        -32.2100   -1.1900   37.5450 O.2   246  THR246     -0.2866
    151  CB       -31.0850   -4.0710   37.9930 C.3   246  THR246      0.1770
    152  OG1      -30.0730   -3.7960   38.9680 O.3   246  THR246     -0.2211
    153  CG2      -30.6350   -3.5750   36.6100 C.3   246  THR246      0.0375
    154  N        -16.8210    0.5160   29.2210 N.3   305  PHE305     -0.1241
    155  CA       -16.5210   -0.4740   30.2600 C.3   305  PHE305      0.1605
    156  C        -15.0380   -0.8630   30.1830 C.2   305  PHE305      0.2264
    157  O        -14.3970   -1.1080   31.2050 O.2   305  PHE305     -0.2867
    158  CB       -17.4040   -1.7200   30.1420 C.3   305  PHE305      0.0534
    159  CG       -18.8360   -1.5320   30.6290 C.ar  305  PHE305     -0.0203
    160  CD1      -19.1330   -0.7240   31.7230 C.ar  305  PHE305     -0.0042
    161  CD2      -19.8570   -2.2960   30.0850 C.ar  305  PHE305     -0.0042
    162  CE1      -20.4280   -0.6180   32.2010 C.ar  305  PHE305     -0.0003
    163  CE2      -21.1570   -2.1960   30.5600 C.ar  305  PHE305     -0.0003
    164  CZ       -21.4400   -1.3560   31.6220 C.ar  305  PHE305     -0.0000
@<TRIPOS>BOND
     1    98    97    2
     2    97    96    1
     3    74    73    2
     4    87    86    2
     5    99    96    1
     6    99   100    1
     7    73    72    1
     8    96    95    1
     9    84    85    1
    10    88    85    1
    11    88    89    1
    12   101   100    1
    13   101   102    1
    14    86    85    1
    15   104   103    1
    16    71    72    1
    17    72    75    1
    18    89    90   ar
    19    89    91   ar
    20    90    92   ar
    21    81    80    2
    22   154   155    1
    23    91    93   ar
    24    80    79    1
    25   102   103    2
    26   103   105    1
    27    77    75    1
    28    92    94   ar
    29    78    79    1
    30    93    94   ar
    31   161   163   ar
    32   161   159   ar
    33    75    76    1
    34   158   155    1
    35   158   159    1
    36   156   155    1
    37   156   157    2
    38    53    51   ar
    39   163   164   ar
    40   159   160   ar
    41    79    82    1
    42    65    66    2
    43    65    64    1
    44   146   144    1
    45   124   123    1
    46    82    83    1
    47    56    57    2
    48    56    55    1
    49   164   162   ar
    50    51    50    1
    51    51    52   ar
    52   160   162   ar
    53   123   120    1
    54   143   144    2
    55   143   142    1
    56   117   116    2
    57    64    63    1
    58    64    67    1
    59   144   145    1
    60    50    49    1
    61    69    68    2
    62   122   121    2
    63   141   142    1
    64   141   140    1
    65   106   107    1
    66   109   108    2
    67    55    58    1
    68    55    54    1
    69   114   115    1
    70   116   115    1
    71   116   119   am
    72   108   107    1
    73    59    58    1
    74    59    60    1
    75   120   121    1
    76   120   119    1
    77   118   115    1
    78   121   125   am
    79    68    67    1
    80    68    70   am
    81   140   137    1
    82   107   110    1
    83    49    46    1
    84    47    46    1
    85    47    48    2
    86    36    35    1
    87    60    61    1
    88   133   135   ar
    89   133   131   ar
    90    46    45    1
    91   110   111    1
    92    61    62    1
    93   125   126    1
    94   135   134   ar
    95   131   130   ar
    96   136   137    1
    97   136   127   am
    98   126   127    1
    99   126   129    1
   100   137   138    1
   101    30    28   am
   102   127   128    2
   103    27    28    1
   104    27    24    1
   105    35    32    1
   106    28    29    2
   107   134   132   ar
   108   130   132   ar
   109   130   129    1
   110    31    32    1
   111   111   112    1
   112   138   139    2
   113   113   112    1
   114    32    33    1
   115    24    25    1
   116    24    23    1
   117    25    26    2
   118   153   151    1
   119    19    18    2
   120     8     6   ar
   121    23    18   am
   122    33    37   am
   123    33    34    2
   124   150   149    2
   125   147   148    1
   126    18    17    1
   127    37    38    1
   128    15    13    1
   129   151   148    1
   130   151   152    1
   131     7     6   ar
   132     6     5    1
   133    13    14    1
   134    13    10    1
   135   148   149    1
   136    43    42    1
   137    42    41    1
   138    42    44    1
   139    17    16    1
   140    17    20    1
   141    16    11   am
   142    38    41    1
   143    38    39    1
   144    21    20    1
   145     5     2    1
   146    10    11    1
   147    10     9    1
   148    11    12    2
   149    20    22    1
   150    39    40    2
   151     2     3    1
   152     2     1    1
   153     3     4    2
