@<TRIPOS>MOLECULE
tmp/3tkaA00.pdb
 212 206 0 0 0
SMALL
GASTEIGER

@<TRIPOS>ATOM
      1  N         40.1050    9.0780    5.1460 N.3     5  LEU5       -0.1245
      2  CA        39.1940    8.7440    4.0580 C.3     5  LEU5        0.1561
      3  C         39.1080    7.2570    3.7060 C.2     5  LEU5        0.2260
      4  O         38.0360    6.6610    3.7800 O.2     5  LEU5       -0.2867
      5  CB        39.5660    9.5450    2.8080 C.3     5  LEU5        0.0270
      6  CG        38.5630    9.5220    1.6540 C.3     5  LEU5        0.0019
      7  CD1       37.4220   10.4890    1.9210 C.3     5  LEU5        0.0001
      8  CD2       39.2560    9.8540    0.3440 C.3     5  LEU5        0.0001
      9  N         25.5270    7.9640    5.9080 N.3    22  ASP22      -0.1225
     10  CA        26.5780    8.9510    6.1410 C.3    22  ASP22       0.1805
     11  C         25.9210   10.0250    6.9850 C.2    22  ASP22       0.2598
     12  O         25.1180   10.8080    6.4730 O.2    22  ASP22      -0.2718
     13  CB        27.0790    9.5350    4.8120 C.3    22  ASP22       0.1424
     14  CG        28.1730   10.6080    4.9880 C.2    22  ASP22       0.3668
     15  OD1       28.4990   10.9920    6.1360 O.co2  22  ASP22      -0.2456
     16  OD2       28.7020   11.0790    3.9480 O.co2  22  ASP22      -0.2456
     17  N         26.2360   10.0430    8.2790 N.am   23  GLY23      -0.1942
     18  CA        25.5720   10.9280    9.2210 C.3    23  GLY23       0.2014
     19  C         26.1150   12.3490    9.2530 C.2    23  GLY23       0.2640
     20  O         25.5620   13.2140    9.9640 O.2    23  GLY23      -0.2714
     21  N         27.1660   12.5930    8.4650 N.am   24  THR24      -0.1936
     22  CA        27.8870   13.8560    8.4700 C.3    24  THR24       0.2028
     23  C         28.3170   14.2070    7.0280 C.2    24  THR24       0.2642
     24  O         29.5190   14.2570    6.7060 O.2    24  THR24      -0.2714
     25  CB        29.1420   13.7580    9.3850 C.3    24  THR24       0.1808
     26  OG1       29.8970   12.5870    9.0290 O.3    24  THR24      -0.2208
     27  CG2       28.7630   13.6410   10.8560 C.3    24  THR24       0.0379
     28  N         27.3230   14.4460    6.1720 N.am   25  PHE25      -0.1959
     29  CA        27.5560   14.6250    4.7490 C.3    25  PHE25       0.1771
     30  C         28.6870   15.6200    4.4200 C.2    25  PHE25       0.2620
     31  O         29.5620   15.3350    3.5870 O.2    25  PHE25      -0.2715
     32  CB        26.2630   15.0630    4.0460 C.3    25  PHE25       0.0574
     33  CG        26.4400   15.2910    2.5700 C.ar   25  PHE25      -0.0200
     34  CD1       26.3940   14.2230    1.6790 C.ar   25  PHE25      -0.0042
     35  CD2       26.6880   16.5640    2.0770 C.ar   25  PHE25      -0.0042
     36  CE1       26.5740   14.4240    0.3240 C.ar   25  PHE25      -0.0003
     37  CE2       26.8570   16.7690    0.7190 C.ar   25  PHE25      -0.0003
     38  CZ        26.8080   15.6960   -0.1610 C.ar   25  PHE25      -0.0000
     39  N         28.6520   16.7880    5.0620 N.am   26  GLY26      -0.1940
     40  CA        29.6630   17.8080    4.8290 C.3    26  GLY26       0.2014
     41  C         29.6900   18.2990    3.3900 C.2    26  GLY26       0.2639
     42  O         28.7640   18.9980    2.9620 O.2    26  GLY26      -0.2714
     43  N         30.7390   17.9430    2.6480 N.am   27  ARG27      -0.1963
     44  CA        30.8310   18.3110    1.2360 C.3    27  ARG27       0.1729
     45  C         30.7350   17.0860    0.3000 C.2    27  ARG27       0.2617
     46  O         30.9830   17.1740   -0.9050 O.2    27  ARG27      -0.2715
     47  CB        32.0840   19.1730    0.9770 C.3    27  ARG27       0.0348
     48  CG        31.9240   20.6120    1.5070 C.3    27  ARG27       0.0492
     49  CD        30.5660   21.1620    1.0310 C.3    27  ARG27       0.2205
     50  NE        30.2590   22.5410    1.4040 N.pl3  27  ARG27      -0.0865
     51  CZ        29.7510   22.9180    2.5840 C.cat  27  ARG27       0.5346
     52  NH1       29.5100   22.0320    3.5680 N.pl3  27  ARG27       0.1354
     53  NH2       29.4890   24.2040    2.7920 N.pl3  27  ARG27       0.1354
     54  N         30.3570   15.9500    0.8870 N.am   28  GLY28      -0.1940
     55  CA        30.0520   14.7390    0.1530 C.3    28  GLY28       0.2014
     56  C         31.2230   13.8240   -0.1430 C.2    28  GLY28       0.2639
     57  O         31.0850   12.8870   -0.9270 O.2    28  GLY28      -0.2714
     58  N         32.3790   14.0870    0.4580 N.am   29  GLY29      -0.1939
     59  CA        33.5550   13.2690    0.1920 C.3    29  GLY29       0.2014
     60  C         33.3150   11.7910    0.4550 C.2    29  GLY29       0.2638
     61  O         33.3800   10.9370   -0.4540 O.2    29  GLY29      -0.2714
     62  N         33.0130   11.4880    1.7130 N.am   30  HIS30      -0.1973
     63  CA        32.6810   10.1210    2.0790 C.3    30  HIS30       0.1656
     64  C         31.4770    9.6160    1.2940 C.2    30  HIS30       0.2291
     65  O         31.5110    8.5040    0.7980 O.2    30  HIS30      -0.2864
     66  CB        32.4950    9.9500    3.5940 C.3    30  HIS30       0.0771
     67  CG        33.7690   10.0830    4.3660 C.ar   30  HIS30       0.0820
     68  ND1       33.9560   11.0430    5.3370 N.ar   30  HIS30      -0.2267
     69  CD2       34.9290    9.3910    4.2990 C.ar   30  HIS30       0.1154
     70  CE1       35.1720   10.9290    5.8440 C.ar   30  HIS30       0.1986
     71  NE2       35.7820    9.9330    5.2320 N.ar   30  HIS30      -0.2212
     72  N         22.9160   12.5370    6.2740 N.3    47  ILE47      -0.1231
     73  CA        22.4090   13.5390    7.2020 C.3    47  ILE47       0.1692
     74  C         23.4010   14.6950    7.3630 C.2    47  ILE47       0.2592
     75  O         24.6290   14.5090    7.2980 O.2    47  ILE47      -0.2718
     76  CB        22.1430   12.9390    8.6060 C.3    47  ILE47       0.0266
     77  CG1       21.3250   11.6490    8.5060 C.3    47  ILE47       0.0019
     78  CG2       21.4350   13.9540    9.5010 C.3    47  ILE47       0.0020
     79  CD1       21.4280   10.8010    9.7670 C.3    47  ILE47       0.0001
     80  N         22.8580   15.8900    7.5640 N.am   48  ASP48      -0.1960
     81  CA        23.6580   17.0160    8.0320 C.3    48  ASP48       0.1840
     82  C         22.7270   18.1100    8.5620 C.2    48  ASP48       0.2622
     83  O         21.6420   18.3550    8.0060 O.2    48  ASP48      -0.2715
     84  CB        24.6170   17.5420    6.9430 C.3    48  ASP48       0.1450
     85  CG        25.8100   18.3180    7.5300 C.2    48  ASP48       0.3671
     86  OD1       25.5920   19.3020    8.2840 O.co2  48  ASP48      -0.2456
     87  OD2       26.9700   17.9290    7.2550 O.co2  48  ASP48      -0.2456
     88  N         23.1470   18.7490    9.6510 N.am   49  ARG49      -0.1963
     89  CA        22.3320   19.7800   10.2700 C.3    49  ARG49       0.1729
     90  C         22.6140   21.1480    9.6340 C.2    49  ARG49       0.2616
     91  O         21.8990   22.1120    9.8890 O.2    49  ARG49      -0.2715
     92  CB        22.5340   19.8010   11.7990 C.3    49  ARG49       0.0348
     93  CG        23.9000   20.3470   12.2720 C.3    49  ARG49       0.0492
     94  CD        24.1630   19.9580   13.7250 C.3    49  ARG49       0.2205
     95  NE        23.2810   20.6440   14.6760 N.pl3  49  ARG49      -0.0865
     96  CZ        23.4690   20.6500   15.9960 C.cat  49  ARG49       0.5346
     97  NH1       24.5030   20.0170   16.5220 N.pl3  49  ARG49       0.1354
     98  NH2       22.6350   21.2980   16.7960 N.pl3  49  ARG49       0.1354
     99  N         23.6470   21.2190    8.8000 N.am   50  ASP50      -0.1971
    100  CA        24.0330   22.4680    8.1290 C.3    50  ASP50       0.1709
    101  C         23.3840   22.6250    6.7620 C.2    50  ASP50       0.2293
    102  O         23.6420   21.8370    5.8580 O.2    50  ASP50      -0.2864
    103  CB        25.5510   22.5280    7.9830 C.3    50  ASP50       0.1436
    104  CG        26.0540   23.8590    7.4130 C.2    50  ASP50       0.3671
    105  OD1       25.2710   24.6690    6.8780 O.co2  50  ASP50      -0.2456
    106  OD2       27.2820   24.0710    7.4720 O.co2  50  ASP50      -0.2456
    107  N         25.5060   22.3060    3.6890 N.3    53  ALA53      -0.1245
    108  CA        25.7850   20.9170    3.3800 C.3    53  ALA53       0.1562
    109  C         24.6080   20.3090    2.5950 C.2    53  ALA53       0.2260
    110  O         24.8060   19.6220    1.5930 O.2    53  ALA53      -0.2867
    111  CB        26.1060   20.1330    4.6680 C.3    53  ALA53       0.0290
    112  N         18.8630   17.6880    9.6670 N.3    70  GLY70      -0.1210
    113  CA        18.5870   17.5780   11.0800 C.3    70  GLY70       0.1940
    114  C         19.8230   17.0680   11.8100 C.2    70  GLY70       0.2454
    115  O         20.8290   16.7250   11.1840 O.2    70  GLY70      -0.2732
    116  N         19.7590   17.0430   13.1480 N.am   71  PRO71      -0.2717
    117  CA        20.8690   16.5390   13.9690 C.3    71  PRO71       0.1535
    118  C         20.9980   15.0170   13.8070 C.2    71  PRO71       0.2598
    119  O         19.9770   14.3350   13.6140 O.2    71  PRO71      -0.2715
    120  CB        20.4290   16.9110   15.3880 C.3    71  PRO71       0.0310
    121  CG        18.8880   16.9190   15.3120 C.3    71  PRO71       0.0237
    122  CD        18.5930   17.4700   13.9570 C.3    71  PRO71       0.0939
    123  N         22.2100   14.4720   13.8470 N.am   72  PHE72      -0.1974
    124  CA        22.3120   13.0180   13.7290 C.3    72  PHE72       0.1639
    125  C         21.8270   12.2580   14.9970 C.2    72  PHE72       0.2290
    126  O         21.5710   11.0460   14.9460 O.2    72  PHE72      -0.2864
    127  CB        23.6600   12.5200   13.1580 C.3    72  PHE72       0.0560
    128  CG        24.8830   12.9140   13.9530 C.ar   72  PHE72      -0.0200
    129  CD1       24.9200   12.7620   15.3500 C.ar   72  PHE72      -0.0042
    130  CD2       26.0140   13.3810   13.2990 C.ar   72  PHE72      -0.0042
    131  CE1       26.0690   13.0830   16.0750 C.ar   72  PHE72      -0.0003
    132  CE2       27.1640   13.7240   14.0130 C.ar   72  PHE72      -0.0003
    133  CZ        27.2000   13.5660   15.4070 C.ar   72  PHE72      -0.0000
    134  N         31.6850   11.3290   10.5610 N.3    94  ASP94      -0.1225
    135  CA        32.9440   12.0470   10.4560 C.3    94  ASP94       0.1805
    136  C         32.7490   13.3490   11.2350 C.2    94  ASP94       0.2598
    137  O         32.2450   14.3440   10.6960 O.2    94  ASP94      -0.2718
    138  CB        33.2780   12.2870    8.9790 C.3    94  ASP94       0.1424
    139  CG        34.5400   13.1070    8.7780 C.2    94  ASP94       0.3668
    140  OD1       35.3460   13.2410    9.7170 O.co2  94  ASP94      -0.2456
    141  OD2       34.7350   13.6070    7.6560 O.co2  94  ASP94      -0.2456
    142  N         33.1420   13.3180   12.5070 N.am   95  LEU95      -0.1966
    143  CA        32.6990   14.2950   13.5090 C.3    95  LEU95       0.1728
    144  C         33.3710   15.6690   13.4780 C.2    95  LEU95       0.2617
    145  O         34.5500   15.7950   13.1610 O.2    95  LEU95      -0.2715
    146  CB        32.8660   13.7180   14.9200 C.3    95  LEU95       0.0311
    147  CG        32.1140   12.4180   15.2270 C.3    95  LEU95       0.0022
    148  CD1       32.5190   11.8800   16.6070 C.3    95  LEU95       0.0001
    149  CD2       30.6170   12.6230   15.1430 C.3    95  LEU95       0.0001
    150  N         32.6170   16.6900   13.8670 N.am   96  GLY96      -0.1940
    151  CA        33.1800   18.0150   13.9810 C.3    96  GLY96       0.2014
    152  C         32.7090   18.9740   12.9050 C.2    96  GLY96       0.2639
    153  O         31.6630   18.7740   12.2940 O.2    96  GLY96      -0.2714
    154  N         33.4960   20.0150   12.6750 N.am   97  VAL97      -0.1963
    155  CA        33.1110   21.0570   11.7530 C.3    97  VAL97       0.1727
    156  C         33.5290   20.6990   10.3350 C.2    97  VAL97       0.2616
    157  O         34.4050   19.8540   10.1190 O.2    97  VAL97      -0.2715
    158  CB        33.7200   22.4360   12.1610 C.3    97  VAL97       0.0290
    159  CG1       33.2110   22.8520   13.5370 C.3    97  VAL97       0.0023
    160  CG2       35.2380   22.3750   12.1560 C.3    97  VAL97       0.0023
    161  N         32.8750   21.3240    9.3660 N.am   98  SER98      -0.1950
    162  CA        33.3000   21.2110    7.9920 C.3    98  SER98       0.1924
    163  C         34.3100   22.3210    7.6990 C.2    98  SER98       0.2314
    164  O         34.3700   23.3380    8.4080 O.2    98  SER98      -0.2863
    165  CB        32.0940   21.3440    7.0670 C.3    98  SER98       0.2116
    166  OG        31.5150   22.6250    7.1840 O.3    98  SER98      -0.2180
    167  N         32.5590   25.6900    7.1940 N.3   101  GLN101     -0.1245
    168  CA        32.2130   26.3280    8.4630 C.3   101  GLN101      0.1566
    169  C         33.4180   27.0640    9.0520 C.2   101  GLN101      0.2260
    170  O         33.2810   28.1600    9.6020 O.2   101  GLN101     -0.2867
    171  CB        31.6670   25.3110    9.4790 C.3   101  GLN101      0.0367
    172  CG        30.2610   24.8120    9.1710 C.3   101  GLN101      0.0905
    173  CD        29.9110   23.5360    9.9250 C.2   101  GLN101      0.2608
    174  OE1       30.7740   22.9110   10.5520 O.2   101  GLN101     -0.2717
    175  NE2       28.6490   23.1330    9.8500 N.am  101  GLN101     -0.0878
    176  N         26.3920   25.1550   13.6750 N.3   121  MET121     -0.1245
    177  CA        26.4330   24.3000   12.4930 C.3   121  MET121      0.1570
    178  C         25.1170   24.4320   11.7430 C.2   121  MET121      0.2261
    179  O         25.0730   24.3370   10.5100 O.2   121  MET121     -0.2867
    180  CB        26.6840   22.8520   12.8810 C.3   121  MET121      0.0387
    181  CG        28.1130   22.5820   13.3470 C.3   121  MET121      0.0595
    182  SD        28.3050   20.8550   13.8470 S.3   121  MET121     -0.1393
    183  CE        29.9670   20.8290   14.5330 C.3   121  MET121      0.0692
    184  N         27.6410   19.1590   20.8470 N.3   204  GLU204     -0.1245
    185  CA        28.3490   18.1410   20.0480 C.3   204  GLU204      0.1567
    186  C         28.5520   16.7780   20.7320 C.2   204  GLU204      0.2260
    187  O         28.3730   15.6940   20.1080 O.2   204  GLU204     -0.2867
    188  CB        29.6790   18.7060   19.5580 C.3   204  GLU204      0.0388
    189  CG        29.5090   19.9540   18.7250 C.3   204  GLU204      0.1160
    190  CD        30.8310   20.5670   18.2730 C.2   204  GLU204      0.3649
    191  OE1       31.8260   19.8240   18.1240 O.co2 204  GLU204     -0.2457
    192  OE2       30.8610   21.7980   18.0590 O.co2 204  GLU204     -0.2457
    193  N         25.2110   14.9800   21.2970 N.3   207  GLU207     -0.1245
    194  CA        24.7880   14.5460   19.9600 C.3   207  GLU207      0.1567
    195  C         25.4290   13.2040   19.6490 C.2   207  GLU207      0.2260
    196  O         24.7520   12.2260   19.3060 O.2   207  GLU207     -0.2867
    197  CB        25.1600   15.5690   18.8820 C.3   207  GLU207      0.0388
    198  CG        24.1120   16.6510   18.6440 C.3   207  GLU207      0.1160
    199  CD        22.8470   16.1140   17.9870 C.2   207  GLU207      0.3649
    200  OE1       22.9530   15.4130   16.9510 O.co2 207  GLU207     -0.2457
    201  OE2       21.7440   16.3870   18.5220 O.co2 207  GLU207     -0.2457
    202  N         37.4420   13.9260   15.9140 N.3   230  PHE230     -0.1241
    203  CA        38.4140   14.9670   15.5990 C.3   230  PHE230      0.1605
    204  C         39.3790   15.2010   16.7670 C.2   230  PHE230      0.2264
    205  O         40.5520   15.4720   16.5530 O.2   230  PHE230     -0.2867
    206  CB        37.7180   16.2770   15.1660 C.3   230  PHE230      0.0534
    207  CG        38.6820   17.3610   14.7160 C.ar  230  PHE230     -0.0203
    208  CD1       39.1250   17.4140   13.3940 C.ar  230  PHE230     -0.0042
    209  CD2       39.1670   18.3080   15.6250 C.ar  230  PHE230     -0.0042
    210  CE1       40.0230   18.4060   12.9790 C.ar  230  PHE230     -0.0003
    211  CE2       40.0690   19.3030   15.2240 C.ar  230  PHE230     -0.0003
    212  CZ        40.4980   19.3530   13.9040 C.ar  230  PHE230     -0.0000
@<TRIPOS>BOND
     1    57    56    2
     2    46    45    2
     3    61    60    2
     4    38    36   ar
     5    38    37   ar
     6    56    55    1
     7    56    58   am
     8    55    54    1
     9    59    60    1
    10    59    58    1
    11    45    54   am
    12    45    44    1
    13    36    34   ar
    14     8     6    1
    15    60    62   am
    16    37    35   ar
    17    65    64    2
    18    47    44    1
    19    47    48    1
    20    49    50    1
    21    49    48    1
    22    44    43    1
    23    64    63    1
    24    50    51    2
    25   110   109    2
    26     6     7    1
    27     6     5    1
    28    34    33   ar
    29    62    63    1
    30    35    33   ar
    31    63    66    1
    32    33    32    1
    33    51    53    1
    34    51    52    1
    35   109   108    1
    36    43    41   am
    37     5     2    1
    38    42    41    2
    39   108   107    1
    40   108   111    1
    41    41    40    1
    42    31    30    2
    43    66    67    1
    44     3     4    2
    45     3     2    1
    46    16    14   ar
    47    32    29    1
    48     2     1    1
    49    69    67   ar
    50    69    71   ar
    51    67    68   ar
    52    30    29    1
    53    30    39   am
    54    29    28    1
    55    13    14    1
    56    13    10    1
    57    40    39    1
    58    14    15   ar
    59    71    70   ar
    60    68    70   ar
    61   102   101    2
    62     9    10    1
    63    10    11    1
    64    28    23   am
    65    72    73    1
    66    12    11    2
    67    24    23    2
    68   101   100    1
    69   105   104   ar
    70    84    85    1
    71    84    81    1
    72    11    17   am
    73    23    22    1
    74   165   166    1
    75   165   162    1
    76   167   168    1
    77    73    74    1
    78    73    76    1
    79    87    85   ar
    80    75    74    2
    81    74    80   am
    82   104   106   ar
    83   104   103    1
    84    85    86   ar
    85    80    81    1
    86   141   139   ar
    87   163   162    1
    88   163   164    2
    89   103   100    1
    90   162   161    1
    91    83    82    2
    92    81    82    1
    93   100    99    1
    94    17    18    1
    95   168   169    1
    96   168   171    1
    97    21    22    1
    98    21    19   am
    99    22    25    1
   100    77    76    1
   101    77    79    1
   102    82    88   am
   103    76    78    1
   104   139   138    1
   105   139   140   ar
   106    99    90   am
   107   138   135    1
   108    26    25    1
   109   169   170    2
   110   172   171    1
   111   172   173    1
   112    18    19    1
   113    19    20    2
   114   161   156   am
   115    25    27    1
   116    90    91    2
   117    90    89    1
   118    88    89    1
   119   112   113    1
   120   175   173   am
   121   173   174    2
   122   157   156    2
   123    89    92    1
   124   156   155    1
   125   135   134    1
   126   135   136    1
   127   179   178    2
   128   137   136    2
   129   113   114    1
   130   115   114    2
   131   136   142   am
   132   178   177    1
   133   155   158    1
   134   155   154    1
   135    92    93    1
   136   114   116   am
   137   160   158    1
   138   158   159    1
   139    93    94    1
   140   153   152    2
   141   177   180    1
   142   177   176    1
   143   142   143    1
   144   154   152   am
   145   180   181    1
   146   152   151    1
   147   210   208   ar
   148   210   212   ar
   149   116   122    1
   150   116   117    1
   151   127   124    1
   152   127   128    1
   153   145   144    2
   154   130   128   ar
   155   130   132   ar
   156   181   182    1
   157   208   207   ar
   158   144   143    1
   159   144   150   am
   160   143   146    1
   161   119   118    2
   162    94    95    1
   163   124   123    1
   164   124   125    1
   165   118   123   am
   166   118   117    1
   167   182   183    1
   168   150   151    1
   169   212   211   ar
   170   128   129   ar
   171   122   121    1
   172   117   120    1
   173   132   133   ar
   174    95    96    2
   175   207   206    1
   176   207   209   ar
   177   146   147    1
   178   126   125    2
   179   149   147    1
   180   206   203    1
   181   211   209   ar
   182   147   148    1
   183   121   120    1
   184   129   131   ar
   185   133   131   ar
   186   203   202    1
   187   203   204    1
   188    96    97    1
   189    96    98    1
   190   205   204    2
   191   200   199   ar
   192   199   201   ar
   193   199   198    1
   194   192   190   ar
   195   191   190   ar
   196   190   189    1
   197   198   197    1
   198   189   188    1
   199   197   194    1
   200   196   195    2
   201   188   185    1
   202   195   194    1
   203   194   193    1
   204   185   186    1
   205   185   184    1
   206   187   186    2
