@<TRIPOS>MOLECULE
tmp/3tkcA00.pdb
 162 155 0 0 0
SMALL
GASTEIGER

@<TRIPOS>ATOM
      1  N         15.7150    9.2210   38.5340 N.3    25  TYR25      -0.1241
      2  CA        16.3060   10.2620   37.6950 C.3    25  TYR25       0.1605
      3  C         17.1930    9.6050   36.6320 C.2    25  TYR25       0.2264
      4  O         18.2780    9.1300   36.9350 O.2    25  TYR25      -0.2867
      5  CB        17.1150   11.2750   38.5360 C.3    25  TYR25       0.0534
      6  CG        17.5610   12.4990   37.7500 C.ar   25  TYR25      -0.0201
      7  CD1       18.6740   12.4470   36.9180 C.ar   25  TYR25      -0.0009
      8  CD2       16.8650   13.7080   37.8390 C.ar   25  TYR25      -0.0009
      9  CE1       19.0820   13.5640   36.1890 C.ar   25  TYR25       0.0417
     10  CE2       17.2640   14.8310   37.1130 C.ar   25  TYR25       0.0417
     11  CZ        18.3720   14.7500   36.2910 C.ar   25  TYR25       0.1957
     12  OH        18.7620   15.8530   35.5610 O.3    25  TYR25      -0.2866
     13  N         17.9760   11.0020   29.9590 N.3    29  TYR29      -0.1241
     14  CA        16.7760   11.7090   29.4840 C.3    29  TYR29       0.1605
     15  C         16.1020   10.9680   28.3260 C.2    29  TYR29       0.2264
     16  O         15.4940   11.5730   27.4420 O.2    29  TYR29      -0.2867
     17  CB        17.1350   13.1660   29.1260 C.3    29  TYR29       0.0534
     18  CG        17.9730   13.7840   30.2230 C.ar   29  TYR29      -0.0201
     19  CD1       19.3210   14.0840   30.0300 C.ar   29  TYR29      -0.0009
     20  CD2       17.4300   13.9820   31.4880 C.ar   29  TYR29      -0.0009
     21  CE1       20.0960   14.6120   31.0770 C.ar   29  TYR29       0.0417
     22  CE2       18.1820   14.5090   32.5230 C.ar   29  TYR29       0.0417
     23  CZ        19.5080   14.8170   32.3180 C.ar   29  TYR29       0.1957
     24  OH        20.2350   15.3230   33.3810 O.3    29  TYR29      -0.2866
     25  N         12.3490   11.4480   27.0660 N.3    32  PHE32      -0.1241
     26  CA        11.8780   12.7850   26.6810 C.3    32  PHE32       0.1605
     27  C         11.2630   12.8320   25.2720 C.2    32  PHE32       0.2264
     28  O         10.4340   13.6980   24.9760 O.2    32  PHE32      -0.2867
     29  CB        13.0030   13.8280   26.8140 C.3    32  PHE32       0.0534
     30  CG        13.3540   14.2010   28.2440 C.ar   32  PHE32      -0.0203
     31  CD1       13.1100   13.3350   29.3050 C.ar   32  PHE32      -0.0042
     32  CD2       13.9560   15.4200   28.5160 C.ar   32  PHE32      -0.0042
     33  CE1       13.4520   13.6830   30.6140 C.ar   32  PHE32      -0.0003
     34  CE2       14.3000   15.7750   29.8160 C.ar   32  PHE32      -0.0003
     35  CZ        14.0500   14.8990   30.8690 C.ar   32  PHE32      -0.0000
     36  N          7.0880   21.3040   27.8020 N.3    61  LEU61      -0.1245
     37  CA         7.5870   21.5610   29.1580 C.3    61  LEU61       0.1561
     38  C          6.5940   21.1150   30.2460 C.2    61  LEU61       0.2260
     39  O          7.0030   20.6810   31.3240 O.2    61  LEU61      -0.2867
     40  CB         8.0110   23.0300   29.3310 C.3    61  LEU61       0.0270
     41  CG         9.2170   23.4320   28.4670 C.3    61  LEU61       0.0019
     42  CD1        9.6020   24.8720   28.7190 C.3    61  LEU61       0.0001
     43  CD2       10.4010   22.5050   28.7390 C.3    61  LEU61       0.0001
     44  N          7.1810   17.4510   30.4950 N.3    64  LEU64      -0.1231
     45  CA         8.4270   17.2580   31.2460 C.3    64  LEU64       0.1693
     46  C          8.1880   17.4460   32.7450 C.2    64  LEU64       0.2591
     47  O          8.6260   16.6410   33.5620 O.2    64  LEU64      -0.2718
     48  CB         9.4980   18.2380   30.7500 C.3    64  LEU64       0.0284
     49  CG        10.7600   18.3870   31.6070 C.3    64  LEU64       0.0019
     50  CD1       11.4830   17.0540   31.7310 C.3    64  LEU64       0.0001
     51  CD2       11.6730   19.4630   31.0180 C.3    64  LEU64       0.0001
     52  N          7.4770   18.5100   33.1130 N.am   65  VAL65      -0.1980
     53  CA         7.2390   18.7820   34.5340 C.3    65  VAL65       0.1595
     54  C          6.3240   17.7140   35.1380 C.2    65  VAL65       0.2287
     55  O          6.5490   17.2420   36.2500 O.2    65  VAL65      -0.2864
     56  CB         6.6670   20.1950   34.7420 C.3    65  VAL65       0.0276
     57  CG1        6.0810   20.3630   36.1540 C.3    65  VAL65       0.0022
     58  CG2        7.7640   21.2440   34.4940 C.3    65  VAL65       0.0022
     59  N          5.9440   14.5550   34.1490 N.3    67  TYR67      -0.1227
     60  CA         6.7740   13.3510   34.2530 C.3    67  TYR67       0.1736
     61  C          7.6460   13.4580   35.4960 C.2    67  TYR67       0.2596
     62  O          7.7660   12.5000   36.2670 O.2    67  TYR67      -0.2718
     63  CB         7.6180   13.2480   32.9840 C.3    67  TYR67       0.0548
     64  CG         8.7940   12.2820   32.9710 C.ar   67  TYR67      -0.0200
     65  CD1        8.6660   11.0100   32.4190 C.ar   67  TYR67      -0.0009
     66  CD2       10.0380   12.6710   33.4400 C.ar   67  TYR67      -0.0009
     67  CE1        9.7660   10.1290   32.3600 C.ar   67  TYR67       0.0417
     68  CE2       11.1360   11.7980   33.3930 C.ar   67  TYR67       0.0417
     69  CZ        10.9880   10.5390   32.8420 C.ar   67  TYR67       0.1957
     70  OH        12.0770    9.6790   32.7890 O.3    67  TYR67      -0.2866
     71  N          8.2320   14.6350   35.6980 N.am   68  SER68      -0.1952
     72  CA         9.1170   14.8650   36.8370 C.3    68  SER68       0.1924
     73  C          8.3820   14.8040   38.1770 C.2    68  SER68       0.2314
     74  O          8.9180   14.2940   39.1540 O.2    68  SER68      -0.2863
     75  CB         9.8630   16.1990   36.6800 C.3    68  SER68       0.2116
     76  OG        10.6480   16.1910   35.4970 O.3    68  SER68      -0.2180
     77  N         11.5810   19.9080   41.7180 N.3   102  ILE102     -0.1231
     78  CA        11.8510   19.9670   40.2810 C.3   102  ILE102      0.1692
     79  C         12.9990   20.9380   40.0110 C.2   102  ILE102      0.2591
     80  O         13.9440   20.6280   39.2760 O.2   102  ILE102     -0.2718
     81  CB        10.5950   20.3630   39.4770 C.3   102  ILE102      0.0266
     82  CG1        9.9250   19.1110   38.9040 C.3   102  ILE102      0.0019
     83  CG2       10.9540   21.3130   38.3350 C.3   102  ILE102      0.0020
     84  CD1        9.6530   18.0460   39.9390 C.3   102  ILE102      0.0001
     85  N         12.9320   22.1140   40.6230 N.am  103  MET103     -0.1979
     86  CA        14.0080   23.0890   40.4590 C.3   103  MET103      0.1605
     87  C         15.3520   22.5420   40.9610 C.2   103  MET103      0.2287
     88  O         16.3760   22.6890   40.2850 O.2   103  MET103     -0.2864
     89  CB        13.6400   24.4140   41.1360 C.3   103  MET103      0.0413
     90  CG        12.5150   25.1360   40.4070 C.3   103  MET103      0.0598
     91  SD        11.9960   26.6220   41.2830 S.3   103  MET103     -0.1393
     92  CE        10.7830   27.2750   40.1420 C.3   103  MET103      0.0692
     93  N         16.2470   19.2240   41.3630 N.3   105  ARG105     -0.1231
     94  CA        16.7230   18.0610   40.6080 C.3   105  ARG105      0.1694
     95  C         17.1790   18.4470   39.1980 C.2   105  ARG105      0.2592
     96  O         18.0530   17.7900   38.6200 O.2   105  ARG105     -0.2718
     97  CB        15.6710   16.9380   40.5750 C.3   105  ARG105      0.0321
     98  CG        14.5440   17.1470   39.5670 C.3   105  ARG105      0.0489
     99  CD        13.3010   16.3310   39.9400 C.3   105  ARG105      0.2205
    100  NE        13.5770   14.9010   40.1100 N.pl3 105  ARG105     -0.0865
    101  CZ        13.4890   13.9890   39.1410 C.cat 105  ARG105      0.5346
    102  NH1       13.1430   14.3530   37.9080 N.pl3 105  ARG105      0.1354
    103  NH2       13.7520   12.7080   39.4030 N.pl3 105  ARG105      0.1354
    104  N         16.6090   19.5260   38.6590 N.am  106  SER106     -0.1952
    105  CA        17.0070   20.0190   37.3330 C.3   106  SER106      0.1924
    106  C         18.4490   20.5200   37.3060 C.2   106  SER106      0.2314
    107  O         19.0400   20.7010   36.2380 O.2   106  SER106     -0.2863
    108  CB        16.0720   21.1490   36.8870 C.3   106  SER106      0.2116
    109  OG        16.4340   22.3730   37.5100 O.3   106  SER106     -0.2180
    110  N         20.8750   18.5790   35.0510 N.3   109  SER109     -0.1217
    111  CA        20.9600   18.8360   33.6050 C.3   109  SER109      0.1889
    112  C         21.4330   20.2510   33.2950 C.2   109  SER109      0.2288
    113  O         21.8790   20.5330   32.1770 O.2   109  SER109     -0.2866
    114  CB        19.6170   18.5860   32.9070 C.3   109  SER109      0.2089
    115  OG        18.6230   19.4970   33.3560 O.3   109  SER109     -0.2183
    116  N         19.5630   24.1320   30.4470 N.3   117  TRP117     -0.1241
    117  CA        19.3530   22.7810   30.9320 C.3   117  TRP117      0.1605
    118  C         19.5150   21.8810   29.7100 C.2   117  TRP117      0.2264
    119  O         18.6610   21.8740   28.8130 O.2   117  TRP117     -0.2867
    120  CB        17.9500   22.6210   31.5180 C.3   117  TRP117      0.0550
    121  CG        17.6870   23.3250   32.8430 C.ar  117  TRP117      0.0003
    122  CD1       17.8170   22.7890   34.1030 C.ar  117  TRP117      0.0946
    123  CD2       17.2040   24.6630   33.0280 C.ar  117  TRP117      0.0152
    124  NE1       17.4600   23.7210   35.0560 N.ar  117  TRP117     -0.2442
    125  CE2       17.0770   24.8770   34.4230 C.ar  117  TRP117      0.0810
    126  CE3       16.8650   25.7020   32.1520 C.ar  117  TRP117      0.0012
    127  CZ2       16.6230   26.0860   34.9590 C.ar  117  TRP117      0.0191
    128  CZ3       16.4150   26.9030   32.6830 C.ar  117  TRP117      0.0001
    129  CH2       16.3010   27.0860   34.0760 C.ar  117  TRP117      0.0015
    130  N         19.5540   18.4400   27.9450 N.3   119  CYS119     -0.1235
    131  CA        19.0230   17.0940   28.1150 C.3   119  CYS119      0.1677
    132  C         19.1300   16.2880   26.8210 C.2   119  CYS119      0.2270
    133  O         18.3200   15.4010   26.5620 O.2   119  CYS119     -0.2867
    134  CB        17.5660   17.1570   28.5820 C.3   119  CYS119      0.0956
    135  SG        17.3340   18.0260   30.1700 S.3   119  CYS119     -0.0801
    136  N         17.0960   23.3220   26.8550 N.3   126  TYR126     -0.1241
    137  CA        16.1290   24.3330   27.2660 C.3   126  TYR126      0.1605
    138  C         16.8410   25.5820   27.7670 C.2   126  TYR126      0.2264
    139  O         17.6160   25.5200   28.7160 O.2   126  TYR126     -0.2867
    140  CB        15.1850   23.7750   28.3380 C.3   126  TYR126      0.0534
    141  CG        14.6600   22.3900   28.0100 C.ar  126  TYR126     -0.0201
    142  CD1       14.9760   21.2970   28.8100 C.ar  126  TYR126     -0.0009
    143  CD2       13.8780   22.1720   26.8810 C.ar  126  TYR126     -0.0009
    144  CE1       14.5050   20.0250   28.5020 C.ar  126  TYR126      0.0417
    145  CE2       13.4030   20.9040   26.5660 C.ar  126  TYR126      0.0417
    146  CZ        13.7200   19.8380   27.3840 C.ar  126  TYR126      0.1957
    147  OH        13.2620   18.5740   27.0740 O.3   126  TYR126     -0.2866
    148  N         11.6770   29.1060   28.1000 N.3   131  VAL131     -0.1245
    149  CA        10.7950   29.2490   29.2530 C.3   131  VAL131      0.1561
    150  C          9.8150   30.3980   29.0210 C.2   131  VAL131      0.2260
    151  O          8.6480   30.3210   29.4060 O.2   131  VAL131     -0.2867
    152  CB        11.5990   29.4150   30.5600 C.3   131  VAL131      0.0252
    153  CG1       10.6800   29.3420   31.7710 C.3   131  VAL131      0.0019
    154  CG2       12.6570   28.3080   30.6550 C.3   131  VAL131      0.0019
    155  N         15.6500   32.2020   38.8460 N.3   144  LEU144     -0.1245
    156  CA        15.8130   30.7530   38.6870 C.3   144  LEU144      0.1561
    157  C         17.2110   30.4290   38.1660 C.2   144  LEU144      0.2260
    158  O         17.8680   29.5010   38.6500 O.2   144  LEU144     -0.2867
    159  CB        14.7420   30.1560   37.7590 C.3   144  LEU144      0.0270
    160  CG        14.8410   28.6530   37.4440 C.3   144  LEU144      0.0019
    161  CD1       14.8870   27.8300   38.7120 C.3   144  LEU144      0.0001
    162  CD2       13.6830   28.1850   36.5580 C.3   144  LEU144      0.0001
@<TRIPOS>BOND
     1    28    27    2
     2    27    26    1
     3   133   132    2
     4   145   143   ar
     5   145   146   ar
     6    26    29    1
     7    26    25    1
     8    29    30    1
     9   132   131    1
    10   136   137    1
    11   143   141   ar
    12   147   146    1
    13   137   138    1
    14   137   140    1
    15   146   144   ar
    16    16    15    2
    17   138   139    2
    18    36    37    1
    19   130   131    1
    20   141   140    1
    21   141   142   ar
    22   148   149    1
    23   131   134    1
    24    30    32   ar
    25    30    31   ar
    26    15    14    1
    27    41    42    1
    28    41    43    1
    29    41    40    1
    30   144   142   ar
    31    32    34   ar
    32   134   135    1
    33   119   118    2
    34   150   149    1
    35   150   151    2
    36    17    14    1
    37    17    18    1
    38    37    40    1
    39    37    38    1
    40   149   152    1
    41    31    33   ar
    42    14    13    1
    43   118   117    1
    44    34    35   ar
    45    19    18   ar
    46    19    21   ar
    47    18    20   ar
    48    38    39    2
    49   116   117    1
    50    44    45    1
    51   152   154    1
    52   152   153    1
    53    33    35   ar
    54    48    45    1
    55    48    49    1
    56   117   120    1
    57    51    49    1
    58    21    23   ar
    59    45    46    1
    60    20    22   ar
    61   120   121    1
    62    49    50    1
    63   126   128   ar
    64   126   123   ar
    65   113   112    2
    66    23    22   ar
    67    23    24    1
    68    67    65   ar
    69    67    69   ar
    70    65    64   ar
    71   128   129   ar
    72    46    52   am
    73    46    47    2
    74    70    69    1
    75    69    68   ar
    76   121   123   ar
    77   121   122   ar
    78   114   115    1
    79   114   111    1
    80    64    63    1
    81    64    66   ar
    82    63    60    1
    83   123   125   ar
    84    52    53    1
    85   112   111    1
    86    68    66   ar
    87   111   110    1
    88   129   127   ar
    89   122   124   ar
    90    59    60    1
    91    60    61    1
    92   125   127   ar
    93   125   124   ar
    94    58    56    1
    95    53    56    1
    96    53    54    1
    97    56    57    1
    98    54    55    2
    99    61    71   am
   100    61    62    2
   101    76    75    1
   102    12    11    1
   103    71    72    1
   104     9    11   ar
   105     9     7   ar
   106   107   106    2
   107    11    10   ar
   108   162   160    1
   109     3     4    2
   110     3     2    1
   111    75    72    1
   112    72    73    1
   113   108   105    1
   114   108   109    1
   115     7     6   ar
   116    10     8   ar
   117   106   105    1
   118   105   104    1
   119   160   159    1
   120   160   161    1
   121     2     1    1
   122     2     5    1
   123     6     8   ar
   124     6     5    1
   125   159   156    1
   126   102   101    1
   127   157   158    2
   128   157   156    1
   129    73    74    2
   130    83    81    1
   131    96    95    2
   132   104    95   am
   133   156   155    1
   134    82    81    1
   135    82    84    1
   136   101   103    1
   137   101   100    2
   138    95    94    1
   139    80    79    2
   140    81    78    1
   141    98    99    1
   142    98    97    1
   143    99   100    1
   144    79    78    1
   145    79    85   am
   146    92    91    1
   147    78    77    1
   148    88    87    2
   149    90    89    1
   150    90    91    1
   151    86    85    1
   152    86    87    1
   153    86    89    1
   154    97    94    1
   155    94    93    1
