@<TRIPOS>MOLECULE
tmp/3tkfA01.pdb
 95 94 0 0 0
SMALL
GASTEIGER

@<TRIPOS>ATOM
      1  N         19.1220   24.6430    8.6300 N.3   175  TYR175     -0.1241
      2  CA        20.0010   25.1080    9.7030 C.3   175  TYR175      0.1605
      3  C         20.6990   23.9790   10.4470 C.2   175  TYR175      0.2264
      4  O         21.8890   24.0660   10.7500 O.2   175  TYR175     -0.2867
      5  CB        19.1960   25.9850   10.6750 C.3   175  TYR175      0.0534
      6  CG        19.9800   26.5020   11.8590 C.ar  175  TYR175     -0.0201
      7  CD1       20.7630   27.6330   11.7520 C.ar  175  TYR175     -0.0009
      8  CD2       19.9510   25.8440   13.0840 C.ar  175  TYR175     -0.0009
      9  CE1       21.4870   28.0880   12.8410 C.ar  175  TYR175      0.0417
     10  CE2       20.6680   26.3050   14.1630 C.ar  175  TYR175      0.0417
     11  CZ        21.4440   27.4100   14.0290 C.ar  175  TYR175      0.1957
     12  OH        22.1570   27.8710   15.1380 O.3   175  TYR175     -0.2866
     13  N         29.0700   13.6630    9.7270 N.3   213  TYR213     -0.1241
     14  CA        30.0210   14.7190   10.1050 C.3   213  TYR213      0.1605
     15  C         31.1280   14.8100    9.0780 C.2   213  TYR213      0.2264
     16  O         31.4300   15.9060    8.6130 O.2   213  TYR213     -0.2867
     17  CB        30.5850   14.4430   11.5130 C.3   213  TYR213      0.0534
     18  CG        31.5260   15.4800   12.0300 C.ar  213  TYR213     -0.0201
     19  CD1       31.0760   16.5230   12.7700 C.ar  213  TYR213     -0.0009
     20  CD2       32.8800   15.3660   11.8130 C.ar  213  TYR213     -0.0009
     21  CE1       31.9480   17.4810   13.2600 C.ar  213  TYR213      0.0417
     22  CE2       33.7590   16.3200   12.2910 C.ar  213  TYR213      0.0417
     23  CZ        33.2760   17.3560   13.0090 C.ar  213  TYR213      0.1957
     24  OH        34.1640   18.2970   13.5140 O.3   213  TYR213     -0.2866
     25  N         29.8590   16.3460    5.7790 N.3   216  TYR216     -0.1227
     26  CA        29.6120   17.7670    5.9010 C.3   216  TYR216      0.1736
     27  C         30.9050   18.5530    5.9440 C.2   216  TYR216      0.2595
     28  O         31.0020   19.6040    5.2910 O.2   216  TYR216     -0.2718
     29  CB        28.7280   18.0780    7.1080 C.3   216  TYR216      0.0548
     30  CG        27.2300   17.8790    6.9460 C.ar  216  TYR216     -0.0200
     31  CD1       26.6920   16.9450    6.0580 C.ar  216  TYR216     -0.0009
     32  CD2       26.3850   18.5840    7.7300 C.ar  216  TYR216     -0.0009
     33  CE1       25.3070   16.7750    5.9650 C.ar  216  TYR216      0.0417
     34  CE2       25.0340   18.4320    7.6420 C.ar  216  TYR216      0.0417
     35  CZ        24.4920   17.5300    6.7690 C.ar  216  TYR216      0.1957
     36  OH        23.1000   17.3990    6.7450 O.3   216  TYR216     -0.2866
     37  N         31.8890   18.0630    6.6760 N.am  217  LYS217     -0.1980
     38  CA        33.1540   18.7920    6.7690 C.3   217  LYS217      0.1596
     39  C         33.9090   18.7990    5.4500 C.2   217  LYS217      0.2287
     40  O         34.3910   19.8610    5.0220 O.2   217  LYS217     -0.2864
     41  CB        34.0090   18.2890    7.9180 C.3   217  LYS217      0.0298
     42  CG        34.4570   16.8810    7.9200 C.3   217  LYS217      0.0038
     43  CD        35.5090   16.7280    9.0740 C.3   217  LYS217      0.0206
     44  CE        35.9270   15.3040    9.3980 C.3   217  LYS217      0.1093
     45  NZ        36.7820   14.5880    8.3870 N.3   217  LYS217     -0.1314
     46  N         29.5410   21.8670    3.9450 N.3   221  PHE221     -0.1227
     47  CA        28.1510   22.1950    4.2910 C.3   221  PHE221      0.1736
     48  C         28.1300   22.9240    5.6260 C.2   221  PHE221      0.2595
     49  O         28.8490   22.5570    6.5660 O.2   221  PHE221     -0.2718
     50  CB        27.2680   20.9370    4.3830 C.3   221  PHE221      0.0547
     51  CG        26.9280   20.2940    3.0570 C.ar  221  PHE221     -0.0202
     52  CD1       26.2580   20.9990    2.0940 C.ar  221  PHE221     -0.0042
     53  CD2       27.2170   18.9650    2.8070 C.ar  221  PHE221     -0.0042
     54  CE1       25.8840   20.4140    0.8960 C.ar  221  PHE221     -0.0003
     55  CE2       26.8690   18.3630    1.5980 C.ar  221  PHE221     -0.0003
     56  CZ        26.1970   19.0780    0.6490 C.ar  221  PHE221     -0.0000
     57  N         27.2860   23.9420    5.7250 N.am  222  LYS222     -0.1966
     58  CA        27.2090   24.7700    6.9350 C.3   222  LYS222      0.1728
     59  C         26.1090   24.3350    7.9080 C.2   222  LYS222      0.2617
     60  O         26.0160   24.8470    9.0150 O.2   222  LYS222     -0.2715
     61  CB        27.0780   26.2600    6.5490 C.3   222  LYS222      0.0311
     62  CG        28.2310   26.7900    5.6000 C.3   222  LYS222      0.0038
     63  CD        29.5920   26.5280    6.1890 C.3   222  LYS222      0.0206
     64  CE        30.7750   27.1650    5.4210 C.3   222  LYS222      0.1093
     65  NZ        30.8180   26.7270    4.0030 N.3   222  LYS222     -0.1314
     66  N         25.2890   23.3800    7.4980 N.am  223  THR223     -0.1937
     67  CA        24.2470   22.8110    8.3610 C.3   223  THR223      0.2028
     68  C         24.9250   22.1780    9.5720 C.2   223  THR223      0.2642
     69  O         25.9250   21.4700    9.4410 O.2   223  THR223     -0.2714
     70  CB        23.5020   21.7210    7.5600 C.3   223  THR223      0.1808
     71  OG1       22.8560   22.3150    6.4110 O.3   223  THR223     -0.2208
     72  CG2       22.4670   20.9720    8.4160 C.3   223  THR223      0.0379
     73  N         24.3820   22.4330   10.7600 N.am  224  ILE224     -0.1963
     74  CA        24.8850   21.8790   12.0240 C.3   224  ILE224      0.1727
     75  C         24.5160   20.4200   12.1690 C.2   224  ILE224      0.2616
     76  O         23.3360   20.0430   11.9740 O.2   224  ILE224     -0.2715
     77  CB        24.2920   22.6610   13.2110 C.3   224  ILE224      0.0290
     78  CG1       24.8230   24.0850   13.1950 C.3   224  ILE224      0.0022
     79  CG2       24.5900   21.9770   14.5550 C.3   224  ILE224      0.0023
     80  CD1       24.0640   25.0550   14.0860 C.3   224  ILE224      0.0001
     81  N         25.4820   19.5760   12.5200 N.am  225  VAL225     -0.1977
     82  CA        25.2570   18.1700   12.7560 C.3   225  VAL225      0.1596
     83  C         25.0170   17.9760   14.2550 C.2   225  VAL225      0.2287
     84  O         25.9350   18.1620   15.0570 O.2   225  VAL225     -0.2864
     85  CB        26.4470   17.3010   12.3120 C.3   225  VAL225      0.0276
     86  CG1       26.1510   15.8320   12.5870 C.3   225  VAL225      0.0022
     87  CG2       26.7310   17.5520   10.8370 C.3   225  VAL225      0.0022
     88  N         29.4430   18.7780   16.0400 N.3   243  ASP243     -0.1239
     89  CA        28.9900   20.1730   16.1420 C.3   243  ASP243      0.1674
     90  C         28.1130   20.3970   17.3750 C.2   243  ASP243      0.2266
     91  O         28.2820   21.3590   18.1360 O.2   243  ASP243     -0.2867
     92  CB        28.1640   20.5820   14.9210 C.3   243  ASP243      0.1410
     93  CG        28.9290   20.5670   13.6200 C.2   243  ASP243      0.3668
     94  OD1       30.1880   20.5680   13.6010 O.co2 243  ASP243     -0.2456
     95  OD2       28.2510   20.6090   12.5710 O.co2 243  ASP243     -0.2456
@<TRIPOS>BOND
     1    56    54   ar
     2    56    55   ar
     3    54    52   ar
     4    55    53   ar
     5    52    51   ar
     6    53    51   ar
     7    51    50    1
     8    46    47    1
     9    65    64    1
    10    47    50    1
    11    47    48    1
    12    40    39    2
    13    28    27    2
    14    64    63    1
    15    39    38    1
    16    62    63    1
    17    62    61    1
    18    48    57   am
    19    48    49    2
    20    57    58    1
    21    25    26    1
    22    26    27    1
    23    26    29    1
    24    27    37   am
    25    33    31   ar
    26    33    35   ar
    27    31    30   ar
    28    71    70    1
    29    61    58    1
    30    37    38    1
    31    36    35    1
    32    35    34   ar
    33    38    41    1
    34    58    59    1
    35    30    29    1
    36    30    32   ar
    37    66    59   am
    38    66    67    1
    39    70    67    1
    40    70    72    1
    41    34    32   ar
    42    59    60    2
    43    41    42    1
    44    42    43    1
    45    67    68    1
    46    45    44    1
    47    16    15    2
    48     1     2    1
    49    43    44    1
    50    15    14    1
    51    69    68    2
    52    68    73   am
    53     2     3    1
    54     2     5    1
    55    13    14    1
    56    14    17    1
    57     3     4    2
    58     5     6    1
    59    73    74    1
    60    87    85    1
    61    17    18    1
    62     7     6   ar
    63     7     9   ar
    64    20    18   ar
    65    20    22   ar
    66     6     8   ar
    67    76    75    2
    68    74    75    1
    69    74    77    1
    70    18    19   ar
    71    75    81   am
    72    22    23   ar
    73    85    86    1
    74    85    82    1
    75    81    82    1
    76    95    93   ar
    77    82    83    1
    78    19    21   ar
    79     9    11   ar
    80    23    21   ar
    81    23    24    1
    82     8    10   ar
    83    78    77    1
    84    78    80    1
    85    77    79    1
    86    94    93   ar
    87    93    92    1
    88    11    10   ar
    89    11    12    1
    90    83    84    2
    91    92    89    1
    92    88    89    1
    93    89    90    1
    94    90    91    2
