@<TRIPOS>MOLECULE
tmp/3tkhA00.pdb
 142 132 0 0 0
SMALL
GASTEIGER

@<TRIPOS>ATOM
      1  N         18.1820   -6.4660    0.0610 N.3    12  GLN12      -0.1245
      2  CA        19.0150   -7.0470    1.1120 C.3    12  GLN12       0.1566
      3  C         18.2970   -7.2880    2.4380 C.2    12  GLN12       0.2260
      4  O         17.3470   -6.5730    2.7720 O.2    12  GLN12      -0.2867
      5  CB        20.3520   -6.2910    1.2760 C.3    12  GLN12       0.0367
      6  CG        20.3770   -5.1260    2.2500 C.3    12  GLN12       0.0905
      7  CD        21.7300   -5.0250    2.9080 C.2    12  GLN12       0.2608
      8  OE1       22.2820   -6.0110    3.4200 O.2    12  GLN12      -0.2717
      9  NE2       22.2880   -3.8270    2.9270 N.am   12  GLN12      -0.0878
     10  N         17.9190   -7.0620    6.2910 N.3    14  LEU14      -0.1245
     11  CA        18.3320   -6.1490    7.3520 C.3    14  LEU14       0.1561
     12  C         18.2920   -6.8340    8.7320 C.2    14  LEU14       0.2260
     13  O         18.8710   -6.3280    9.6890 O.2    14  LEU14      -0.2867
     14  CB        17.4740   -4.8700    7.3270 C.3    14  LEU14       0.0270
     15  CG        17.5350   -4.0470    6.0320 C.3    14  LEU14       0.0019
     16  CD1       16.5560   -2.8870    6.0810 C.3    14  LEU14       0.0001
     17  CD2       18.9600   -3.5740    5.7330 C.3    14  LEU14       0.0001
     18  N         13.1980   -8.5220    7.9670 N.3    22  VAL22      -0.1245
     19  CA        13.1730   -7.1190    7.5740 C.3    22  VAL22       0.1561
     20  C         14.0430   -7.0300    6.3140 C.2    22  VAL22       0.2260
     21  O         15.2030   -7.4410    6.3450 O.2    22  VAL22      -0.2867
     22  CB        13.6520   -6.1440    8.6920 C.3    22  VAL22       0.0252
     23  CG1       13.6770   -4.6990    8.1920 C.3    22  VAL22       0.0019
     24  CG2       12.7810   -6.2560    9.9420 C.3    22  VAL22       0.0019
     25  N         12.3680    0.2490    4.5850 N.3    35  ALA35      -0.1245
     26  CA        12.5640   -1.0270    5.2440 C.3    35  ALA35       0.1562
     27  C         11.1940   -1.6920    5.2260 C.2    35  ALA35       0.2260
     28  O         10.1850   -1.0690    5.5690 O.2    35  ALA35      -0.2867
     29  CB        13.0330   -0.8220    6.6820 C.3    35  ALA35       0.0290
     30  N          9.0810   -4.6850    6.7880 N.3    37  LYS37      -0.1245
     31  CA         9.0120   -5.7090    7.8270 C.3    37  LYS37       0.1561
     32  C          7.9890   -6.7270    7.3290 C.2    37  LYS37       0.2260
     33  O          6.8410   -6.3690    7.0530 O.2    37  LYS37      -0.2867
     34  CB         8.6430   -5.1190    9.2090 C.3    37  LYS37       0.0271
     35  CG         8.7360   -6.1440   10.3350 C.3    37  LYS37       0.0035
     36  CD         8.4160   -5.5450   11.6900 C.3    37  LYS37       0.0206
     37  CE         8.3920   -6.6000   12.7710 C.3    37  LYS37       0.1093
     38  NZ         8.2530   -5.9960   14.1230 N.3    37  LYS37      -0.1314
     39  N          0.9540   -3.4670   16.6740 N.3    44  GLU44      -0.1245
     40  CA         2.1350   -2.8260   16.0940 C.3    44  GLU44       0.1567
     41  C          1.7460   -1.8380   14.9990 C.2    44  GLU44       0.2260
     42  O          2.2440   -0.7190   15.0030 O.2    44  GLU44      -0.2867
     43  CB         3.1210   -3.8560   15.5470 C.3    44  GLU44       0.0388
     44  CG         4.4230   -3.2310   15.0630 C.3    44  GLU44       0.1160
     45  CD         5.5450   -4.1920   14.7290 C.2    44  GLU44       0.3649
     46  OE1        5.4240   -5.3870   15.0790 O.co2  44  GLU44      -0.2457
     47  OE2        6.5820   -3.7330   14.1950 O.co2  44  GLU44      -0.2457
     48  N         11.1170    5.7820   14.0800 N.3    57  VAL57      -0.1245
     49  CA        11.0660    5.2050   12.7340 C.3    57  VAL57       0.1561
     50  C          9.6660    5.4800   12.1230 C.2    57  VAL57       0.2260
     51  O          8.6470    5.1590   12.7350 O.2    57  VAL57      -0.2867
     52  CB        11.4550    3.7060   12.7290 C.3    57  VAL57       0.0252
     53  CG1       11.0360    3.0230   11.4270 C.3    57  VAL57       0.0019
     54  CG2       12.9570    3.5360   12.9790 C.3    57  VAL57       0.0019
     55  N          8.3750    0.8230    6.4240 N.3    73  LEU73      -0.1231
     56  CA         8.9690    1.6760    7.4420 C.3    73  LEU73       0.1693
     57  C         10.1770    2.4440    6.9570 C.2    73  LEU73       0.2592
     58  O         10.8300    2.0550    5.9860 O.2    73  LEU73      -0.2718
     59  CB         9.3620    0.7980    8.6480 C.3    73  LEU73       0.0284
     60  CG         8.1970    0.0330    9.3170 C.3    73  LEU73       0.0019
     61  CD1        8.6380   -1.3430    9.7780 C.3    73  LEU73       0.0001
     62  CD2        7.5450    0.8620   10.4120 C.3    73  LEU73       0.0001
     63  N         10.5000    3.5200    7.6760 N.am   74  GLU74      -0.1966
     64  CA        11.6450    4.3650    7.3710 C.3    74  GLU74       0.1733
     65  C         12.9420    3.5620    7.3790 C.2    74  GLU74       0.2616
     66  O         13.2230    2.8470    8.3390 O.2    74  GLU74      -0.2715
     67  CB        11.6980    5.5120    8.3770 C.3    74  GLU74       0.0429
     68  CG        12.8380    6.4940    8.1910 C.3    74  GLU74       0.1163
     69  CD        12.8390    7.5820    9.2470 C.2    74  GLU74       0.3649
     70  OE1       13.6810    8.5030    9.1460 O.co2  74  GLU74      -0.2457
     71  OE2       11.9980    7.5170   10.1740 O.co2  74  GLU74      -0.2457
     72  N         13.7060    3.6410    6.2920 N.am   75  TYR75      -0.1960
     73  CA        14.9850    2.9570    6.2540 C.3    75  TYR75       0.1771
     74  C         16.0530    3.8330    6.8910 C.2    75  TYR75       0.2620
     75  O         16.2240    5.0040    6.5210 O.2    75  TYR75      -0.2715
     76  CB        15.3950    2.5680    4.8160 C.3    75  TYR75       0.0574
     77  CG        16.7880    1.9830    4.7430 C.ar   75  TYR75      -0.0198
     78  CD1       17.0990    0.7790    5.3810 C.ar   75  TYR75      -0.0009
     79  CD2       17.7990    2.6280    4.0350 C.ar   75  TYR75      -0.0009
     80  CE1       18.3760    0.2230    5.2910 C.ar   75  TYR75       0.0417
     81  CE2       19.0750    2.0770    3.9340 C.ar   75  TYR75       0.0417
     82  CZ        19.3610    0.8810    4.5720 C.ar   75  TYR75       0.1957
     83  OH        20.6400    0.3760    4.5250 O.3    75  TYR75      -0.2866
     84  N         16.7810    3.2530    7.8400 N.am   76  CYS76      -0.1954
     85  CA        17.8560    3.9370    8.5550 C.3    76  CYS76       0.1843
     86  C         19.1760    3.3340    8.0840 C.2    76  CYS76       0.2626
     87  O         19.5300    2.2170    8.4620 O.2    76  CYS76      -0.2714
     88  CB        17.6550    3.8130   10.0650 C.3    76  CYS76       0.0997
     89  SG        16.0530    4.4470   10.6440 S.3    76  CYS76      -0.0797
     90  N         19.8610    4.0530    7.1740 N.am   77  SER77      -0.1936
     91  CA        21.0980    3.5770    6.5310 C.3    77  SER77       0.2055
     92  C         22.3070    3.4120    7.4420 C.2    77  SER77       0.2644
     93  O         23.2330    2.7060    7.0690 O.2    77  SER77      -0.2714
     94  CB        21.4440    4.4300    5.3150 C.3    77  SER77       0.2130
     95  OG        21.7630    5.7640    5.6740 O.3    77  SER77      -0.2179
     96  N         22.2760    4.0310    8.6280 N.am   78  GLY78      -0.1939
     97  CA        23.3450    3.9370    9.6190 C.3    78  GLY78       0.2014
     98  C         23.3240    2.6750   10.4540 C.2    78  GLY78       0.2639
     99  O         24.2860    2.4000   11.1600 O.2    78  GLY78      -0.2714
    100  N         22.2610    1.8840   10.3460 N.am   79  GLY79      -0.1939
    101  CA        22.1390    0.6260   11.0650 C.3    79  GLY79       0.2014
    102  C         21.8290    0.8250   12.5380 C.2    79  GLY79       0.2638
    103  O         21.3260    1.8730   12.9340 O.2    79  GLY79      -0.2714
    104  N         22.1420   -0.1710   13.3400 N.am   80  GLU80      -0.1977
    105  CA        21.8520   -0.1660   14.7700 C.3    80  GLU80       0.1602
    106  C         22.8620    0.5810   15.5750 C.2    80  GLU80       0.2287
    107  O         24.0670    0.4960   15.3250 O.2    80  GLU80      -0.2864
    108  CB        21.7450   -1.5940   15.3140 C.3    80  GLU80       0.0415
    109  CG        20.6230   -2.3940   14.6730 C.3    80  GLU80       0.1163
    110  CD        20.6390   -3.8620   15.0300 C.2    80  GLU80       0.3649
    111  OE1       19.8100   -4.6080   14.4620 O.co2  80  GLU80      -0.2457
    112  OE2       21.4380   -4.2610   15.9090 O.co2  80  GLU80      -0.2457
    113  N         25.9250   -1.4490   16.8940 N.3    83  ASP83      -0.1239
    114  CA        27.1800   -1.5380   16.1350 C.3    83  ASP83       0.1674
    115  C         28.1610   -0.3980   16.3190 C.2    83  ASP83       0.2266
    116  O         29.3160   -0.5440   15.9250 O.2    83  ASP83      -0.2867
    117  CB        26.9190   -1.8660   14.6530 C.3    83  ASP83       0.1410
    118  CG        26.1890   -3.1910   14.4760 C.2    83  ASP83       0.3668
    119  OD1       25.2800   -3.2500   13.6500 O.co2  83  ASP83      -0.2456
    120  OD2       26.4800   -4.1380   15.2320 O.co2  83  ASP83      -0.2456
    121  N         17.9480    2.8890   15.9100 N.3   126  LEU126     -0.1245
    122  CA        18.5660    2.9360   14.5750 C.3   126  LEU126      0.1561
    123  C         19.1190    4.2910   14.2540 C.2   126  LEU126      0.2260
    124  O         18.7000    5.2880   14.8360 O.2   126  LEU126     -0.2867
    125  CB        17.5980    2.4400   13.4880 C.3   126  LEU126      0.0270
    126  CG        16.8610    1.1140   13.7730 C.3   126  LEU126      0.0019
    127  CD1       15.8390    0.8270   12.6930 C.3   126  LEU126      0.0001
    128  CD2       17.8440   -0.0660   13.9470 C.3   126  LEU126      0.0001
    129  N         12.8970    2.2500   17.0130 N.3   136  SER136     -0.1202
    130  CA        12.2350    1.2820   16.1340 C.3   136  SER136      0.2020
    131  C         11.6140    0.1280   16.8930 C.2   136  SER136      0.2618
    132  O         11.9500   -0.1190   18.0560 O.2   136  SER136     -0.2717
    133  CB        13.2360    0.7190   15.1280 C.3   136  SER136      0.2103
    134  OG        14.0550   -0.2800   15.7100 O.3   136  SER136     -0.2182
    135  N         10.7790   -0.6430   16.1700 N.am  137  ASP137     -0.1973
    136  CA        10.1430   -1.8590   16.6170 C.3   137  ASP137      0.1709
    137  C          9.1450   -1.6660   17.7540 C.2   137  ASP137      0.2293
    138  O          9.4820   -1.8160   18.9330 O.2   137  ASP137     -0.2864
    139  CB        11.1790   -2.9590   16.9150 C.3   137  ASP137      0.1436
    140  CG        10.5690   -4.3290   17.1160 C.2   137  ASP137      0.3671
    141  OD1       11.3360   -5.2840   17.3840 O.co2 137  ASP137     -0.2456
    142  OD2        9.3230   -4.4510   16.9940 O.co2 137  ASP137     -0.2456
@<TRIPOS>BOND
     1     1     2    1
     2     2     5    1
     3     2     3    1
     4     5     6    1
     5     6     7    1
     6     3     4    2
     7     7     9   am
     8     7     8    2
     9    81    79   ar
    10    81    82   ar
    11    79    77   ar
    12    83    82    1
    13    82    80   ar
    14    25    26    1
    15    77    76    1
    16    77    78   ar
    17    76    73    1
    18    27    26    1
    19    27    28    2
    20    26    29    1
    21    80    78   ar
    22    94    95    1
    23    94    91    1
    24    17    15    1
    25    58    57    2
    26    15    16    1
    27    15    14    1
    28    73    72    1
    29    73    74    1
    30    10    11    1
    31    72    65   am
    32    20    21    2
    33    20    19    1
    34    55    56    1
    35    75    74    2
    36    91    90    1
    37    91    92    1
    38    30    31    1
    39    74    84   am
    40    57    56    1
    41    57    63   am
    42    33    32    2
    43    93    92    2
    44    90    86   am
    45    14    11    1
    46    32    31    1
    47    11    12    1
    48    64    65    1
    49    64    63    1
    50    64    67    1
    51    65    66    2
    52    56    59    1
    53    92    96   am
    54    19    18    1
    55    19    22    1
    56    31    34    1
    57    84    85    1
    58    86    87    2
    59    86    85    1
    60    68    67    1
    61    68    69    1
    62    23    22    1
    63    85    88    1
    64    96    97    1
    65    59    60    1
    66    22    24    1
    67    12    13    2
    68    70    69   ar
    69    34    35    1
    70    69    71   ar
    71    60    61    1
    72    60    62    1
    73    97    98    1
    74    88    89    1
    75    35    36    1
    76   100    98   am
    77   100   101    1
    78    98    99    2
    79   101   102    1
    80    53    52    1
    81    36    37    1
    82    50    49    1
    83    50    51    2
    84   102   103    2
    85   102   104   am
    86   127   126    1
    87    52    49    1
    88    52    54    1
    89    49    48    1
    90    37    38    1
    91   104   105    1
    92   125   126    1
    93   125   122    1
    94   119   118   ar
    95   126   128    1
    96    47    45   ar
    97   123   122    1
    98   123   124    2
    99   111   110   ar
   100   118   117    1
   101   118   120   ar
   102   122   121    1
   103   117   114    1
   104   109   110    1
   105   109   108    1
   106    45    44    1
   107    45    46   ar
   108   105   108    1
   109   105   106    1
   110    41    42    2
   111    41    40    1
   112   110   112   ar
   113    44    43    1
   114   133   134    1
   115   133   130    1
   116   107   106    2
   117    43    40    1
   118   116   115    2
   119    40    39    1
   120   130   131    1
   121   130   129    1
   122   114   115    1
   123   114   113    1
   124   135   136    1
   125   135   131   am
   126   136   139    1
   127   136   137    1
   128   131   132    2
   129   139   140    1
   130   142   140   ar
   131   140   141   ar
   132   137   138    2
