@<TRIPOS>MOLECULE
tmp/3tkiA00.pdb
 175 164 0 0 0
SMALL
GASTEIGER

@<TRIPOS>ATOM
      1  N         18.0530   -6.2510    0.1010 N.3    12  GLN12      -0.1245
      2  CA        18.8980   -6.7700    1.1800 C.3    12  GLN12       0.1566
      3  C         18.1580   -7.0640    2.4760 C.2    12  GLN12       0.2260
      4  O         17.2110   -6.3530    2.8340 O.2    12  GLN12      -0.2867
      5  CB        20.1980   -5.9480    1.3850 C.3    12  GLN12       0.0367
      6  CG        20.1930   -4.8820    2.4660 C.3    12  GLN12       0.0905
      7  CD        21.5810   -4.3280    2.6610 C.2    12  GLN12       0.2608
      8  OE1       22.0230   -3.4290    1.9400 O.2    12  GLN12      -0.2717
      9  NE2       22.3040   -4.8540    3.6380 N.am   12  GLN12      -0.0878
     10  N         17.7020   -6.8940    6.1780 N.3    14  LEU14      -0.1231
     11  CA        18.1190   -6.0170    7.2610 C.3    14  LEU14       0.1693
     12  C         18.1170   -6.7730    8.5890 C.2    14  LEU14       0.2592
     13  O         19.0020   -6.5630    9.4200 O.2    14  LEU14      -0.2718
     14  CB        17.2330   -4.7640    7.3050 C.3    14  LEU14       0.0284
     15  CG        17.3300   -3.8860    6.0570 C.3    14  LEU14       0.0019
     16  CD1       16.3350   -2.7570    6.1050 C.3    14  LEU14       0.0001
     17  CD2       18.7610   -3.3920    5.8310 C.3    14  LEU14       0.0001
     18  N         17.1550   -7.6750    8.7440 N.am   15  GLY15      -0.1957
     19  CA        17.0040   -8.4790    9.9470 C.3    15  GLY15       0.1869
     20  C         16.0940   -9.6690    9.7550 C.2    15  GLY15       0.2309
     21  O         15.1680   -9.6310    8.9390 O.2    15  GLY15      -0.2863
     22  N          9.6810  -12.9880   14.6820 N.3    19  TYR19      -0.1241
     23  CA         8.6660  -12.0360   14.2140 C.3    19  TYR19       0.1605
     24  C          8.4300  -12.1160   12.6920 C.2    19  TYR19       0.2264
     25  O          7.3640  -11.7160   12.2150 O.2    19  TYR19      -0.2867
     26  CB         9.1000  -10.5900   14.5880 C.3    19  TYR19       0.0534
     27  CG        10.3490  -10.1160   13.8630 C.ar   19  TYR19      -0.0201
     28  CD1       10.2620   -9.4440   12.6450 C.ar   19  TYR19      -0.0009
     29  CD2       11.6170  -10.3620   14.3820 C.ar   19  TYR19      -0.0009
     30  CE1       11.4050   -9.0470   11.9520 C.ar   19  TYR19       0.0417
     31  CE2       12.7670   -9.9500   13.7080 C.ar   19  TYR19       0.0417
     32  CZ        12.6570   -9.3050   12.4870 C.ar   19  TYR19       0.1957
     33  OH        13.7860   -8.8930   11.8210 O.3    19  TYR19      -0.2866
     34  N         12.9230   -8.3220    7.9510 N.3    22  VAL22      -0.1245
     35  CA        12.9660   -6.9170    7.5730 C.3    22  VAL22       0.1561
     36  C         13.8310   -6.8430    6.3240 C.2    22  VAL22       0.2260
     37  O         14.9650   -7.3180    6.3380 O.2    22  VAL22      -0.2867
     38  CB        13.4790   -5.9640    8.6890 C.3    22  VAL22       0.0252
     39  CG1       13.4360   -4.5120    8.2200 C.3    22  VAL22       0.0019
     40  CG2       12.6670   -6.1280    9.9720 C.3    22  VAL22       0.0019
     41  N         12.2360    0.4960    4.6080 N.3    35  ALA35      -0.1245
     42  CA        12.4080   -0.7970    5.2500 C.3    35  ALA35       0.1562
     43  C         11.0210   -1.4500    5.2070 C.2    35  ALA35       0.2260
     44  O         10.0120   -0.7950    5.4980 O.2    35  ALA35      -0.2867
     45  CB        12.8610   -0.6270    6.7000 C.3    35  ALA35       0.0290
     46  N          8.9160   -4.4940    6.7800 N.3    37  LYS37      -0.1245
     47  CA         8.8440   -5.5000    7.8280 C.3    37  LYS37       0.1561
     48  C          7.7690   -6.4820    7.3610 C.2    37  LYS37       0.2260
     49  O          6.6420   -6.0770    7.0780 O.2    37  LYS37      -0.2867
     50  CB         8.5090   -4.8700    9.1990 C.3    37  LYS37       0.0271
     51  CG         8.5520   -5.8530   10.3540 C.3    37  LYS37       0.0035
     52  CD         8.5200   -5.1220   11.6970 C.3    37  LYS37       0.0206
     53  CE         8.5440   -6.0660   12.8700 C.3    37  LYS37       0.1093
     54  NZ         8.5300   -5.3260   14.1660 N.3    37  LYS37      -0.1314
     55  N          0.8680   -3.3590   16.7010 N.3    47  GLU47      -0.1245
     56  CA         2.0500   -2.6880   16.1520 C.3    47  GLU47       0.1567
     57  C          1.6640   -1.6960   15.0400 C.2    47  GLU47       0.2260
     58  O          2.1580   -0.5690   15.0340 O.2    47  GLU47      -0.2867
     59  CB         3.0660   -3.7110   15.6400 C.3    47  GLU47       0.0388
     60  CG         4.3600   -3.0710   15.1640 C.3    47  GLU47       0.1160
     61  CD         5.4700   -4.0290   14.7810 C.2    47  GLU47       0.3649
     62  OE1        5.3390   -5.2460   15.0460 O.co2  47  GLU47      -0.2457
     63  OE2        6.5000   -3.5450   14.2630 O.co2  47  GLU47      -0.2457
     64  N         11.0020    6.0310   14.1200 N.3    60  VAL60      -0.1245
     65  CA        10.8980    5.4690   12.7670 C.3    60  VAL60       0.1561
     66  C          9.4760    5.7640   12.2210 C.2    60  VAL60       0.2260
     67  O          8.4940    5.3900   12.8670 O.2    60  VAL60      -0.2867
     68  CB        11.2580    3.9670   12.7500 C.3    60  VAL60       0.0252
     69  CG1       10.7660    3.2800   11.4700 C.3    60  VAL60       0.0019
     70  CG2       12.7670    3.7790   12.9210 C.3    60  VAL60       0.0019
     71  N          8.1900    1.0520    6.4120 N.3    76  LEU76      -0.1231
     72  CA         8.7690    1.8990    7.4480 C.3    76  LEU76       0.1693
     73  C          9.9910    2.6720    6.9960 C.2    76  LEU76       0.2592
     74  O         10.6990    2.2610    6.0620 O.2    76  LEU76      -0.2718
     75  CB         9.1440    1.0020    8.6440 C.3    76  LEU76       0.0284
     76  CG         7.9630    0.2990    9.3530 C.3    76  LEU76       0.0019
     77  CD1        8.3180   -1.1210    9.7300 C.3    76  LEU76       0.0001
     78  CD2        7.4780    1.1090   10.5610 C.3    76  LEU76       0.0001
     79  N         10.2770    3.7640    7.7100 N.am   77  GLU77      -0.1966
     80  CA        11.4420    4.5950    7.4380 C.3    77  GLU77       0.1733
     81  C         12.7470    3.7920    7.4660 C.2    77  GLU77       0.2616
     82  O         13.0160    3.0710    8.4400 O.2    77  GLU77      -0.2715
     83  CB        11.4940    5.7400    8.4460 C.3    77  GLU77       0.0429
     84  CG        12.6800    6.6550    8.2510 C.3    77  GLU77       0.1163
     85  CD        12.7380    7.7520    9.2860 C.2    77  GLU77       0.3649
     86  OE1       13.6520    8.6000    9.1870 O.co2  77  GLU77      -0.2457
     87  OE2       11.8850    7.7560   10.2050 O.co2  77  GLU77      -0.2457
     88  N         13.5270    3.8800    6.3780 N.am   78  TYR78      -0.1960
     89  CA        14.8030    3.1870    6.2990 C.3    78  TYR78       0.1771
     90  C         15.8930    4.0160    6.9410 C.2    78  TYR78       0.2620
     91  O         16.0830    5.1880    6.6000 O.2    78  TYR78      -0.2715
     92  CB        15.1900    2.7990    4.8470 C.3    78  TYR78       0.0574
     93  CG        16.5480    2.1370    4.7650 C.ar   78  TYR78      -0.0198
     94  CD1       16.8080    0.9450    5.4400 C.ar   78  TYR78      -0.0009
     95  CD2       17.5960    2.7330    4.0630 C.ar   78  TYR78      -0.0009
     96  CE1       18.0650    0.3440    5.3890 C.ar   78  TYR78       0.0417
     97  CE2       18.8520    2.1340    3.9970 C.ar   78  TYR78       0.0417
     98  CZ        19.0830    0.9440    4.6700 C.ar   78  TYR78       0.1957
     99  OH        20.3250    0.3660    4.6500 O.3    78  TYR78      -0.2866
    100  N         16.6310    3.3960    7.8520 N.am   79  CYS79      -0.1954
    101  CA        17.7170    4.0590    8.5710 C.3    79  CYS79       0.1843
    102  C         19.0340    3.4490    8.0950 C.2    79  CYS79       0.2626
    103  O         19.3880    2.3400    8.4820 O.2    79  CYS79      -0.2714
    104  CB        17.5120    3.9150   10.0800 C.3    79  CYS79       0.0997
    105  SG        15.9650    4.6470   10.6810 S.3    79  CYS79      -0.0797
    106  N         19.7270    4.1610    7.1790 N.am   80  SER80      -0.1936
    107  CA        20.9550    3.6640    6.5340 C.3    80  SER80       0.2055
    108  C         22.1780    3.4460    7.4210 C.2    80  SER80       0.2644
    109  O         23.0530    2.6660    7.0510 O.2    80  SER80      -0.2714
    110  CB        21.3050    4.4920    5.2990 C.3    80  SER80       0.2130
    111  OG        21.5460    5.8540    5.6130 O.3    80  SER80      -0.2179
    112  N         22.2100    4.0920    8.5850 N.am   81  GLY81      -0.1939
    113  CA        23.3160    3.9540    9.5260 C.3    81  GLY81       0.2014
    114  C         23.2710    2.7060   10.3880 C.2    81  GLY81       0.2639
    115  O         24.1900    2.4780   11.1600 O.2    81  GLY81      -0.2714
    116  N         22.2160    1.9090   10.2570 N.am   82  GLY82      -0.1939
    117  CA        22.0430    0.6700   11.0020 C.3    82  GLY82       0.2014
    118  C         21.7090    0.8810   12.4690 C.2    82  GLY82       0.2638
    119  O         21.2210    1.9380   12.8560 O.2    82  GLY82      -0.2714
    120  N         22.0420   -0.0990   13.2840 N.am   83  GLU83      -0.1977
    121  CA        21.7490   -0.1170   14.7110 C.3    83  GLU83       0.1602
    122  C         22.7820    0.5620   15.5310 C.2    83  GLU83       0.2287
    123  O         23.9740    0.3920   15.2830 O.2    83  GLU83      -0.2864
    124  CB        21.6260   -1.5640   15.1790 C.3    83  GLU83       0.0415
    125  CG        20.4560   -2.2760   14.5220 C.3    83  GLU83       0.1163
    126  CD        20.3290   -3.7600   14.7830 C.2    83  GLU83       0.3649
    127  OE1       19.4150   -4.3740   14.1900 O.co2  83  GLU83      -0.2457
    128  OE2       21.1110   -4.3020   15.5960 O.co2  83  GLU83      -0.2457
    129  N         25.8810   -1.5010   16.8180 N.3    86  ASP86      -0.1239
    130  CA        27.1390   -1.6040   16.0680 C.3    86  ASP86       0.1674
    131  C         28.0840   -0.4270   16.2050 C.2    86  ASP86       0.2266
    132  O         29.2220   -0.5210   15.7380 O.2    86  ASP86      -0.2867
    133  CB        26.8850   -2.0140   14.6100 C.3    86  ASP86       0.1410
    134  CG        26.2300   -3.3930   14.5490 C.2    86  ASP86       0.3668
    135  OD1       25.1250   -3.4970   14.0010 O.co2  86  ASP86      -0.2456
    136  OD2       26.7890   -4.3460   15.1370 O.co2  86  ASP86      -0.2456
    137  N         19.9120   -2.4870   19.9370 N.3   126  GLU126     -0.1231
    138  CA        19.4870   -3.2010   18.7270 C.3   126  GLU126      0.1699
    139  C         18.2600   -2.5510   18.0730 C.2   126  GLU126      0.2592
    140  O         18.0800   -2.6810   16.8660 O.2   126  GLU126     -0.2718
    141  CB        19.2010   -4.6940   19.0080 C.3   126  GLU126      0.0402
    142  CG        20.3860   -5.4410   19.6110 C.3   126  GLU126      0.1161
    143  CD        20.5230   -5.4550   21.1280 C.2   126  GLU126      0.3649
    144  OE1       20.2010   -4.4390   21.7880 O.co2 126  GLU126     -0.2457
    145  OE2       20.9930   -6.4890   21.6570 O.co2 126  GLU126     -0.2457
    146  N         17.4330   -1.8510   18.8670 N.am  127  ASN127     -0.1974
    147  CA        16.2030   -1.1940   18.3970 C.3   127  ASN127      0.1688
    148  C         16.3420    0.3120   18.1520 C.2   127  ASN127      0.2292
    149  O         15.3790    0.9500   17.7060 O.2   127  ASN127     -0.2864
    150  CB        15.0900   -1.4340   19.4190 C.3   127  ASN127      0.1181
    151  CG        14.6220   -2.8580   19.3710 C.2   127  ASN127      0.2629
    152  OD1       14.7210   -3.5510   18.3350 O.2   127  ASN127     -0.2716
    153  ND2       14.0780   -3.3070   20.4680 N.am  127  ASN127     -0.0877
    154  N         17.9440    2.9900   15.9290 N.3   129  LEU129     -0.1245
    155  CA        18.5140    3.0690   14.5760 C.3   129  LEU129      0.1561
    156  C         19.1140    4.4050   14.2460 C.2   129  LEU129      0.2260
    157  O         18.7500    5.4130   14.8370 O.2   129  LEU129     -0.2867
    158  CB        17.4800    2.6640   13.5290 C.3   129  LEU129      0.0270
    159  CG        16.7390    1.3540   13.7880 C.3   129  LEU129      0.0019
    160  CD1       15.8210    1.0600   12.6560 C.3   129  LEU129      0.0001
    161  CD2       17.7150    0.1770   14.0390 C.3   129  LEU129      0.0001
    162  N         12.8880    2.3590   17.0120 N.3   139  SER139     -0.1202
    163  CA        12.2150    1.4260   16.1190 C.3   139  SER139      0.2020
    164  C         11.6400    0.2470   16.8670 C.2   139  SER139      0.2618
    165  O         12.0120   -0.0290   18.0180 O.2   139  SER139     -0.2717
    166  CB        13.2040    0.9020   15.0770 C.3   139  SER139      0.2103
    167  OG        14.0450   -0.1290   15.5800 O.3   139  SER139     -0.2182
    168  N         10.7970   -0.5060   16.1490 N.am  140  ASP140     -0.1973
    169  CA        10.2020   -1.7580   16.5470 C.3   140  ASP140      0.1709
    170  C          9.2200   -1.5980   17.7060 C.2   140  ASP140      0.2293
    171  O          9.6010   -1.6740   18.8730 O.2   140  ASP140     -0.2864
    172  CB        11.2960   -2.8220   16.8260 C.3   140  ASP140      0.1436
    173  CG        10.7790   -4.2300   16.9980 C.2   140  ASP140      0.3671
    174  OD1       11.6150   -5.1710   17.0340 O.co2 140  ASP140     -0.2456
    175  OD2        9.5510   -4.3990   17.0550 O.co2 140  ASP140     -0.2456
@<TRIPOS>BOND
     1     1     2    1
     2     2     5    1
     3     2     3    1
     4     5     6    1
     5     8     7    2
     6     6     7    1
     7     3     4    2
     8     7     9   am
     9    97    95   ar
    10    97    98   ar
    11    95    93   ar
    12    41    42    1
    13    99    98    1
    14    98    96   ar
    15    93    92    1
    16    93    94   ar
    17    92    89    1
    18    43    42    1
    19    43    44    2
    20    42    45    1
    21   110   111    1
    22   110   107    1
    23    96    94   ar
    24    17    15    1
    25    15    16    1
    26    15    14    1
    27    74    73    2
    28    10    11    1
    29    89    88    1
    30    89    90    1
    31    36    37    2
    32    36    35    1
    33    88    81   am
    34    71    72    1
    35   107   106    1
    36   107   108    1
    37    91    90    2
    38    46    47    1
    39    90   100   am
    40    73    72    1
    41    73    79   am
    42   109   108    2
    43    49    48    2
    44   106   102   am
    45    11    14    1
    46    11    12    1
    47    48    47    1
    48   108   112   am
    49    80    81    1
    50    80    79    1
    51    80    83    1
    52    72    75    1
    53    81    82    2
    54    35    34    1
    55    35    38    1
    56    47    50    1
    57   100   101    1
    58   102   103    2
    59   102   101    1
    60    39    38    1
    61    84    83    1
    62    84    85    1
    63   101   104    1
    64   112   113    1
    65    12    18   am
    66    12    13    2
    67    75    76    1
    68    38    40    1
    69    18    19    1
    70    21    20    2
    71    86    85   ar
    72    50    51    1
    73    85    87   ar
    74    76    77    1
    75    76    78    1
    76   113   114    1
    77    20    19    1
    78   104   105    1
    79   116   114   am
    80   116   117    1
    81    51    52    1
    82   114   115    2
    83   117   118    1
    84    69    68    1
    85    52    53    1
    86    33    32    1
    87    30    32   ar
    88    30    28   ar
    89    25    24    2
    90    66    65    1
    91    66    67    2
    92   118   119    2
    93   118   120   am
    94    32    31   ar
    95    28    27   ar
    96   160   159    1
    97    24    23    1
    98    68    65    1
    99    68    70    1
   100    65    64    1
   101    53    54    1
   102   120   121    1
   103   158   159    1
   104   158   155    1
   105    31    29   ar
   106   159   161    1
   107    27    29   ar
   108    27    26    1
   109   135   134   ar
   110   127   126   ar
   111    23    26    1
   112    23    22    1
   113   156   155    1
   114   156   157    2
   115    63    61   ar
   116   125   126    1
   117   125   124    1
   118   134   133    1
   119   134   136   ar
   120   155   154    1
   121   133   130    1
   122   121   124    1
   123   121   122    1
   124    61    62   ar
   125    61    60    1
   126   126   128   ar
   127    58    57    2
   128    57    56    1
   129   166   167    1
   130   166   163    1
   131    60    59    1
   132   123   122    2
   133    59    56    1
   134   132   131    2
   135   130   131    1
   136   130   129    1
   137   163   164    1
   138   163   162    1
   139   168   169    1
   140   168   164   am
   141    56    55    1
   142   169   172    1
   143   169   170    1
   144   172   173    1
   145   140   139    2
   146   164   165    2
   147   173   174   ar
   148   173   175   ar
   149   170   171    2
   150   149   148    2
   151   139   138    1
   152   139   146   am
   153   148   147    1
   154   152   151    2
   155   147   146    1
   156   147   150    1
   157   138   141    1
   158   138   137    1
   159   141   142    1
   160   151   150    1
   161   151   153   am
   162   142   143    1
   163   143   145   ar
   164   143   144   ar
