@<TRIPOS>MOLECULE
tmp/3tklA00.pdb
 195 191 0 0 0
SMALL
GASTEIGER

@<TRIPOS>ATOM
      1  N         10.9210   -7.2410  -22.1580 N.3    15  SER15      -0.1202
      2  CA        10.2010   -8.3870  -21.6360 C.3    15  SER15       0.2020
      3  C          9.7990   -9.2820  -22.8000 C.2    15  SER15       0.2619
      4  O          9.3230   -8.7850  -23.8160 O.2    15  SER15      -0.2717
      5  CB         8.9600   -7.9240  -20.8670 C.3    15  SER15       0.2103
      6  OG         8.4200   -9.0140  -20.1400 O.3    15  SER15      -0.2182
      7  N          9.9980  -10.5930  -22.6680 N.am   16  GLY16      -0.1942
      8  CA         9.5540  -11.5220  -23.6960 C.3    16  GLY16       0.2014
      9  C         10.4970  -11.8050  -24.8550 C.2    16  GLY16       0.2639
     10  O         10.1460  -12.5840  -25.7390 O.2    16  GLY16      -0.2714
     11  N         11.6870  -11.2000  -24.8660 N.am   17  VAL17      -0.1963
     12  CA        12.6280  -11.4030  -25.9780 C.3    17  VAL17       0.1727
     13  C         13.3640  -12.7530  -25.9120 C.2    17  VAL17       0.2617
     14  O         13.8610  -13.2520  -26.9280 O.2    17  VAL17      -0.2715
     15  CB        13.6510  -10.2370  -26.1300 C.3    17  VAL17       0.0290
     16  CG1       12.9120   -8.8950  -26.2890 C.3    17  VAL17       0.0023
     17  CG2       14.6090  -10.2020  -24.9360 C.3    17  VAL17       0.0023
     18  N         13.4150  -13.3450  -24.7250 N.am   18  GLY18      -0.1940
     19  CA        14.0020  -14.6640  -24.5730 C.3    18  GLY18       0.2014
     20  C         15.2410  -14.7330  -23.7040 C.2    18  GLY18       0.2639
     21  O         15.9870  -15.7160  -23.7750 O.2    18  GLY18      -0.2714
     22  N         15.4550  -13.7210  -22.8600 N.am   19  LYS19      -0.1963
     23  CA        16.5770  -13.7600  -21.9180 C.3    19  LYS19       0.1728
     24  C         16.5970  -15.0710  -21.0960 C.2    19  LYS19       0.2617
     25  O         17.6150  -15.7490  -21.0230 O.2    19  LYS19      -0.2715
     26  CB        16.5590  -12.5470  -20.9710 C.3    19  LYS19       0.0311
     27  CG        16.5950  -11.1820  -21.6840 C.3    19  LYS19       0.0038
     28  CD        16.5900  -10.0170  -20.6990 C.3    19  LYS19       0.0206
     29  CE        15.2800   -9.9060  -19.8960 C.3    19  LYS19       0.1093
     30  NZ        14.0390   -9.8440  -20.7310 N.3    19  LYS19      -0.1314
     31  N         15.4710  -15.4150  -20.4770 N.am   20  SER20      -0.1936
     32  CA        15.4340  -16.5750  -19.5980 C.3    20  SER20       0.2055
     33  C         15.6500  -17.8570  -20.3940 C.2    20  SER20       0.2643
     34  O         16.2680  -18.8100  -19.9140 O.2    20  SER20      -0.2714
     35  CB        14.0930  -16.6500  -18.8650 C.3    20  SER20       0.2130
     36  OG        14.0580  -15.7290  -17.8010 O.3    20  SER20      -0.2179
     37  N         15.1150  -17.8780  -21.6070 N.am   21  CYS21      -0.1967
     38  CA        15.2320  -19.0560  -22.4440 C.3    21  CYS21       0.1712
     39  C         16.6740  -19.2120  -22.9110 C.2    21  CYS21       0.2296
     40  O         17.1630  -20.3360  -23.0070 O.2    21  CYS21      -0.2864
     41  CB        14.2350  -19.0260  -23.6100 C.3    21  CYS21       0.0983
     42  SG        12.4840  -19.3440  -23.0400 S.3    21  CYS21      -0.0798
     43  N         14.5590  -26.2200  -23.0050 N.3    31  TYR31      -0.1227
     44  CA        13.6940  -25.1860  -23.5430 C.3    31  TYR31       0.1736
     45  C         12.2500  -25.5690  -23.2590 C.2    31  TYR31       0.2596
     46  O         11.8790  -26.7420  -23.3500 O.2    31  TYR31      -0.2718
     47  CB        13.9050  -25.0290  -25.0530 C.3    31  TYR31       0.0548
     48  CG        12.9580  -24.0480  -25.7110 C.ar   31  TYR31      -0.0200
     49  CD1       13.1910  -22.6800  -25.6400 C.ar   31  TYR31      -0.0009
     50  CD2       11.8330  -24.4880  -26.4040 C.ar   31  TYR31      -0.0009
     51  CE1       12.3410  -21.7670  -26.2440 C.ar   31  TYR31       0.0417
     52  CE2       10.9670  -23.5740  -27.0150 C.ar   31  TYR31       0.0417
     53  CZ        11.2330  -22.2120  -26.9290 C.ar   31  TYR31       0.1957
     54  OH        10.3950  -21.2820  -27.5070 O.3    31  TYR31      -0.2866
     55  N         11.4480  -24.5780  -22.8890 N.am   32  THR32      -0.1939
     56  CA        10.0050  -24.7440  -22.7430 C.3    32  THR32       0.2028
     57  C          9.2780  -23.4900  -23.2770 C.2    32  THR32       0.2642
     58  O          9.8130  -22.3810  -23.2050 O.2    32  THR32      -0.2714
     59  CB         9.6130  -25.0010  -21.2550 C.3    32  THR32       0.1808
     60  OG1        8.1840  -25.0170  -21.1290 O.3    32  THR32      -0.2208
     61  CG2       10.1590  -23.8990  -20.3490 C.3    32  THR32       0.0379
     62  N          8.0670  -23.6650  -23.8040 N.am   33  GLU33      -0.1963
     63  CA         7.2480  -22.5460  -24.2740 C.3    33  GLU33       0.1733
     64  C          6.4090  -21.9370  -23.1440 C.2    33  GLU33       0.2617
     65  O          5.8570  -20.8380  -23.2830 O.2    33  GLU33      -0.2715
     66  CB         6.3160  -22.9800  -25.4170 C.3    33  GLU33       0.0429
     67  CG         7.0100  -23.3650  -26.7380 C.3    33  GLU33       0.1163
     68  CD         7.3790  -22.1600  -27.6190 C.2    33  GLU33       0.3649
     69  OE1        7.1170  -21.0040  -27.2020 O.co2  33  GLU33      -0.2457
     70  OE2        7.9250  -22.3720  -28.7350 O.co2  33  GLU33      -0.2457
     71  N          6.2880  -22.6420  -22.0230 N.am   34  SER34      -0.1936
     72  CA         5.5230  -22.0710  -20.9180 C.3    34  SER34       0.2055
     73  C          6.2800  -20.8430  -20.4280 C.2    34  SER34       0.2643
     74  O          7.5120  -20.8310  -20.3830 O.2    34  SER34      -0.2714
     75  CB         5.2790  -23.0850  -19.7950 C.3    34  SER34       0.2130
     76  OG         6.3370  -23.0920  -18.8470 O.3    34  SER34      -0.2179
     77  N          5.5550  -19.7930  -20.0870 N.am   35  TYR35      -0.1959
     78  CA         6.2040  -18.5370  -19.7690 C.3    35  TYR35       0.1771
     79  C          5.7100  -17.9980  -18.4370 C.2    35  TYR35       0.2619
     80  O          4.5050  -18.0610  -18.1290 O.2    35  TYR35      -0.2715
     81  CB         5.9560  -17.5280  -20.8900 C.3    35  TYR35       0.0574
     82  CG         6.3040  -16.0800  -20.5540 C.ar   35  TYR35      -0.0198
     83  CD1        7.6250  -15.6420  -20.5540 C.ar   35  TYR35      -0.0009
     84  CD2        5.3070  -15.1510  -20.2740 C.ar   35  TYR35      -0.0009
     85  CE1        7.9420  -14.3330  -20.2660 C.ar   35  TYR35       0.0417
     86  CE2        5.6070  -13.8520  -19.9920 C.ar   35  TYR35       0.0417
     87  CZ         6.9330  -13.4390  -19.9880 C.ar   35  TYR35       0.1957
     88  OH         7.2470  -12.1310  -19.6880 O.3    35  TYR35      -0.2866
     89  N          6.6570  -17.5190  -17.6340 N.am   36  ILE36      -0.1963
     90  CA         6.3450  -16.6400  -16.5190 C.3    36  ILE36       0.1727
     91  C          7.3400  -15.4940  -16.5880 C.2    36  ILE36       0.2617
     92  O          8.5370  -15.7290  -16.7610 O.2    36  ILE36      -0.2715
     93  CB         6.5200  -17.3390  -15.1620 C.3    36  ILE36       0.0290
     94  CG1        5.4910  -18.4610  -14.9970 C.3    36  ILE36       0.0022
     95  CG2        6.4190  -16.3030  -14.0060 C.3    36  ILE36       0.0023
     96  CD1        4.1290  -17.9830  -14.6020 C.3    36  ILE36       0.0001
     97  N          6.8530  -14.2630  -16.4580 N.am   37  SER37      -0.1936
     98  CA         7.7380  -13.1070  -16.4410 C.3    37  SER37       0.2055
     99  C          8.6900  -13.2140  -15.2740 C.2    37  SER37       0.2643
    100  O          8.2840  -13.5030  -14.1530 O.2    37  SER37      -0.2714
    101  CB         6.9530  -11.8000  -16.3180 C.3    37  SER37       0.2130
    102  OG         5.8480  -11.7840  -17.1930 O.3    37  SER37      -0.2179
    103  N          9.9650  -12.9780  -15.5500 N.am   38  THR38      -0.1950
    104  CA        10.9630  -12.9260  -14.5080 C.3    38  THR38       0.1897
    105  C         10.6600  -11.7870  -13.5480 C.2    38  THR38       0.2313
    106  O         10.5220  -10.6330  -13.9570 O.2    38  THR38      -0.2863
    107  CB        12.3560  -12.7500  -15.0980 C.3    38  THR38       0.1794
    108  OG1       12.6820  -13.9280  -15.8300 O.3    38  THR38      -0.2208
    109  CG2       13.3860  -12.5520  -14.0000 C.3    38  THR38       0.0378
    110  N         20.0250  -13.2700  -14.9780 N.3    61  ASP61      -0.1225
    111  CA        18.9680  -13.0360  -15.9250 C.3    61  ASP61       0.1805
    112  C         17.9800  -12.0790  -15.2640 C.2    61  ASP61       0.2598
    113  O         17.3680  -12.3880  -14.2510 O.2    61  ASP61      -0.2718
    114  CB        18.3410  -14.3920  -16.2470 C.3    61  ASP61       0.1424
    115  CG        16.9830  -14.2860  -16.8830 C.2    61  ASP61       0.3668
    116  OD1       16.7250  -13.2960  -17.5990 O.co2  61  ASP61      -0.2456
    117  OD2       16.1750  -15.2200  -16.6590 O.co2  61  ASP61      -0.2456
    118  N         17.8500  -10.8960  -15.8290 N.am   62  THR62      -0.1939
    119  CA        17.0910   -9.8470  -15.1870 C.3    62  THR62       0.2028
    120  C         15.6910   -9.7180  -15.7800 C.2    62  THR62       0.2642
    121  O         15.4180  -10.1920  -16.8790 O.2    62  THR62      -0.2714
    122  CB        17.8290   -8.5130  -15.3230 C.3    62  THR62       0.1808
    123  OG1       17.9510   -8.1900  -16.7110 O.3    62  THR62      -0.2208
    124  CG2       19.2230   -8.6280  -14.7340 C.3    62  THR62       0.0379
    125  N         14.8110   -9.0790  -15.0300 N.am   63  ALA63      -0.1963
    126  CA        13.4590   -8.7760  -15.4800 C.3    63  ALA63       0.1728
    127  C         13.4750   -7.7190  -16.5830 C.2    63  ALA63       0.2617
    128  O         14.1750   -6.7120  -16.4710 O.2    63  ALA63      -0.2715
    129  CB        12.6300   -8.2780  -14.2940 C.3    63  ALA63       0.0334
    130  N         12.7110   -7.9530  -17.6470 N.am   64  GLY64      -0.1940
    131  CA        12.5010   -6.9510  -18.6840 C.3    64  GLY64       0.2014
    132  C         11.4860   -5.8830  -18.2740 C.2    64  GLY64       0.2638
    133  O         11.5580   -4.7340  -18.7230 O.2    64  GLY64      -0.2714
    134  N         10.5250   -6.2530  -17.4320 N.am   65  GLN65      -0.1977
    135  CA         9.4860   -5.2920  -17.0290 C.3    65  GLN65       0.1601
    136  C          9.9770   -4.2190  -16.0750 C.2    65  GLN65       0.2287
    137  O         10.5120   -4.5050  -14.9980 O.2    65  GLN65      -0.2864
    138  CB         8.2680   -6.0050  -16.4500 C.3    65  GLN65       0.0394
    139  CG         7.4780   -6.7230  -17.5250 C.3    65  GLN65       0.0908
    140  CD         6.8590   -7.9980  -17.0250 C.2    65  GLN65       0.2608
    141  OE1        6.6200   -8.1530  -15.8260 O.2    65  GLN65      -0.2717
    142  NE2        6.5900   -8.9310  -17.9420 N.am   65  GLN65      -0.0878
    143  N         17.4730  -12.6500  -30.7330 N.3   119  ASN119     -0.1225
    144  CA        16.9570  -13.9820  -30.4580 C.3   119  ASN119      0.1785
    145  C         15.7290  -14.3650  -31.3170 C.2   119  ASN119      0.2597
    146  O         15.0830  -13.4960  -31.8980 O.2   119  ASN119     -0.2718
    147  CB        16.6470  -14.1230  -28.9660 C.3   119  ASN119      0.1169
    148  CG        16.2440  -15.5460  -28.5920 C.2   119  ASN119      0.2627
    149  OD1       16.9410  -16.5250  -28.9430 O.2   119  ASN119     -0.2716
    150  ND2       15.1090  -15.6740  -27.8770 N.am  119  ASN119     -0.0877
    151  N         15.4180  -15.6620  -31.3610 N.am  120  LYS120     -0.1980
    152  CA        14.2740  -16.2080  -32.0900 C.3   120  LYS120      0.1596
    153  C         14.5260  -16.2370  -33.5960 C.2   120  LYS120      0.2287
    154  O         13.6030  -16.0610  -34.3930 O.2   120  LYS120     -0.2864
    155  CB        12.9700  -15.4580  -31.7840 C.3   120  LYS120      0.0298
    156  CG        12.6210  -15.3790  -30.3100 C.3   120  LYS120      0.0038
    157  CD        11.2540  -14.7470  -30.0950 C.3   120  LYS120      0.0206
    158  CE        11.0770  -14.3780  -28.6360 C.3   120  LYS120      0.1093
    159  NZ         9.7430  -13.7930  -28.3570 N.3   120  LYS120     -0.1314
    160  N         15.0540  -18.6830  -35.3450 N.3   122  ASP122     -0.1225
    161  CA        14.3310  -19.8070  -35.9540 C.3   122  ASP122      0.1805
    162  C         13.0250  -19.3550  -36.6180 C.2   122  ASP122      0.2597
    163  O         12.4600  -20.0790  -37.4190 O.2   122  ASP122     -0.2718
    164  CB        14.0090  -20.8710  -34.9080 C.3   122  ASP122      0.1424
    165  CG        13.2160  -20.3060  -33.7240 C.2   122  ASP122      0.3668
    166  OD1       13.7970  -19.5090  -32.9490 O.co2 122  ASP122     -0.2456
    167  OD2       12.0280  -20.6640  -33.5610 O.co2 122  ASP122     -0.2456
    168  N         12.5360  -18.1690  -36.2660 N.am  123  LEU123     -0.1979
    169  CA        11.2510  -17.6840  -36.8040 C.3   123  LEU123      0.1596
    170  C         11.4840  -16.9490  -38.1160 C.2   123  LEU123      0.2287
    171  O         11.2150  -15.7560  -38.2290 O.2   123  LEU123     -0.2864
    172  CB        10.5190  -16.7830  -35.7940 C.3   123  LEU123      0.0297
    173  CG        10.1020  -17.5010  -34.5090 C.3   123  LEU123      0.0022
    174  CD1        9.4110  -16.5530  -33.5120 C.3   123  LEU123      0.0001
    175  CD2        9.2120  -18.7300  -34.8130 C.3   123  LEU123      0.0001
    176  N         18.8300  -18.8340  -31.4960 N.3   149  SER149     -0.1202
    177  CA        17.5670  -19.4860  -31.1980 C.3   149  SER149      0.2020
    178  C         17.7540  -20.3290  -29.9440 C.2   149  SER149      0.2619
    179  O         18.3900  -21.3790  -29.9690 O.2   149  SER149     -0.2717
    180  CB        17.1000  -20.3610  -32.3550 C.3   149  SER149      0.2103
    181  OG        15.9350  -21.0720  -31.9820 O.3   149  SER149     -0.2182
    182  N         17.2380  -19.8320  -28.8340 N.am  150  ALA150     -0.1965
    183  CA        17.1200  -20.6260  -27.6100 C.3   150  ALA150      0.1728
    184  C         16.3420  -21.9110  -27.8820 C.2   150  ALA150      0.2616
    185  O         16.6610  -22.9750  -27.3410 O.2   150  ALA150     -0.2715
    186  CB        16.3990  -19.8210  -26.5430 C.3   150  ALA150      0.0334
    187  N         15.3010  -21.7980  -28.7020 N.am  151  LYS151     -0.1977
    188  CA        14.4670  -22.9470  -29.0240 C.3   151  LYS151      0.1596
    189  C         15.2340  -24.0750  -29.7380 C.2   151  LYS151      0.2287
    190  O         15.1650  -25.2280  -29.2990 O.2   151  LYS151     -0.2864
    191  CB        13.2410  -22.5240  -29.8190 C.3   151  LYS151      0.0298
    192  CG        12.4370  -23.7120  -30.3510 C.3   151  LYS151      0.0038
    193  CD        11.1690  -23.2350  -31.0360 C.3   151  LYS151      0.0206
    194  CE        10.1800  -24.3710  -31.2190 C.3   151  LYS151      0.1093
    195  NZ         8.9130  -23.8690  -31.8420 N.3   151  LYS151     -0.1314
@<TRIPOS>BOND
     1   171   170    2
     2   170   169    1
     3   163   162    2
     4   169   168    1
     5   169   172    1
     6   162   168   am
     7   162   161    1
     8   161   160    1
     9   161   164    1
    10   172   173    1
    11   164   165    1
    12   175   173    1
    13   173   174    1
    14   154   153    2
    15   165   167   ar
    16   165   166   ar
    17   153   152    1
    18   180   181    1
    19   180   177    1
    20   152   155    1
    21   152   151    1
    22   146   145    2
    23   195   194    1
    24   155   156    1
    25   176   177    1
    26   151   145   am
    27   145   144    1
    28   194   193    1
    29   177   178    1
    30   193   192    1
    31   143   144    1
    32   144   147    1
    33   192   191    1
    34   156   157    1
    35   157   158    1
    36   179   178    2
    37   178   182   am
    38   191   188    1
    39   189   190    2
    40   189   188    1
    41   188   187    1
    42   147   148    1
    43   149   148    2
    44   182   183    1
    45    70    68   ar
    46   187   184   am
    47   158   159    1
    48   148   150   am
    49   184   183    1
    50   184   185    2
    51    68    69   ar
    52    68    67    1
    53   183   186    1
    54    54    53    1
    55    52    53   ar
    56    52    50   ar
    57    53    51   ar
    58    14    13    2
    59    67    66    1
    60    50    48   ar
    61    16    15    1
    62    51    49   ar
    63    15    12    1
    64    15    17    1
    65    12    13    1
    66    12    11    1
    67    13    18   am
    68    10     9    2
    69    48    49   ar
    70    48    47    1
    71    66    63    1
    72    47    44    1
    73    11     9   am
    74     9     8    1
    75    18    19    1
    76    19    20    1
    77    63    62    1
    78    63    64    1
    79     4     3    2
    80    62    57   am
    81    21    20    2
    82    20    22   am
    83     8     7    1
    84    41    42    1
    85    41    38    1
    86    44    45    1
    87    44    43    1
    88    46    45    2
    89    65    64    2
    90    57    58    2
    91    57    56    1
    92    45    55   am
    93    64    71   am
    94    40    39    2
    95    39    38    1
    96    55    56    1
    97    22    23    1
    98     3     7   am
    99     3     2    1
   100    56    59    1
   101    38    37    1
   102     1     2    1
   103    71    72    1
   104    23    24    1
   105    23    26    1
   106    27    26    1
   107    27    28    1
   108     2     5    1
   109    37    33   am
   110    59    60    1
   111    59    61    1
   112    24    25    2
   113    24    31   am
   114    72    73    1
   115    72    75    1
   116    81    82    1
   117    81    78    1
   118     5     6    1
   119    30    29    1
   120    28    29    1
   121    82    83   ar
   122    82    84   ar
   123    83    85   ar
   124    31    32    1
   125    73    74    2
   126    73    77   am
   127    33    34    2
   128    33    32    1
   129    84    86   ar
   130    85    87   ar
   131    77    78    1
   132    86    87   ar
   133    87    88    1
   134    75    76    1
   135    78    79    1
   136    32    35    1
   137    35    36    1
   138   133   132    2
   139   131   132    1
   140   131   130    1
   141    79    80    2
   142    79    89   am
   143   132   134   am
   144   142   140   am
   145   130   127   am
   146    89    90    1
   147   116   115   ar
   148   139   140    1
   149   139   138    1
   150   134   135    1
   151   102   101    1
   152   135   138    1
   153   135   136    1
   154   140   141    2
   155   115   117   ar
   156   115   114    1
   157   121   120    2
   158    92    91    2
   159   123   122    1
   160    91    90    1
   161    91    97   am
   162   127   128    2
   163   127   126    1
   164    90    93    1
   165    97    98    1
   166    98   101    1
   167    98    99    1
   168   114   111    1
   169   136   137    2
   170   111   112    1
   171   111   110    1
   172   108   107    1
   173   118   112   am
   174   118   119    1
   175   120   119    1
   176   120   125   am
   177   103    99   am
   178   103   104    1
   179   126   125    1
   180   126   129    1
   181   122   119    1
   182   122   124    1
   183    99   100    2
   184   112   113    2
   185    93    94    1
   186    93    95    1
   187   107   104    1
   188   107   109    1
   189    94    96    1
   190   104   105    1
   191   106   105    2
