@<TRIPOS>MOLECULE
tmp/3tkmA00.pdb
 239 229 0 0 0
SMALL
GASTEIGER

@<TRIPOS>ATOM
      1  N         14.2520   -4.6730   39.0130 N.3    47  ILE47      -0.1245
      2  CA        13.0980   -3.9900   39.5770 C.3    47  ILE47       0.1561
      3  C         11.8490   -4.7770   39.1970 C.2    47  ILE47       0.2260
      4  O         11.4480   -4.7970   38.0330 O.2    47  ILE47      -0.2867
      5  CB        12.9950   -2.5450   39.0510 C.3    47  ILE47       0.0252
      6  CG1       14.3000   -1.7890   39.3170 C.3    47  ILE47       0.0019
      7  CG2       11.8140   -1.8180   39.6840 C.3    47  ILE47       0.0019
      8  CD1       14.3520   -0.4200   38.6830 C.3    47  ILE47       0.0001
      9  N         11.8650   -1.2380   43.4630 N.3    53  LEU53      -0.1245
     10  CA        11.8090    0.0780   42.8320 C.3    53  LEU53       0.1561
     11  C         12.3300    1.1320   43.8030 C.2    53  LEU53       0.2260
     12  O         13.1640    1.9680   43.4470 O.2    53  LEU53      -0.2867
     13  CB        10.3840    0.4270   42.3950 C.3    53  LEU53       0.0270
     14  CG        10.1800    1.8630   41.8960 C.3    53  LEU53       0.0019
     15  CD1       11.0940    2.1740   40.7180 C.3    53  LEU53       0.0001
     16  CD2        8.7280    2.0980   41.5160 C.3    53  LEU53       0.0001
     17  N         21.1330    7.0280   38.3270 N.3    62  TRP62      -0.1241
     18  CA        20.2860    7.5310   37.2550 C.3    62  TRP62       0.1605
     19  C         20.8900    8.7840   36.6290 C.2    62  TRP62       0.2264
     20  O         20.6110    9.1080   35.4740 O.2    62  TRP62      -0.2867
     21  CB        18.8790    7.8310   37.7760 C.3    62  TRP62       0.0550
     22  CG        18.1940    6.6630   38.4340 C.ar   62  TRP62       0.0003
     23  CD1       18.2870    6.2890   39.7440 C.ar   62  TRP62       0.0946
     24  CD2       17.2940    5.7330   37.8150 C.ar   62  TRP62       0.0152
     25  NE1       17.5090    5.1790   39.9780 N.ar   62  TRP62      -0.2442
     26  CE2       16.8870    4.8200   38.8100 C.ar   62  TRP62       0.0810
     27  CE3       16.7940    5.5830   36.5180 C.ar   62  TRP62       0.0012
     28  CZ2       16.0060    3.7710   38.5480 C.ar   62  TRP62       0.0191
     29  CZ3       15.9190    4.5390   36.2590 C.ar   62  TRP62       0.0001
     30  CH2       15.5340    3.6490   37.2690 C.ar   62  TRP62       0.0015
     31  N          5.1620    8.0700   39.2310 N.3    73  HIS73      -0.1226
     32  CA         6.6160    8.1310   39.2860 C.3    73  HIS73       0.1752
     33  C          7.2390    7.4010   38.0950 C.2    73  HIS73       0.2596
     34  O          8.1470    7.9140   37.4450 O.2    73  HIS73      -0.2718
     35  CB         7.1230    7.5390   40.6040 C.3    73  HIS73       0.0759
     36  CG         8.6140    7.4420   40.6870 C.ar   73  HIS73       0.0818
     37  ND1        9.4180    8.5310   40.9460 N.ar   73  HIS73      -0.2268
     38  CD2        9.4470    6.3840   40.5500 C.ar   73  HIS73       0.1154
     39  CE1       10.6820    8.1490   40.9600 C.ar   73  HIS73       0.1986
     40  NE2       10.7270    6.8500   40.7230 N.ar   73  HIS73      -0.2212
     41  N          6.7460    6.2020   37.8100 N.am   74  VAL74      -0.1966
     42  CA         7.2350    5.4360   36.6690 C.3    74  VAL74       0.1727
     43  C          6.9510    6.1750   35.3610 C.2    74  VAL74       0.2616
     44  O          7.7780    6.1890   34.4480 O.2    74  VAL74      -0.2715
     45  CB         6.6170    4.0230   36.6370 C.3    74  VAL74       0.0290
     46  CG1        6.8700    3.3530   35.2950 C.3    74  VAL74       0.0023
     47  CG2        7.1730    3.1850   37.7720 C.3    74  VAL74       0.0023
     48  N          5.7780    6.7970   35.2890 N.am   75  PHE75      -0.1974
     49  CA         5.3860    7.6080   34.1420 C.3    75  PHE75       0.1639
     50  C          6.4150    8.7050   33.8790 C.2    75  PHE75       0.2290
     51  O          6.7560    8.9800   32.7280 O.2    75  PHE75      -0.2864
     52  CB         4.0030    8.2210   34.3890 C.3    75  PHE75       0.0560
     53  CG         3.4460    8.9790   33.2150 C.ar   75  PHE75      -0.0200
     54  CD1        3.1060    8.3230   32.0450 C.ar   75  PHE75      -0.0042
     55  CD2        3.2350   10.3460   33.2950 C.ar   75  PHE75      -0.0042
     56  CE1        2.5880    9.0210   30.9650 C.ar   75  PHE75      -0.0003
     57  CE2        2.7130   11.0510   32.2190 C.ar   75  PHE75      -0.0003
     58  CZ         2.3900   10.3880   31.0530 C.ar   75  PHE75      -0.0000
     59  N          9.6150    8.6790   34.8220 N.3    77  ARG77      -0.1231
     60  CA        10.8810    8.0940   34.3980 C.3    77  ARG77       0.1694
     61  C         10.8260    7.6930   32.9270 C.2    77  ARG77       0.2592
     62  O         11.8500    7.6730   32.2420 O.2    77  ARG77      -0.2718
     63  CB        11.2700    6.9110   35.2850 C.3    77  ARG77       0.0321
     64  CG        11.8050    7.3220   36.6510 C.3    77  ARG77       0.0489
     65  CD        13.1090    6.6090   36.9670 C.3    77  ARG77       0.2205
     66  NE        13.7500    7.1180   38.1780 N.pl3  77  ARG77      -0.0865
     67  CZ        14.6910    8.0570   38.1930 C.cat  77  ARG77       0.5346
     68  NH1       15.1080    8.6040   37.0590 N.pl3  77  ARG77       0.1354
     69  NH2       15.2190    8.4500   39.3440 N.pl3  77  ARG77       0.1354
     70  N          9.6250    7.3870   32.4440 N.am   78  CYS78      -0.1956
     71  CA         9.4270    7.1120   31.0250 C.3    78  CYS78       0.1843
     72  C          9.7060    8.3670   30.2180 C.2    78  CYS78       0.2625
     73  O         10.3880    8.3200   29.1970 O.2    78  CYS78      -0.2714
     74  CB         8.0000    6.6370   30.7530 C.3    78  CYS78       0.0997
     75  SG         7.6340    4.9660   31.3230 S.3    78  CYS78      -0.0797
     76  N          9.1700    9.4890   30.6900 N.am   79  GLN79      -0.1977
     77  CA         9.3550   10.7750   30.0360 C.3    79  GLN79       0.1601
     78  C         10.8240   11.1760   29.9870 C.2    79  GLN79       0.2287
     79  O         11.3250   11.5920   28.9440 O.2    79  GLN79      -0.2864
     80  CB         8.5640   11.8610   30.7620 C.3    79  GLN79       0.0394
     81  CG         7.0650   11.6540   30.7790 C.3    79  GLN79       0.0908
     82  CD         6.3320   12.8740   31.3000 C.2    79  GLN79       0.2608
     83  OE1        6.6550   14.0060   30.9360 O.2    79  GLN79      -0.2717
     84  NE2        5.3400   12.6520   32.1540 N.am   79  GLN79      -0.0878
     85  N         13.4800    9.2850   30.1400 N.3    81  THR81      -0.1203
     86  CA        14.1590    8.4180   29.1860 C.3    81  THR81       0.1994
     87  C         13.8940    8.8980   27.7660 C.2    81  THR81       0.2618
     88  O         14.8020    8.9600   26.9410 O.2    81  THR81      -0.2717
     89  CB        13.6840    6.9640   29.3060 C.3    81  THR81       0.1784
     90  OG1       13.9260    6.4870   30.6350 O.3    81  THR81      -0.2211
     91  CG2       14.4260    6.0860   28.3180 C.3    81  THR81       0.0376
     92  N         12.6410    9.2450   27.4970 N.am   82  THR82      -0.1952
     93  CA        12.2230    9.6860   26.1740 C.3    82  THR82       0.1897
     94  C         12.9560   10.9530   25.7500 C.2    82  THR82       0.2313
     95  O         13.4240   11.0600   24.6170 O.2    82  THR82      -0.2863
     96  CB        10.7120    9.9480   26.1370 C.3    82  THR82       0.1794
     97  OG1       10.0140    8.7200   26.3680 O.3    82  THR82      -0.2208
     98  CG2       10.3000   10.5190   24.7910 C.3    82  THR82       0.0378
     99  N          9.1270    9.5440   17.9460 N.3   116  HIS116     -0.1241
    100  CA         8.4430    8.4620   18.6600 C.3   116  HIS116      0.1621
    101  C          8.4960    7.1250   17.9270 C.2   116  HIS116      0.2264
    102  O          8.7370    6.0870   18.5410 O.2   116  HIS116     -0.2867
    103  CB         7.0020    8.8430   19.0110 C.3   116  HIS116      0.0745
    104  CG         6.9000    9.7500   20.1960 C.ar  116  HIS116      0.0817
    105  ND1        6.8320   11.1210   20.0780 N.ar  116  HIS116     -0.2268
    106  CD2        6.8840    9.4840   21.5230 C.ar  116  HIS116      0.1154
    107  CE1        6.7650   11.6600   21.2820 C.ar  116  HIS116      0.1986
    108  NE2        6.7970   10.6890   22.1760 N.ar  116  HIS116     -0.2212
    109  N         11.8690    5.9690   18.5310 N.3   119  ILE119     -0.1231
    110  CA        12.0500    5.5320   19.9100 C.3   119  ILE119      0.1692
    111  C         11.5280    4.1160   20.1240 C.2   119  ILE119      0.2592
    112  O         12.1770    3.2960   20.7750 O.2   119  ILE119     -0.2718
    113  CB        11.3660    6.4910   20.9030 C.3   119  ILE119      0.0266
    114  CG1       12.1740    7.7890   21.0180 C.3   119  ILE119      0.0019
    115  CG2       11.2020    5.8270   22.2680 C.3   119  ILE119      0.0020
    116  CD1       11.4740    8.8830   21.8040 C.3   119  ILE119      0.0001
    117  N         10.3540    3.8320   19.5700 N.am  120  PHE120     -0.1976
    118  CA         9.7430    2.5230   19.7380 C.3   120  PHE120      0.1639
    119  C         10.5180    1.4350   18.9940 C.2   120  PHE120      0.2290
    120  O         10.5870    0.2950   19.4520 O.2   120  PHE120     -0.2864
    121  CB         8.2690    2.5510   19.3240 C.3   120  PHE120      0.0560
    122  CG         7.4240    3.4600   20.1730 C.ar  120  PHE120     -0.0200
    123  CD1        7.7140    3.6420   21.5160 C.ar  120  PHE120     -0.0042
    124  CD2        6.3380    4.1260   19.6350 C.ar  120  PHE120     -0.0042
    125  CE1        6.9400    4.4780   22.3050 C.ar  120  PHE120     -0.0003
    126  CE2        5.5580    4.9610   20.4180 C.ar  120  PHE120     -0.0003
    127  CZ         5.8610    5.1390   21.7550 C.ar  120  PHE120     -0.0000
    128  N         13.7260    0.9400   21.0360 N.3   123  LEU123     -0.1245
    129  CA        13.3420    0.3480   22.3110 C.3   123  LEU123      0.1561
    130  C         13.5020   -1.1700   22.2720 C.2   123  LEU123      0.2260
    131  O         13.9050   -1.7890   23.2570 O.2   123  LEU123     -0.2867
    132  CB        11.8960    0.7160   22.6570 C.3   123  LEU123      0.0270
    133  CG        11.3810    0.2510   24.0200 C.3   123  LEU123      0.0019
    134  CD1       12.1350    0.9340   25.1530 C.3   123  LEU123      0.0001
    135  CD2        9.8820    0.5060   24.1330 C.3   123  LEU123      0.0001
    136  N         12.7060   -4.7800   30.3480 N.3   132  LEU132     -0.1245
    137  CA        13.6280   -3.9170   29.6160 C.3   132  LEU132      0.1561
    138  C         14.7010   -3.3120   30.5200 C.2   132  LEU132      0.2260
    139  O         14.5470   -3.2600   31.7430 O.2   132  LEU132     -0.2867
    140  CB        12.8700   -2.7910   28.9120 C.3   132  LEU132      0.0270
    141  CG        12.3270   -1.7050   29.8360 C.3   132  LEU132      0.0019
    142  CD1       12.4650   -0.3330   29.1880 C.3   132  LEU132      0.0001
    143  CD2       10.8860   -1.9940   30.2090 C.3   132  LEU132      0.0001
    144  N         17.0490   -0.3630   32.1640 N.3   134  VAL134     -0.1245
    145  CA        16.9540    1.0370   32.5680 C.3   134  VAL134      0.1561
    146  C         18.2730    1.4920   33.1780 C.2   134  VAL134      0.2260
    147  O         19.2080    0.7020   33.3090 O.2   134  VAL134     -0.2867
    148  CB        15.8250    1.2650   33.5900 C.3   134  VAL134      0.0252
    149  CG1       14.4700    0.9650   32.9670 C.3   134  VAL134      0.0019
    150  CG2       16.0570    0.4200   34.8360 C.3   134  VAL134      0.0019
    151  N         13.8340   -3.5740   34.5890 N.3   141  VAL141     -0.1245
    152  CA        12.4640   -3.5650   35.0890 C.3   141  VAL141      0.1561
    153  C         11.6320   -4.6350   34.3910 C.2   141  VAL141      0.2260
    154  O         11.6440   -4.7360   33.1680 O.2   141  VAL141     -0.2867
    155  CB        11.7980   -2.1970   34.8730 C.3   141  VAL141      0.0252
    156  CG1       10.3910   -2.1910   35.4570 C.3   141  VAL141      0.0019
    157  CG2       12.6410   -1.1020   35.4960 C.3   141  VAL141      0.0019
    158  N          5.9720   -6.1840   36.3770 N.3   145  PHE145     -0.1227
    159  CA         5.8650   -5.0190   37.2440 C.3   145  PHE145      0.1736
    160  C          5.1390   -3.8710   36.5420 C.2   145  PHE145      0.2595
    161  O          4.3200   -3.1850   37.1510 O.2   145  PHE145     -0.2718
    162  CB         7.2390   -4.5620   37.7390 C.3   145  PHE145      0.0547
    163  CG         7.1880   -3.3250   38.5890 C.ar  145  PHE145     -0.0202
    164  CD1        6.6170   -3.3590   39.8510 C.ar  145  PHE145     -0.0042
    165  CD2        7.7000   -2.1270   38.1220 C.ar  145  PHE145     -0.0042
    166  CE1        6.5640   -2.2260   40.6330 C.ar  145  PHE145     -0.0003
    167  CE2        7.6510   -0.9870   38.9010 C.ar  145  PHE145     -0.0003
    168  CZ         7.0830   -1.0370   40.1600 C.ar  145  PHE145     -0.0000
    169  N          5.4280   -3.6700   35.2590 N.am  146  LEU146     -0.1980
    170  CA         4.7710   -2.6030   34.5020 C.3   146  LEU146      0.1596
    171  C          3.2850   -2.9060   34.2800 C.2   146  LEU146      0.2287
    172  O          2.4760   -1.9920   34.1390 O.2   146  LEU146     -0.2864
    173  CB         5.4950   -2.3460   33.1760 C.3   146  LEU146      0.0297
    174  CG         6.9600   -1.9270   33.3570 C.3   146  LEU146      0.0022
    175  CD1        7.7040   -1.8800   32.0280 C.3   146  LEU146      0.0001
    176  CD2        7.0530   -0.5870   34.0830 C.3   146  LEU146      0.0001
    177  N         -0.0020    1.6040   28.8130 N.3   156  ILE156     -0.1231
    178  CA         0.9160    2.2990   27.9150 C.3   156  ILE156      0.1692
    179  C          2.0520    1.4210   27.3940 C.2   156  ILE156      0.2591
    180  O          2.3500    1.4230   26.1990 O.2   156  ILE156     -0.2718
    181  CB         1.5130    3.5520   28.5860 C.3   156  ILE156      0.0266
    182  CG1        0.6200    4.7640   28.3250 C.3   156  ILE156      0.0019
    183  CG2        2.9080    3.8280   28.0540 C.3   156  ILE156      0.0020
    184  CD1        0.6070    5.1990   26.8760 C.3   156  ILE156      0.0001
    185  N          2.6850    0.6720   28.2920 N.am  157  ILE157     -0.1980
    186  CA         3.9090   -0.0470   27.9470 C.3   157  ILE157      0.1595
    187  C          3.7080   -1.4100   27.2940 C.2   157  ILE157      0.2287
    188  O          4.4990   -1.8090   26.4410 O.2   157  ILE157     -0.2864
    189  CB         4.8440   -0.2250   29.1690 C.3   157  ILE157      0.0276
    190  CG1        4.7950    1.0000   30.0860 C.3   157  ILE157      0.0022
    191  CG2        6.2640   -0.5160   28.7070 C.3   157  ILE157      0.0022
    192  CD1        3.6570    0.9640   31.0900 C.3   157  ILE157      0.0001
    193  N          4.2120   -1.9910   23.5750 N.3   160  LYS160     -0.1245
    194  CA         5.5810   -1.8630   23.0790 C.3   160  LYS160      0.1561
    195  C          6.3490   -3.1740   23.2060 C.2   160  LYS160      0.2260
    196  O          7.2070   -3.4810   22.3790 O.2   160  LYS160     -0.2867
    197  CB         6.3220   -0.7370   23.8070 C.3   160  LYS160      0.0271
    198  CG         5.9460    0.6660   23.3410 C.3   160  LYS160      0.0035
    199  CD         4.4990    1.0060   23.6730 C.3   160  LYS160      0.0206
    200  CE         4.1660    2.4360   23.2820 C.3   160  LYS160      0.1093
    201  NZ         2.7880    2.8140   23.6800 N.3   160  LYS160     -0.1314
    202  N         -0.4460    5.2640   20.8630 N.3   242  HIS242     -0.1241
    203  CA         0.2680    5.7780   22.0230 C.3   242  HIS242      0.1621
    204  C         -0.1380    7.2250   22.3080 C.2   242  HIS242      0.2264
    205  O         -0.3750    7.5990   23.4570 O.2   242  HIS242     -0.2867
    206  CB         1.7780    5.6790   21.8060 C.3   242  HIS242      0.0745
    207  CG         2.5870    6.2780   22.9130 C.ar  242  HIS242      0.0817
    208  ND1        2.8320    5.6180   24.0970 N.ar  242  HIS242     -0.2268
    209  CD2        3.2050    7.4780   23.0170 C.ar  242  HIS242      0.1154
    210  CE1        3.5690    6.3840   24.8820 C.ar  242  HIS242      0.1986
    211  NE2        3.8080    7.5190   24.2510 N.ar  242  HIS242     -0.2212
    212  N         -1.7930    8.9290   25.6780 N.3   246  MET246     -0.1245
    213  CA        -1.1890   10.0940   26.3150 C.3   246  MET246      0.1570
    214  C         -2.2030   11.2230   26.4660 C.2   246  MET246      0.2261
    215  O         -2.2320   11.9060   27.4890 O.2   246  MET246     -0.2867
    216  CB         0.0330   10.5770   25.5270 C.3   246  MET246      0.0387
    217  CG         1.1870    9.5860   25.5120 C.3   246  MET246      0.0595
    218  SD         1.8880    9.3040   27.1510 S.3   246  MET246     -0.1393
    219  CE         2.6940   10.8760   27.4560 C.3   246  MET246      0.0692
    220  N          8.1780   17.3070   25.4790 N.3   262  LEU262     -0.1245
    221  CA         7.2030   16.3370   24.9960 C.3   262  LEU262      0.1561
    222  C          5.8550   17.0050   24.7320 C.2   262  LEU262      0.2260
    223  O          5.0940   16.5640   23.8710 O.2   262  LEU262     -0.2867
    224  CB         7.0490   15.1890   25.9960 C.3   262  LEU262      0.0270
    225  CG         8.3570   14.5380   26.4560 C.3   262  LEU262      0.0019
    226  CD1        8.0760   13.3300   27.3360 C.3   262  LEU262      0.0001
    227  CD2        9.2190   14.1480   25.2690 C.3   262  LEU262      0.0001
    228  N          3.6780   16.6910   21.1080 N.3   266  TYR266     -0.1241
    229  CA         2.2770   16.2860   21.0860 C.3   266  TYR266      0.1605
    230  C          1.3430   17.4760   20.8870 C.2   266  TYR266      0.2264
    231  O          0.1340   17.2980   20.7380 O.2   266  TYR266     -0.2867
    232  CB         1.8990   15.5720   22.3870 C.3   266  TYR266      0.0534
    233  CG         2.4400   14.1660   22.5220 C.ar  266  TYR266     -0.0201
    234  CD1        3.4400   13.8700   23.4390 C.ar  266  TYR266     -0.0009
    235  CD2        1.9440   13.1340   21.7380 C.ar  266  TYR266     -0.0009
    236  CE1        3.9310   12.5860   23.5700 C.ar  266  TYR266      0.0417
    237  CE2        2.4300   11.8450   21.8600 C.ar  266  TYR266      0.0417
    238  CZ         3.4220   11.5770   22.7770 C.ar  266  TYR266      0.1957
    239  OH         3.9100   10.2960   22.8960 O.3   266  TYR266     -0.2866
@<TRIPOS>BOND
     1   101   102    2
     2   101   100    1
     3    99   100    1
     4   109   110    1
     5   100   103    1
     6   119   120    2
     7   119   118    1
     8   103   104    1
     9   121   118    1
    10   121   122    1
    11   117   118    1
    12   117   111   am
    13   124   122   ar
    14   124   126   ar
    15   110   111    1
    16   110   113    1
    17   105   104   ar
    18   105   107   ar
    19   111   112    2
    20   122   123   ar
    21   104   106   ar
    22   126   127   ar
    23   231   230    2
    24   202   203    1
    25   230   229    1
    26   113   114    1
    27   113   115    1
    28   114   116    1
    29   128   129    1
    30   229   228    1
    31   229   232    1
    32   107   108   ar
    33   123   125   ar
    34   106   108   ar
    35   235   237   ar
    36   235   233   ar
    37   127   125   ar
    38   206   203    1
    39   206   207    1
    40   237   238   ar
    41   203   204    1
    42   130   129    1
    43   130   131    2
    44   204   205    2
    45   129   132    1
    46   196   195    2
    47   232   233    1
    48   233   234   ar
    49   132   133    1
    50   238   239    1
    51   238   236   ar
    52   207   209   ar
    53   207   208   ar
    54   209   211   ar
    55   194   195    1
    56   194   193    1
    57   194   197    1
    58   200   199    1
    59   200   201    1
    60   198   199    1
    61   198   197    1
    62   234   236   ar
    63   223   222    2
    64   133   135    1
    65   133   134    1
    66   208   210   ar
    67   211   210   ar
    68    95    94    2
    69   222   221    1
    70    98    96    1
    71   221   220    1
    72   221   224    1
    73   227   225    1
    74   217   216    1
    75   217   218    1
    76   216   213    1
    77   212   213    1
    78    94    93    1
    79   224   225    1
    80    96    93    1
    81    96    97    1
    82    93    92    1
    83   180   179    2
    84   213   214    1
    85   188   187    2
    86   225   226    1
    87   214   215    2
    88   184   182    1
    89    88    87    2
    90   218   219    1
    91   187   186    1
    92   179   178    1
    93   179   185   am
    94    92    87   am
    95    87    86    1
    96   178   181    1
    97   178   177    1
    98   186   185    1
    99   186   189    1
   100   183   181    1
   101    91    89    1
   102   182   181    1
   103   191   189    1
   104   140   137    1
   105   140   141    1
   106    79    78    2
   107   189   190    1
   108    86    89    1
   109    86    85    1
   110   142   141    1
   111    73    72    2
   112    89    90    1
   113   137   136    1
   114   137   138    1
   115   141   143    1
   116    78    77    1
   117    77    76    1
   118    77    80    1
   119   190   192    1
   120    72    76   am
   121    72    71    1
   122   138   139    2
   123    74    71    1
   124    74    75    1
   125    80    81    1
   126    81    82    1
   127    83    82    2
   128    56    58   ar
   129    56    54   ar
   130    71    70    1
   131    58    57   ar
   132    82    84   am
   133   175   174    1
   134    54    53   ar
   135   144   145    1
   136    57    55   ar
   137    62    61    2
   138    70    61   am
   139   145   146    1
   140   145   148    1
   141    51    50    2
   142    61    60    1
   143   149   148    1
   144   154   153    2
   145   173   174    1
   146   173   170    1
   147   146   147    2
   148    53    55   ar
   149    53    52    1
   150   174   176    1
   151   148   150    1
   152    50    49    1
   153   172   171    2
   154    49    52    1
   155    49    48    1
   156   171   170    1
   157   153   152    1
   158    60    59    1
   159    60    63    1
   160    44    43    2
   161   170   169    1
   162   151   152    1
   163   155   152    1
   164   155   156    1
   165   155   157    1
   166   169   160   am
   167    63    64    1
   168    48    43   am
   169    46    45    1
   170    43    42    1
   171    20    19    2
   172    29    27   ar
   173    29    30   ar
   174   158   159    1
   175    27    24   ar
   176   160   161    2
   177   160   159    1
   178    19    18    1
   179    45    42    1
   180    45    47    1
   181    64    65    1
   182    42    41    1
   183    65    66    1
   184    68    67    1
   185   159   162    1
   186    18    21    1
   187    18    17    1
   188    30    28   ar
   189    34    33    2
   190   162   163    1
   191    21    22    1
   192    41    33   am
   193    24    22   ar
   194    24    26   ar
   195     4     3    2
   196    33    32    1
   197   165   163   ar
   198   165   167   ar
   199    66    67    2
   200    67    69    1
   201    22    23   ar
   202    28    26   ar
   203   163   164   ar
   204     8     6    1
   205    26    25   ar
   206   167   168   ar
   207     1     2    1
   208     5     6    1
   209     5     2    1
   210     5     7    1
   211     3     2    1
   212    31    32    1
   213    32    35    1
   214    23    25   ar
   215   164   166   ar
   216   168   166   ar
   217    38    36   ar
   218    38    40   ar
   219    35    36    1
   220    36    37   ar
   221    15    14    1
   222    40    39   ar
   223    37    39   ar
   224    16    14    1
   225    14    13    1
   226    13    10    1
   227    10     9    1
   228    10    11    1
   229    12    11    2
