@<TRIPOS>MOLECULE
tmp/3tkyC00.pdb
 155 151 0 0 0
SMALL
GASTEIGER

@<TRIPOS>ATOM
      1  N         -7.2190  -45.7960   30.9830 N.3   115  PHE115     -0.1241
      2  CA        -8.1830  -45.1190   30.1330 C.3   115  PHE115      0.1605
      3  C         -7.6010  -44.8880   28.7160 C.2   115  PHE115      0.2264
      4  O         -8.2920  -45.0510   27.6880 O.2   115  PHE115     -0.2867
      5  CB        -8.7100  -43.8150   30.7590 C.3   115  PHE115      0.0534
      6  CG        -9.7680  -43.1360   29.8900 C.ar  115  PHE115     -0.0203
      7  CD1       -9.4180  -42.0980   28.9910 C.ar  115  PHE115     -0.0042
      8  CD2      -11.1050  -43.5900   29.9020 C.ar  115  PHE115     -0.0042
      9  CE1      -10.3950  -41.4940   28.1310 C.ar  115  PHE115     -0.0003
     10  CE2      -12.0910  -42.9830   29.0480 C.ar  115  PHE115     -0.0003
     11  CZ       -11.7300  -41.9290   28.1650 C.ar  115  PHE115     -0.0000
     12  N         -7.4510  -48.1270   26.8750 N.3   118  LEU118     -0.1231
     13  CA        -8.8070  -48.3220   26.3750 C.3   118  LEU118      0.1693
     14  C         -9.0390  -47.5170   25.1130 C.2   118  LEU118      0.2591
     15  O         -9.4070  -48.0870   24.0760 O.2   118  LEU118     -0.2718
     16  CB        -9.8510  -47.9280   27.4240 C.3   118  LEU118      0.0284
     17  CG       -11.3370  -47.9600   27.0290 C.3   118  LEU118      0.0019
     18  CD1      -11.8020  -49.2450   26.3140 C.3   118  LEU118      0.0001
     19  CD2      -12.2390  -47.6990   28.2880 C.3   118  LEU118      0.0001
     20  N         -8.7940  -46.2030   25.1810 N.am  119  ALA119     -0.1980
     21  CA        -9.0910  -45.3400   24.0310 C.3   119  ALA119      0.1597
     22  C         -8.2510  -45.6580   22.7800 C.2   119  ALA119      0.2287
     23  O         -8.6430  -45.3430   21.6490 O.2   119  ALA119     -0.2864
     24  CB        -9.0060  -43.8850   24.4130 C.3   119  ALA119      0.0319
     25  N        -11.2300  -50.3980   19.2790 N.3   124  LEU124     -0.1245
     26  CA       -11.9180  -49.1170   19.1370 C.3   124  LEU124      0.1561
     27  C        -11.4720  -48.2550   17.9770 C.2   124  LEU124      0.2260
     28  O        -12.0870  -47.2010   17.7140 O.2   124  LEU124     -0.2867
     29  CB       -11.8850  -48.3290   20.4430 C.3   124  LEU124      0.0270
     30  CG       -12.6930  -48.9740   21.5690 C.3   124  LEU124      0.0019
     31  CD1      -12.6460  -48.0500   22.7640 C.3   124  LEU124      0.0001
     32  CD2      -14.1690  -49.2150   21.1130 C.3   124  LEU124      0.0001
     33  N        -21.7630  -52.0610   21.4920 N.3   150  ILE150     -0.1231
     34  CA       -20.5200  -52.2130   22.2380 C.3   150  ILE150      0.1692
     35  C        -20.6640  -53.0000   23.4780 C.2   150  ILE150      0.2592
     36  O        -19.7670  -53.7540   23.8430 O.2   150  ILE150     -0.2718
     37  CB       -19.9780  -50.8810   22.7490 C.3   150  ILE150      0.0266
     38  CG1      -21.1170  -49.8850   22.9240 C.3   150  ILE150      0.0019
     39  CG2      -18.8070  -50.4100   21.8910 C.3   150  ILE150      0.0020
     40  CD1      -20.7110  -48.6570   23.6180 C.3   150  ILE150      0.0001
     41  N        -21.7700  -52.7560   24.1690 N.am  151  PHE151     -0.1976
     42  CA       -22.0000  -53.3430   25.4710 C.3   151  PHE151      0.1639
     43  C        -22.2460  -54.8310   25.3390 C.2   151  PHE151      0.2290
     44  O        -21.7070  -55.5960   26.1640 O.2   151  PHE151     -0.2864
     45  CB       -23.1350  -52.6410   26.1740 C.3   151  PHE151      0.0560
     46  CG       -22.8130  -51.2170   26.5140 C.ar  151  PHE151     -0.0200
     47  CD1      -23.5830  -50.1590   26.0070 C.ar  151  PHE151     -0.0042
     48  CD2      -21.7100  -50.9220   27.2930 C.ar  151  PHE151     -0.0042
     49  CE1      -23.2720  -48.8310   26.3130 C.ar  151  PHE151     -0.0003
     50  CE2      -21.3930  -49.6110   27.5720 C.ar  151  PHE151     -0.0003
     51  CZ       -22.2040  -48.5620   27.0930 C.ar  151  PHE151     -0.0000
     52  N        -18.8390  -56.2510   24.4920 N.3   154  HIS154     -0.1241
     53  CA       -18.0530  -56.3950   25.7060 C.3   154  HIS154      0.1621
     54  C        -18.4110  -57.6910   26.4050 C.2   154  HIS154      0.2264
     55  O        -17.5670  -58.2790   27.0880 O.2   154  HIS154     -0.2867
     56  CB       -18.3650  -55.2310   26.6330 C.3   154  HIS154      0.0745
     57  CG       -17.6800  -53.9630   26.2530 C.ar  154  HIS154      0.0817
     58  ND1      -18.0180  -52.7390   26.8000 N.ar  154  HIS154     -0.2268
     59  CD2      -16.6570  -53.7270   25.4050 C.ar  154  HIS154      0.1154
     60  CE1      -17.2440  -51.8060   26.2890 C.ar  154  HIS154      0.1986
     61  NE2      -16.4020  -52.3830   25.4520 N.ar  154  HIS154     -0.2212
     62  N        -11.9400  -52.0710   29.0820 N.3   164  PHE164     -0.1241
     63  CA       -12.9730  -51.0750   29.2300 C.3   164  PHE164      0.1605
     64  C        -13.3390  -50.8110   30.6850 C.2   164  PHE164      0.2264
     65  O        -13.4540  -49.6400   31.0810 O.2   164  PHE164     -0.2867
     66  CB       -14.2220  -51.4390   28.3990 C.3   164  PHE164      0.0534
     67  CG       -15.2920  -50.4010   28.4540 C.ar  164  PHE164     -0.0203
     68  CD1      -15.3500  -49.3960   27.4940 C.ar  164  PHE164     -0.0042
     69  CD2      -16.2170  -50.4010   29.4820 C.ar  164  PHE164     -0.0042
     70  CE1      -16.3430  -48.4000   27.5310 C.ar  164  PHE164     -0.0003
     71  CE2      -17.1950  -49.4230   29.5360 C.ar  164  PHE164     -0.0003
     72  CZ       -17.2610  -48.4150   28.5480 C.ar  164  PHE164     -0.0000
     73  N        -12.5780  -47.2790   32.9070 N.3   168  MET168     -0.1245
     74  CA       -13.6690  -46.4730   33.4630 C.3   168  MET168      0.1570
     75  C        -13.3770  -46.3170   34.9380 C.2   168  MET168      0.2261
     76  O        -13.3700  -45.2290   35.4860 O.2   168  MET168     -0.2867
     77  CB       -15.0500  -47.1290   33.2470 C.3   168  MET168      0.0387
     78  CG       -15.5330  -47.1910   31.7930 C.3   168  MET168      0.0595
     79  SD       -15.6820  -45.5610   30.9750 S.3   168  MET168     -0.1393
     80  CE       -16.5270  -44.7090   32.2610 C.3   168  MET168      0.0692
     81  N        -21.5990  -40.9160   33.5100 N.3   254  TRP254     -0.1241
     82  CA       -21.2490  -41.3130   32.1380 C.3   254  TRP254      0.1605
     83  C        -22.2150  -42.3390   31.5330 C.2   254  TRP254      0.2264
     84  O        -21.8190  -43.2310   30.8380 O.2   254  TRP254     -0.2867
     85  CB       -19.7600  -41.7210   32.0360 C.3   254  TRP254      0.0550
     86  CG       -18.8680  -40.6560   31.3840 C.ar  254  TRP254      0.0003
     87  CD1      -19.2260  -39.3790   31.0440 C.ar  254  TRP254      0.0946
     88  CD2      -17.4850  -40.7770   31.0320 C.ar  254  TRP254      0.0152
     89  NE1      -18.1730  -38.7100   30.4830 N.ar  254  TRP254     -0.2442
     90  CE2      -17.0850  -39.5440   30.4630 C.ar  254  TRP254      0.0810
     91  CE3      -16.5390  -41.7990   31.1440 C.ar  254  TRP254      0.0012
     92  CZ2      -15.7650  -39.3200   29.9870 C.ar  254  TRP254      0.0191
     93  CZ3      -15.2370  -41.5710   30.6730 C.ar  254  TRP254      0.0001
     94  CH2      -14.8690  -40.3480   30.1010 C.ar  254  TRP254      0.0015
     95  N        -24.6460  -40.1640   28.6260 N.3   257  HIS257     -0.1226
     96  CA       -23.7370  -39.6680   27.6000 C.3   257  HIS257      0.1752
     97  C        -23.3620  -40.7720   26.6160 C.2   257  HIS257      0.2596
     98  O        -22.3890  -40.6480   25.8710 O.2   257  HIS257     -0.2718
     99  CB       -22.4770  -39.0820   28.2380 C.3   257  HIS257      0.0759
    100  CG       -21.2200  -39.8080   27.8710 C.ar  257  HIS257      0.0818
    101  ND1      -20.9360  -41.0790   28.3180 N.ar  257  HIS257     -0.2268
    102  CD2      -20.1720  -39.4390   27.0970 C.ar  257  HIS257      0.1154
    103  CE1      -19.7680  -41.4640   27.8370 C.ar  257  HIS257      0.1986
    104  NE2      -19.2830  -40.4870   27.0920 N.ar  257  HIS257     -0.2212
    105  N        -24.1380  -41.8500   26.6200 N.am  258  ASP258     -0.1974
    106  CA       -23.8870  -42.9780   25.7300 C.3   258  ASP258      0.1709
    107  C        -25.1790  -43.4720   25.0870 C.2   258  ASP258      0.2293
    108  O        -25.2140  -44.5510   24.4940 O.2   258  ASP258     -0.2864
    109  CB       -23.2070  -44.1190   26.4890 C.3   258  ASP258      0.1436
    110  CG       -22.3530  -43.6250   27.6400 C.2   258  ASP258      0.3671
    111  OD1      -22.8060  -43.7200   28.8010 O.co2 258  ASP258     -0.2456
    112  OD2      -21.2300  -43.1430   27.3840 O.co2 258  ASP258     -0.2456
    113  N        -14.9850  -36.3700   23.1960 N.3   304  THR304     -0.1218
    114  CA       -15.8940  -37.3730   23.7110 C.3   304  THR304      0.1862
    115  C        -17.1840  -37.4930   22.8550 C.2   304  THR304      0.2287
    116  O        -17.6800  -38.6030   22.6280 O.2   304  THR304     -0.2866
    117  CB       -16.1670  -37.1620   25.2000 C.3   304  THR304      0.1770
    118  OG1      -14.9140  -36.9480   25.8800 O.3   304  THR304     -0.2211
    119  CG2      -16.8250  -38.3840   25.8100 C.3   304  THR304      0.0375
    120  N        -16.2100  -39.6110   20.0630 N.3   307  LEU307     -0.1231
    121  CA       -16.1760  -41.0270   20.4960 C.3   307  LEU307      0.1693
    122  C        -17.5900  -41.6360   20.4710 C.2   307  LEU307      0.2591
    123  O        -17.8600  -42.6640   19.8100 O.2   307  LEU307     -0.2718
    124  CB       -15.4940  -41.1750   21.8700 C.3   307  LEU307      0.0284
    125  CG       -13.9900  -40.8030   22.0640 C.3   307  LEU307      0.0019
    126  CD1      -13.4950  -40.9550   23.5090 C.3   307  LEU307      0.0001
    127  CD2      -13.0190  -41.5800   21.1970 C.3   307  LEU307      0.0001
    128  N        -18.5050  -40.9710   21.1490 N.am  308  MET308     -0.1979
    129  CA       -19.8810  -41.3910   21.1950 C.3   308  MET308      0.1605
    130  C        -20.5430  -41.6240   19.8330 C.2   308  MET308      0.2287
    131  O        -21.2260  -42.6310   19.6290 O.2   308  MET308     -0.2864
    132  CB       -20.6400  -40.3980   22.0610 C.3   308  MET308      0.0413
    133  CG       -20.1890  -40.4430   23.5120 C.3   308  MET308      0.0598
    134  SD       -20.2550  -41.8780   24.6390 S.3   308  MET308     -0.1393
    135  CE       -18.7860  -42.8930   24.3570 C.3   308  MET308      0.0692
    136  N        -19.1370  -44.9420   18.6260 N.3   311  TYR311     -0.1227
    137  CA       -19.1960  -46.2050   19.3960 C.3   311  TYR311      0.1736
    138  C        -20.5540  -46.5680   19.9490 C.2   311  TYR311      0.2595
    139  O        -20.8460  -47.7450   20.1500 O.2   311  TYR311     -0.2718
    140  CB       -18.1770  -46.2580   20.5690 C.3   311  TYR311      0.0548
    141  CG       -16.7390  -45.9400   20.2190 C.ar  311  TYR311     -0.0200
    142  CD1      -15.9230  -45.2470   21.1080 C.ar  311  TYR311     -0.0009
    143  CD2      -16.1880  -46.3110   18.9870 C.ar  311  TYR311     -0.0009
    144  CE1      -14.5890  -44.9320   20.7840 C.ar  311  TYR311      0.0417
    145  CE2      -14.8530  -46.0100   18.6660 C.ar  311  TYR311      0.0417
    146  CZ       -14.0680  -45.3190   19.5580 C.ar  311  TYR311      0.1957
    147  OH       -12.7750  -45.0060   19.2060 O.3   311  TYR311     -0.2866
    148  N        -21.3890  -45.5700   20.1930 N.am  312  ASN312     -0.1974
    149  CA       -22.5370  -45.7630   21.0650 C.3   312  ASN312      0.1688
    150  C        -23.8440  -45.6040   20.3310 C.2   312  ASN312      0.2292
    151  O        -23.8890  -44.9750   19.2570 O.2   312  ASN312     -0.2864
    152  CB       -22.4620  -44.8290   22.2820 C.3   312  ASN312      0.1181
    153  CG       -21.4530  -45.3070   23.3270 C.2   312  ASN312      0.2629
    154  OD1      -21.8220  -45.7270   24.4040 O.2   312  ASN312     -0.2716
    155  ND2      -20.1640  -45.2490   22.9920 N.am  312  ASN312     -0.0877
@<TRIPOS>BOND
     1    28    27    2
     2    27    26    1
     3   136   137    1
     4   145   143   ar
     5   145   146   ar
     6   143   141   ar
     7    26    25    1
     8    26    29    1
     9   147   146    1
    10   151   150    2
    11   137   138    1
    12   137   140    1
    13   146   144   ar
    14   131   130    2
    15   123   122    2
    16   130   129    1
    17   138   139    2
    18   138   148   am
    19   120   121    1
    20   148   149    1
    21   141   140    1
    22   141   142   ar
    23   150   149    1
    24    29    30    1
    25   122   121    1
    26   122   128   am
    27   121   124    1
    28   144   142   ar
    29   149   152    1
    30    32    30    1
    31   128   129    1
    32   129   132    1
    33   127   125    1
    34    33    34    1
    35    30    31    1
    36    23    22    2
    37   124   125    1
    38    39    37    1
    39   132   133    1
    40   125   126    1
    41    34    37    1
    42    34    35    1
    43   152   153    1
    44   116   115    2
    45    37    38    1
    46    22    21    1
    47   115   114    1
    48    38    40    1
    49   155   153   am
    50   113   114    1
    51   153   154    2
    52    35    36    2
    53    35    41   am
    54   133   134    1
    55   114   117    1
    56    21    24    1
    57    21    20    1
    58    15    14    2
    59    41    42    1
    60   135   134    1
    61    52    53    1
    62   108   107    2
    63   107   106    1
    64    14    20   am
    65    14    13    1
    66   117   119    1
    67   117   118    1
    68    43    42    1
    69    43    44    2
    70    59    61   ar
    71    59    57   ar
    72    61    60   ar
    73    42    45    1
    74    53    54    1
    75    53    56    1
    76   106   109    1
    77   106   105    1
    78    98    97    2
    79    47    49   ar
    80    47    46   ar
    81    45    46    1
    82    57    56    1
    83    57    58   ar
    84    60    58   ar
    85    49    51   ar
    86    18    17    1
    87    13    12    1
    88    13    16    1
    89    54    55    2
    90   109   110    1
    91    46    48   ar
    92    97   105   am
    93    97    96    1
    94    17    16    1
    95    17    19    1
    96   104   102   ar
    97   104   103   ar
    98    51    50   ar
    99   102   100   ar
   100    48    50   ar
   101   112   110   ar
   102    68    70   ar
   103    68    67   ar
   104    70    72   ar
   105    96    99    1
   106    96    95    1
   107   110   111   ar
   108     4     3    2
   109   103   101   ar
   110   100    99    1
   111   100   101   ar
   112     9    11   ar
   113     9     7   ar
   114    11    10   ar
   115    66    67    1
   116    66    63    1
   117    67    69   ar
   118    72    71   ar
   119     3     2    1
   120     7     6   ar
   121    10     8   ar
   122    62    63    1
   123    63    64    1
   124    69    71   ar
   125     6     8   ar
   126     6     5    1
   127    92    94   ar
   128    92    90   ar
   129    94    93   ar
   130     2     5    1
   131     2     1    1
   132    90    89   ar
   133    90    88   ar
   134    89    87   ar
   135    93    91   ar
   136    64    65    2
   137    84    83    2
   138    79    78    1
   139    79    80    1
   140    88    91   ar
   141    88    86   ar
   142    87    86   ar
   143    86    85    1
   144    83    82    1
   145    78    77    1
   146    85    82    1
   147    82    81    1
   148    73    74    1
   149    77    74    1
   150    74    75    1
   151    75    76    2
