@<TRIPOS>MOLECULE
tmp/3tkzA01.pdb
 116 113 0 0 0
SMALL
GASTEIGER

@<TRIPOS>ATOM
      1  N         12.6090   17.8740   19.2660 N.3    51  ILE51      -0.1245
      2  CA        13.7800   17.3680   18.5890 C.3    51  ILE51       0.1561
      3  C         14.3410   18.4910   17.7070 C.2    51  ILE51       0.2260
      4  O         13.6370   19.0150   16.8340 O.2    51  ILE51      -0.2867
      5  CB        13.3850   16.1020   17.7220 C.3    51  ILE51       0.0252
      6  CG1       12.9860   14.8850   18.5960 C.3    51  ILE51       0.0019
      7  CG2       14.4910   15.7080   16.7510 C.3    51  ILE51       0.0019
      8  CD1       12.3390   13.6800   17.7560 C.3    51  ILE51       0.0001
      9  N         18.7110   16.0240   11.2450 N.3    62  LEU62      -0.1231
     10  CA        18.3580   15.9600   12.6560 C.3    62  LEU62       0.1693
     11  C         19.5920   15.7350   13.5790 C.2    62  LEU62       0.2592
     12  O         19.5010   15.0060   14.5980 O.2    62  LEU62      -0.2718
     13  CB        17.3260   14.8210   12.8310 C.3    62  LEU62       0.0284
     14  CG        16.0120   15.1030   12.1090 C.3    62  LEU62       0.0019
     15  CD1       15.0180   14.0430   12.5210 C.3    62  LEU62       0.0001
     16  CD2       15.4430   16.4190   12.5270 C.3    62  LEU62       0.0001
     17  N         20.7030   16.3810   13.2090 N.am   63  TYR63      -0.1962
     18  CA        22.0260   16.0650   13.7530 C.3    63  TYR63       0.1771
     19  C         22.3200   14.5970   13.5840 C.2    63  TYR63       0.2620
     20  O         22.8160   13.9500   14.5100 O.2    63  TYR63      -0.2715
     21  CB        22.1450   16.5220   15.2010 C.3    63  TYR63       0.0574
     22  CG        22.1190   18.0300   15.3730 C.ar   63  TYR63      -0.0198
     23  CD1       23.2810   18.8010   15.2540 C.ar   63  TYR63      -0.0009
     24  CD2       20.9260   18.6810   15.6670 C.ar   63  TYR63      -0.0009
     25  CE1       23.2460   20.1900   15.4350 C.ar   63  TYR63       0.0417
     26  CE2       20.8870   20.0680   15.8490 C.ar   63  TYR63       0.0417
     27  CZ        22.0710   20.8010   15.7540 C.ar   63  TYR63       0.1957
     28  OH        21.9700   22.1460   15.9230 O.3    63  TYR63      -0.2866
     29  N         22.0460   14.0790   12.3900 N.am   64  GLY64      -0.1940
     30  CA        22.2160   12.6810   12.0370 C.3    64  GLY64       0.2014
     31  C         21.2260   12.3550   10.9430 C.2    64  GLY64       0.2639
     32  O         20.3030   13.1570   10.6850 O.2    64  GLY64      -0.2714
     33  N         21.3820   11.1920   10.3070 N.am   65  GLY65      -0.1954
     34  CA        20.3430   10.6810    9.4120 C.3    65  GLY65       0.1869
     35  C         20.4180   11.3800    8.0400 C.2    65  GLY65       0.2309
     36  O         21.3960   12.0650    7.7650 O.2    65  GLY65      -0.2863
     37  N         10.2030   12.3930    6.7770 N.3    78  TYR78      -0.1241
     38  CA         9.8720   11.6550    7.9940 C.3    78  TYR78       0.1605
     39  C          8.3660   11.4050    8.1360 C.2    78  TYR78       0.2264
     40  O          7.9510   10.4590    8.8420 O.2    78  TYR78      -0.2867
     41  CB        10.4230   12.3880    9.1840 C.3    78  TYR78       0.0534
     42  CG        11.9080   12.2200    9.2130 C.ar   78  TYR78      -0.0201
     43  CD1       12.4790   10.9410    9.4430 C.ar   78  TYR78      -0.0009
     44  CD2       12.7570   13.3420    9.0650 C.ar   78  TYR78      -0.0009
     45  CE1       13.8850   10.7930    9.4490 C.ar   78  TYR78       0.0417
     46  CE2       14.1880   13.2000    9.0890 C.ar   78  TYR78       0.0417
     47  CZ        14.7210   11.9180    9.3000 C.ar   78  TYR78       0.1957
     48  OH        16.0940   11.7460    9.3490 O.3    78  TYR78      -0.2866
     49  N          8.8240    5.2260   11.3350 N.3    83  GLY83      -0.1210
     50  CA         9.7910    4.3760   12.0670 C.3    83  GLY83       0.1956
     51  C         11.2860    4.6530   11.8860 C.2    83  GLY83       0.2612
     52  O         12.1280    3.8210   12.2520 O.2    83  GLY83      -0.2717
     53  N         11.6140    5.8180   11.3490 N.am   84  GLN84      -0.1965
     54  CA        12.9960    6.2410   11.1920 C.3    84  GLN84       0.1733
     55  C         13.4720    7.0070   12.4020 C.2    84  GLN84       0.2616
     56  O         14.6630    7.2690   12.4930 O.2    84  GLN84      -0.2715
     57  CB        13.2120    7.1040    9.9150 C.3    84  GLN84       0.0408
     58  CG        12.8900    6.3790    8.6040 C.3    84  GLN84       0.0908
     59  CD        13.7590    5.1650    8.3710 C.2    84  GLN84       0.2608
     60  OE1       14.9730    5.2740    8.2280 O.2    84  GLN84      -0.2717
     61  NE2       13.1420    3.9890    8.3620 N.am   84  GLN84      -0.0878
     62  N         12.5750    7.4120   13.3070 N.am   85  LEU85      -0.1963
     63  CA        13.0000    8.1220   14.5170 C.3    85  LEU85       0.1728
     64  C         12.5250    7.2710   15.6720 C.2    85  LEU85       0.2616
     65  O         11.3660    6.8980   15.7080 O.2    85  LEU85      -0.2715
     66  CB        12.3860    9.5170   14.5720 C.3    85  LEU85       0.0311
     67  CG        12.5210   10.3400   13.2980 C.3    85  LEU85       0.0022
     68  CD1       11.7550   11.6450   13.4160 C.3    85  LEU85       0.0001
     69  CD2       13.9840   10.6570   12.9890 C.3    85  LEU85       0.0001
     70  N         13.4250    6.9240   16.5750 N.am   86  LYS86      -0.1963
     71  CA        13.0760    5.9590   17.6370 C.3    86  LYS86       0.1728
     72  C         13.7140    6.3360   18.9570 C.2    86  LYS86       0.2616
     73  O         14.7880    6.9690   18.9970 O.2    86  LYS86      -0.2715
     74  CB        13.5180    4.5340   17.2440 C.3    86  LYS86       0.0311
     75  CG        12.6690    3.9300   16.1490 C.3    86  LYS86       0.0038
     76  CD        12.8280    2.4270   16.0010 C.3    86  LYS86       0.0206
     77  CE        13.6880    2.1100   14.7780 C.3    86  LYS86       0.1093
     78  NZ        14.1070    0.6640   14.7740 N.3    86  LYS86      -0.1314
     79  N         13.0870    5.9080   20.0470 N.am   87  GLU87      -0.1963
     80  CA        13.7590    5.9320   21.3250 C.3    87  GLU87       0.1733
     81  C         14.6700    4.7070   21.3940 C.2    87  GLU87       0.2616
     82  O         14.3760    3.6840   20.7700 O.2    87  GLU87      -0.2715
     83  CB        12.7380    5.8580   22.4420 C.3    87  GLU87       0.0429
     84  CG        12.0190    7.1620   22.7190 C.3    87  GLU87       0.1163
     85  CD        11.5270    7.1940   24.1720 C.2    87  GLU87       0.3649
     86  OE1       10.3010    7.0960   24.4090 O.co2  87  GLU87      -0.2457
     87  OE2       12.3820    7.2810   25.0850 O.co2  87  GLU87      -0.2457
     88  N         15.7510    4.7680   22.1710 N.am   88  LYS88      -0.1963
     89  CA        16.7480    3.6960   22.1100 C.3    88  LYS88       0.1728
     90  C         16.2190    2.3660   22.6500 C.2    88  LYS88       0.2616
     91  O         17.0140    1.4840   22.9210 O.2    88  LYS88      -0.2715
     92  CB        18.0500    4.1100   22.8070 C.3    88  LYS88       0.0311
     93  CG        18.8050    5.1920   22.0610 C.3    88  LYS88       0.0038
     94  CD        18.8650    4.8790   20.5590 C.3    88  LYS88       0.0206
     95  CE        19.6280    5.9610   19.7920 C.3    88  LYS88       0.1093
     96  NZ        18.8830    7.2570   19.6880 N.3    88  LYS88      -0.1314
     97  N         14.8870    2.2070   22.7200 N.am   89  ASN89      -0.1958
     98  CA        14.2150    1.3330   23.6970 C.3    89  ASN89       0.1819
     99  C         12.6730    1.1640   23.6750 C.2    89  ASN89       0.2621
    100  O         12.0920    0.9980   24.7500 O.2    89  ASN89      -0.2715
    101  CB        14.4850    1.9550   25.0680 C.3    89  ASN89       0.1195
    102  CG        14.0460    3.4330   25.1120 C.2    89  ASN89       0.2630
    103  OD1       14.8470    4.3430   24.8470 O.2    89  ASN89      -0.2716
    104  ND2       12.7550    3.6620   25.3970 N.am   89  ASN89      -0.0877
    105  N         11.9710    1.1970   22.5440 N.am   90  GLY90      -0.1954
    106  CA        12.4870    1.1660   21.2030 C.3    90  GLY90       0.1869
    107  C         11.3330    1.6860   20.3670 C.2    90  GLY90       0.2309
    108  O         11.3540    1.5810   19.1230 O.2    90  GLY90      -0.2863
    109  N          9.0370    7.4590   17.1580 N.3    93  ILE93      -0.1245
    110  CA         8.5600    8.8510   17.2940 C.3    93  ILE93       0.1561
    111  C          7.9970    9.2100   15.9150 C.2    93  ILE93       0.2260
    112  O          8.7810    9.4660   15.0080 O.2    93  ILE93      -0.2867
    113  CB         9.7730    9.7900   17.6450 C.3    93  ILE93       0.0252
    114  CG1       10.4160    9.3520   18.9740 C.3    93  ILE93       0.0019
    115  CG2        9.3820   11.2630   17.6450 C.3    93  ILE93       0.0019
    116  CD1       11.9100    9.6260   19.0860 C.3    93  ILE93       0.0001
@<TRIPOS>BOND
     1    37    38    1
     2    36    35    2
     3    38    39    1
     4    38    41    1
     5    35    34    1
     6    39    40    2
     7    60    59    2
     8    61    59   am
     9    59    58    1
    10    58    57    1
    11    44    46   ar
    12    44    42   ar
    13    46    47   ar
    14    41    42    1
    15    42    43   ar
    16    47    48    1
    17    47    45   ar
    18    34    33    1
    19    43    45   ar
    20    57    54    1
    21    33    31   am
    22    32    31    2
    23    31    30    1
    24    54    53    1
    25    54    55    1
    26     9    10    1
    27    49    50    1
    28    53    51   am
    29    51    50    1
    30    51    52    2
    31    30    29    1
    32    14    15    1
    33    14    16    1
    34    14    13    1
    35    29    19   am
    36    55    56    2
    37    55    62   am
    38    10    13    1
    39    10    11    1
    40    69    67    1
    41    17    11   am
    42    17    18    1
    43    67    68    1
    44    67    66    1
    45    62    63    1
    46    11    12    2
    47    19    18    1
    48    19    20    2
    49    18    21    1
    50    63    66    1
    51    63    64    1
    52    78    77    1
    53    77    76    1
    54   112   111    2
    55    21    22    1
    56    23    22   ar
    57    23    25   ar
    58    22    24   ar
    59    25    27   ar
    60    24    26   ar
    61    64    65    2
    62    64    70   am
    63    27    26   ar
    64    27    28    1
    65   111   110    1
    66    76    75    1
    67    75    74    1
    68    70    71    1
    69     7     5    1
    70     4     3    2
    71   109   110    1
    72    74    71    1
    73   110   113    1
    74    71    72    1
    75   115   113    1
    76   113   114    1
    77     3     2    1
    78     5     2    1
    79     5     6    1
    80     8     6    1
    81     2     1    1
    82    72    73    2
    83    72    79   am
    84   114   116    1
    85   108   107    2
    86    96    95    1
    87    95    94    1
    88    79    80    1
    89   107   106    1
    90    94    93    1
    91    82    81    2
    92   106   105    1
    93    80    81    1
    94    80    83    1
    95    81    88   am
    96    93    92    1
    97    89    88    1
    98    89    90    1
    99    89    92    1
   100    83    84    1
   101   105    99   am
   102    90    97   am
   103    90    91    2
   104    84    85    1
   105    97    98    1
   106    99    98    1
   107    99   100    2
   108    98   101    1
   109    85    86   ar
   110    85    87   ar
   111   103   102    2
   112   101   102    1
   113   102   104   am
