@<TRIPOS>MOLECULE
tmp/3tkzA00.pdb
 166 158 0 0 0
SMALL
GASTEIGER

@<TRIPOS>ATOM
      1  N          8.5150   26.5780   22.7630 N.3    10  GLY10      -0.1210
      2  CA         8.3400   25.1550   23.0870 C.3    10  GLY10       0.1956
      3  C          7.1600   24.9090   24.0320 C.2    10  GLY10       0.2611
      4  O          6.3290   24.0000   23.7900 O.2    10  GLY10      -0.2717
      5  N          7.0750   25.7270   25.0830 N.am   11  VAL11      -0.1979
      6  CA         5.8830   25.7820   25.9420 C.3    11  VAL11       0.1595
      7  C          4.5560   25.9350   25.1710 C.2    11  VAL11       0.2287
      8  O          3.6270   25.1330   25.3740 O.2    11  VAL11      -0.2864
      9  CB         5.9590   26.9410   27.0150 C.3    11  VAL11       0.0276
     10  CG1        4.6190   27.1080   27.7320 C.3    11  VAL11       0.0022
     11  CG2        7.0770   26.6860   27.9890 C.3    11  VAL11       0.0022
     12  N          3.7450   22.9360   23.2110 N.3    14  GLU14      -0.1245
     13  CA         3.1970   21.9300   24.1330 C.3    14  GLU14       0.1567
     14  C          1.7310   22.1760   24.3690 C.2    14  GLU14       0.2260
     15  O          0.9320   21.2680   24.2670 O.2    14  GLU14      -0.2867
     16  CB         3.9870   21.8270   25.4760 C.3    14  GLU14       0.0388
     17  CG         5.1420   20.7900   25.2910 C.3    14  GLU14       0.1160
     18  CD         6.2700   20.7750   26.3190 C.2    14  GLU14       0.3649
     19  OE1        6.4450   21.7760   27.0710 O.co2  14  GLU14      -0.2457
     20  OE2        7.0030   19.7330   26.3580 O.co2  14  GLU14      -0.2457
     21  N          8.8500   24.6590   14.7460 N.3    29  ARG29      -0.1245
     22  CA         8.8530   26.0060   15.3020 C.3    29  ARG29       0.1563
     23  C         10.3000   26.5060   15.3520 C.2    29  ARG29       0.2260
     24  O         11.2210   25.7190   15.1280 O.2    29  ARG29      -0.2867
     25  CB         8.2280   25.9990   16.6840 C.3    29  ARG29       0.0307
     26  CG         8.9260   24.9660   17.5620 C.3    29  ARG29       0.0489
     27  CD         8.4400   25.0600   18.9290 C.3    29  ARG29       0.2205
     28  NE         9.0760   24.1020   19.8250 N.pl3  29  ARG29      -0.0865
     29  CZ        10.2380   24.2990   20.4440 C.cat  29  ARG29       0.5346
     30  NH1       10.9260   25.4030   20.2250 N.pl3  29  ARG29       0.1354
     31  NH2       10.7200   23.3680   21.2590 N.pl3  29  ARG29       0.1354
     32  N         13.6530   27.5310   17.1410 N.3    31  SER31      -0.1202
     33  CA        14.3710   27.1150   18.3090 C.3    31  SER31       0.2020
     34  C         14.7710   28.2950   19.2220 C.2    31  SER31       0.2619
     35  O         15.3740   29.2800   18.7340 O.2    31  SER31      -0.2717
     36  CB        15.5940   26.3390   17.8730 C.3    31  SER31       0.2103
     37  OG        16.4260   26.0510   18.9790 O.3    31  SER31      -0.2182
     38  N         14.4040   28.1870   20.5150 N.am   32  LYS32      -0.1965
     39  CA        14.8860   29.0970   21.6000 C.3    32  LYS32       0.1728
     40  C         16.3960   28.9950   21.8230 C.2    32  LYS32       0.2616
     41  O         17.0970   30.0120   21.8550 O.2    32  LYS32      -0.2715
     42  CB        14.1430   28.8710   22.9270 C.3    32  LYS32       0.0311
     43  CG        12.6820   29.2660   22.7800 C.3    32  LYS32       0.0038
     44  CD        12.0120   29.3490   24.1070 C.3    32  LYS32       0.0206
     45  CE        11.6120   27.9770   24.5110 C.3    32  LYS32       0.1093
     46  NZ        11.1790   27.9850   25.9110 N.3    32  LYS32      -0.1314
     47  N         16.9000   27.7680   21.9340 N.am   33  SER33      -0.1950
     48  CA        18.2910   27.5270   22.3430 C.3    33  SER33       0.1924
     49  C         19.2900   27.6030   21.2090 C.2    33  SER33       0.2314
     50  O         20.5070   27.5910   21.4390 O.2    33  SER33      -0.2863
     51  CB        18.4060   26.1780   23.0630 C.3    33  SER33       0.2116
     52  OG        17.9470   25.1270   22.2220 O.3    33  SER33      -0.2180
     53  N         12.9000   23.5240   15.4230 N.3    39  THR39      -0.1218
     54  CA        12.7390   22.3760   16.2960 C.3    39  THR39       0.1862
     55  C         11.3740   21.7440   15.9640 C.2    39  THR39       0.2287
     56  O         10.4030   22.4460   15.6520 O.2    39  THR39      -0.2866
     57  CB        12.7660   22.7520   17.7880 C.3    39  THR39       0.1770
     58  OG1       14.0380   23.3110   18.1280 O.3    39  THR39      -0.2211
     59  CG2       12.5200   21.5180   18.6800 C.3    39  THR39       0.0375
     60  N          3.3250   12.2000   21.5040 N.3    44  ARG44      -0.1245
     61  CA         3.1990   10.7700   21.4790 C.3    44  ARG44       0.1563
     62  C          2.8460   10.4180   22.9180 C.2    44  ARG44       0.2260
     63  O          3.3140   11.0570   23.8460 O.2    44  ARG44      -0.2867
     64  CB         4.4820   10.0660   21.0210 C.3    44  ARG44       0.0307
     65  CG         5.7030   10.5440   21.7540 C.3    44  ARG44       0.0489
     66  CD         6.9740   10.4600   20.8840 C.3    44  ARG44       0.2205
     67  NE         7.4460    9.0820   20.8110 N.pl3  44  ARG44      -0.0865
     68  CZ         8.2660    8.5130   21.7050 C.cat  44  ARG44       0.5346
     69  NH1        8.7390    9.2120   22.7340 N.pl3  44  ARG44       0.1354
     70  NH2        8.6430    7.2400   21.5550 N.pl3  44  ARG44       0.1354
     71  N          1.9930   13.1090   25.6580 N.3    47  ALA47      -0.1231
     72  CA         3.0790   14.0280   26.0270 C.3    47  ALA47       0.1694
     73  C          3.7940   14.5420   24.7790 C.2    47  ALA47       0.2592
     74  O          3.6520   13.9480   23.6950 O.2    47  ALA47      -0.2718
     75  CB         4.0860   13.3350   26.9160 C.3    47  ALA47       0.0304
     76  N          4.6160   15.5750   24.9580 N.am   48  VAL48      -0.1966
     77  CA         5.3030   16.2120   23.8080 C.3    48  VAL48       0.1727
     78  C          6.8140   16.0210   23.8850 C.2    48  VAL48       0.2617
     79  O          7.4230   16.2240   24.9530 O.2    48  VAL48      -0.2715
     80  CB         4.9110   17.6900   23.6820 C.3    48  VAL48       0.0290
     81  CG1        5.6830   18.4090   22.5090 C.3    48  VAL48       0.0023
     82  CG2        3.3780   17.8230   23.4680 C.3    48  VAL48       0.0023
     83  N          7.4090   15.6140   22.7820 N.am   49  THR49      -0.1937
     84  CA         8.8620   15.3450   22.6250 C.3    49  THR49       0.2028
     85  C          9.3930   16.4570   21.7090 C.2    49  THR49       0.2642
     86  O          8.7910   16.7120   20.6630 O.2    49  THR49      -0.2714
     87  CB         9.0640   13.9680   21.9290 C.3    49  THR49       0.1808
     88  OG1        8.7540   12.9060   22.8420 O.3    49  THR49      -0.2208
     89  CG2       10.5060   13.7740   21.4240 C.3    49  THR49       0.0379
     90  N         10.5030   17.1060   22.0710 N.am   50  HIS50      -0.1959
     91  CA        11.0960   18.0830   21.1500 C.3    50  HIS50       0.1787
     92  C         12.4080   17.5750   20.5470 C.2    50  HIS50       0.2620
     93  O         13.2530   16.9500   21.2360 O.2    50  HIS50      -0.2715
     94  CB        11.2800   19.4440   21.8350 C.3    50  HIS50       0.0785
     95  CG        10.0240   19.9780   22.4500 C.ar   50  HIS50       0.0821
     96  ND1        9.5850   19.6310   23.7120 N.ar   50  HIS50      -0.2267
     97  CD2        9.1080   20.8330   21.9580 C.ar   50  HIS50       0.1154
     98  CE1        8.4560   20.2610   23.9790 C.ar   50  HIS50       0.1986
     99  NE2        8.1340   20.9810   22.9150 N.ar   50  HIS50      -0.2212
    100  N         12.6090   17.8740   19.2660 N.am   51  ILE51      -0.1963
    101  CA        13.7800   17.3680   18.5890 C.3    51  ILE51       0.1727
    102  C         14.3410   18.4910   17.7070 C.2    51  ILE51       0.2616
    103  O         13.6370   19.0150   16.8340 O.2    51  ILE51      -0.2715
    104  CB        13.3850   16.1020   17.7220 C.3    51  ILE51       0.0290
    105  CG1       12.9860   14.8850   18.5960 C.3    51  ILE51       0.0022
    106  CG2       14.4910   15.7080   16.7510 C.3    51  ILE51       0.0023
    107  CD1       12.3390   13.6800   17.7560 C.3    51  ILE51       0.0001
    108  N         15.6100   18.8410   17.8990 N.am   52  LYS52      -0.1977
    109  CA        16.2060   19.9300   17.1160 C.3    52  LYS52       0.1596
    110  C         16.5420   19.5540   15.6750 C.2    52  LYS52       0.2287
    111  O         16.9330   18.4090   15.3780 O.2    52  LYS52      -0.2864
    112  CB        17.5180   20.4250   17.8070 C.3    52  LYS52       0.0298
    113  CG        17.2960   20.9380   19.1940 C.3    52  LYS52       0.0038
    114  CD        18.6870   21.2070   19.8380 C.3    52  LYS52       0.0206
    115  CE        18.5210   22.2760   20.8870 C.3    52  LYS52       0.1093
    116  NZ        18.1220   23.4990   20.1150 N.3    52  LYS52      -0.1314
    117  N         18.7110   16.0240   11.2450 N.3    62  LEU62      -0.1231
    118  CA        18.3580   15.9600   12.6560 C.3    62  LEU62       0.1693
    119  C         19.5920   15.7350   13.5790 C.2    62  LEU62       0.2592
    120  O         19.5010   15.0060   14.5980 O.2    62  LEU62      -0.2718
    121  CB        17.3260   14.8210   12.8310 C.3    62  LEU62       0.0284
    122  CG        16.0120   15.1030   12.1090 C.3    62  LEU62       0.0019
    123  CD1       15.0180   14.0430   12.5210 C.3    62  LEU62       0.0001
    124  CD2       15.4430   16.4190   12.5270 C.3    62  LEU62       0.0001
    125  N         20.7030   16.3810   13.2090 N.am   63  TYR63      -0.1962
    126  CA        22.0260   16.0650   13.7530 C.3    63  TYR63       0.1771
    127  C         22.3200   14.5970   13.5840 C.2    63  TYR63       0.2620
    128  O         22.8160   13.9500   14.5100 O.2    63  TYR63      -0.2715
    129  CB        22.1450   16.5220   15.2010 C.3    63  TYR63       0.0574
    130  CG        22.1190   18.0300   15.3730 C.ar   63  TYR63      -0.0198
    131  CD1       23.2810   18.8010   15.2540 C.ar   63  TYR63      -0.0009
    132  CD2       20.9260   18.6810   15.6670 C.ar   63  TYR63      -0.0009
    133  CE1       23.2460   20.1900   15.4350 C.ar   63  TYR63       0.0417
    134  CE2       20.8870   20.0680   15.8490 C.ar   63  TYR63       0.0417
    135  CZ        22.0710   20.8010   15.7540 C.ar   63  TYR63       0.1957
    136  OH        21.9700   22.1460   15.9230 O.3    63  TYR63      -0.2866
    137  N         22.0460   14.0790   12.3900 N.am   64  GLY64      -0.1954
    138  CA        22.2160   12.6810   12.0370 C.3    64  GLY64       0.1869
    139  C         21.2260   12.3550   10.9430 C.2    64  GLY64       0.2309
    140  O         20.3030   13.1570   10.6850 O.2    64  GLY64      -0.2863
    141  N         13.0870    5.9080   20.0470 N.3    87  GLU87      -0.1231
    142  CA        13.7590    5.9320   21.3250 C.3    87  GLU87       0.1699
    143  C         14.6700    4.7070   21.3940 C.2    87  GLU87       0.2592
    144  O         14.3760    3.6840   20.7700 O.2    87  GLU87      -0.2718
    145  CB        12.7380    5.8580   22.4420 C.3    87  GLU87       0.0402
    146  CG        12.0190    7.1620   22.7190 C.3    87  GLU87       0.1161
    147  CD        11.5270    7.1940   24.1720 C.2    87  GLU87       0.3649
    148  OE1       10.3010    7.0960   24.4090 O.co2  87  GLU87      -0.2457
    149  OE2       12.3820    7.2810   25.0850 O.co2  87  GLU87      -0.2457
    150  N         15.7510    4.7680   22.1710 N.am   88  LYS88      -0.1980
    151  CA        16.7480    3.6960   22.1100 C.3    88  LYS88       0.1596
    152  C         16.2190    2.3660   22.6500 C.2    88  LYS88       0.2287
    153  O         17.0140    1.4840   22.9210 O.2    88  LYS88      -0.2864
    154  CB        18.0500    4.1100   22.8070 C.3    88  LYS88       0.0298
    155  CG        18.8050    5.1920   22.0610 C.3    88  LYS88       0.0038
    156  CD        18.8650    4.8790   20.5590 C.3    88  LYS88       0.0206
    157  CE        19.6280    5.9610   19.7920 C.3    88  LYS88       0.1093
    158  NZ        18.8830    7.2570   19.6880 N.3    88  LYS88      -0.1314
    159  N          9.0370    7.4590   17.1580 N.3    93  ILE93      -0.1245
    160  CA         8.5600    8.8510   17.2940 C.3    93  ILE93       0.1561
    161  C          7.9970    9.2100   15.9150 C.2    93  ILE93       0.2260
    162  O          8.7810    9.4660   15.0080 O.2    93  ILE93      -0.2867
    163  CB         9.7730    9.7900   17.6450 C.3    93  ILE93       0.0252
    164  CG1       10.4160    9.3520   18.9740 C.3    93  ILE93       0.0019
    165  CG2        9.3820   11.2630   17.6450 C.3    93  ILE93       0.0019
    166  CD1       11.9100    9.6260   19.0860 C.3    93  ILE93       0.0001
@<TRIPOS>BOND
     1   140   139    2
     2   139   138    1
     3   117   118    1
     4   138   137    1
     5   122   123    1
     6   122   124    1
     7   122   121    1
     8   137   127   am
     9   118   121    1
    10   118   119    1
    11   125   119   am
    12   125   126    1
    13   119   120    2
    14   127   126    1
    15   127   128    2
    16   126   129    1
    17    21    22    1
    18   162   161    2
    19    24    23    2
    20   129   130    1
    21   131   130   ar
    22   131   133   ar
    23    22    23    1
    24    22    25    1
    25   130   132   ar
    26   111   110    2
    27    53    54    1
    28   133   135   ar
    29    56    55    2
    30   132   134   ar
    31   110   109    1
    32   135   134   ar
    33   135   136    1
    34   161   160    1
    35    55    54    1
    36    54    57    1
    37    25    26    1
    38   106   104    1
    39   103   102    2
    40   109   112    1
    41   109   108    1
    42    32    33    1
    43   159   160    1
    44   160   163    1
    45    26    27    1
    46   165   163    1
    47   163   164    1
    48   102   108   am
    49   102   101    1
    50   104   101    1
    51   104   105    1
    52   107   105    1
    53    57    58    1
    54    57    59    1
    55   112   113    1
    56    36    33    1
    57    36    37    1
    58    33    34    1
    59   101   100    1
    60    35    34    2
    61    27    28    1
    62   164   166    1
    63   113   114    1
    64    34    38   am
    65   100    92   am
    66   158   157    1
    67   157   156    1
    68    28    29    2
    69   114   115    1
    70   141   142    1
    71   116   115    1
    72    30    29    1
    73    29    31    1
    74    38    39    1
    75    92    91    1
    76    92    93    2
    77   156   155    1
    78    86    85    2
    79   144   143    2
    80    67    66    1
    81    67    68    2
    82    66    65    1
    83    64    61    1
    84    64    65    1
    85    91    94    1
    86    91    90    1
    87    49    50    2
    88    49    48    1
    89   142   143    1
    90   142   145    1
    91   143   150   am
    92    89    87    1
    93    61    60    1
    94    61    62    1
    95    70    68    1
    96    39    40    1
    97    39    42    1
    98    68    69    1
    99    85    90   am
   100    85    84    1
   101    40    41    2
   102    40    47   am
   103    94    95    1
   104    87    84    1
   105    87    88    1
   106    47    48    1
   107    97    95   ar
   108    97    99   ar
   109   155   154    1
   110   151   150    1
   111   151   152    1
   112   151   154    1
   113    52    51    1
   114    48    51    1
   115   145   146    1
   116    95    96   ar
   117    81    80    1
   118    84    83    1
   119   152   153    2
   120   146   147    1
   121     1     2    1
   122    43    42    1
   123    43    44    1
   124    83    78   am
   125    99    98   ar
   126    62    63    2
   127     2     3    1
   128    12    13    1
   129    82    80    1
   130    80    77    1
   131    74    73    2
   132    96    98   ar
   133     4     3    2
   134    77    78    1
   135    77    76    1
   136    78    79    2
   137     3     5   am
   138    44    45    1
   139    13    14    1
   140    13    16    1
   141   147   148   ar
   142   147   149   ar
   143    15    14    2
   144    45    46    1
   145    73    76   am
   146    73    72    1
   147     5     6    1
   148     7     8    2
   149     7     6    1
   150    17    16    1
   151    17    18    1
   152    71    72    1
   153     6     9    1
   154    72    75    1
   155    18    20   ar
   156    18    19   ar
   157     9    10    1
   158     9    11    1
