@<TRIPOS>MOLECULE
tmp/3tl0A00.pdb
 166 156 0 0 0
SMALL
GASTEIGER

@<TRIPOS>ATOM
      1  N         26.5160    8.8790   14.3750 N.3     9  GLY9       -0.1210
      2  CA        25.0800    8.8160   14.1120 C.3     9  GLY9        0.1956
      3  C         24.7430    7.6570   13.1950 C.2     9  GLY9        0.2611
      4  O         23.8430    6.8470   13.4720 O.2     9  GLY9       -0.2717
      5  N         25.5490    7.5180   12.1690 N.am   10  VAL10      -0.1979
      6  CA        25.3920    6.4700   11.1920 C.3    10  VAL10       0.1595
      7  C         25.4890    5.0970   11.8520 C.2    10  VAL10       0.2287
      8  O         24.6350    4.2280   11.5770 O.2    10  VAL10      -0.2864
      9  CB        26.4100    6.5800    9.9920 C.3    10  VAL10       0.0276
     10  CG1       26.5260    5.2230    9.2130 C.3    10  VAL10       0.0022
     11  CG2       25.9700    7.6610    9.0100 C.3    10  VAL10       0.0022
     12  N         22.4270    4.2640   13.9310 N.3    13  GLU13      -0.1245
     13  CA        21.3200    3.7110   13.1430 C.3    13  GLU13       0.1567
     14  C         21.5610    2.2200   12.8590 C.2    13  GLU13       0.2260
     15  O         20.6220    1.4100   12.9660 O.2    13  GLU13      -0.2867
     16  CB        21.0500    4.4420   11.8040 C.3    13  GLU13       0.0388
     17  CG        20.6720    5.9340   11.9490 C.3    13  GLU13       0.1160
     18  CD        19.9440    6.5980   10.7170 C.2    13  GLU13       0.3649
     19  OE1       19.9610    6.0500    9.5650 O.co2  13  GLU13      -0.2457
     20  OE2       19.3490    7.7070   10.9150 O.co2  13  GLU13      -0.2457
     21  N         24.6810    9.0520   22.4280 N.3    28  ARG28      -0.1245
     22  CA        26.0040    9.0220   21.7340 C.3    28  ARG28       0.1563
     23  C         26.5240   10.4830   21.6000 C.2    28  ARG28       0.2260
     24  O         25.7730   11.4230   21.8980 O.2    28  ARG28      -0.2867
     25  CB        25.8780    8.3880   20.3520 C.3    28  ARG28       0.0307
     26  CG        24.9380    9.2470   19.4840 C.3    28  ARG28       0.0489
     27  CD        24.8140    8.7220   18.1610 C.3    28  ARG28       0.2205
     28  NE        23.8500    9.4500   17.3390 N.pl3  28  ARG28      -0.0865
     29  CZ        24.0400   10.6540   16.7800 C.cat  28  ARG28       0.5346
     30  NH1       25.1210   11.3520   17.0300 N.pl3  28  ARG28       0.1354
     31  NH2       23.1130   11.1870   16.0090 N.pl3  28  ARG28       0.1354
     32  N         27.3220   13.9950   19.8510 N.3    30  SER30      -0.1202
     33  CA        26.7400   14.8360   18.7610 C.3    30  SER30       0.2020
     34  C         27.8630   15.2460   17.8050 C.2    30  SER30       0.2619
     35  O         28.9150   15.7310   18.2570 O.2    30  SER30      -0.2717
     36  CB        26.0890   16.1060   19.3650 C.3    30  SER30       0.2103
     37  OG        25.3870   16.9660   18.4400 O.3    30  SER30      -0.2182
     38  N         27.6580   14.9960   16.5080 N.am   31  LYS31      -0.1965
     39  CA        28.5740   15.4040   15.4200 C.3    31  LYS31       0.1728
     40  C         28.5000   16.9150   15.2240 C.2    31  LYS31       0.2616
     41  O         29.5080   17.6110   15.3350 O.2    31  LYS31      -0.2715
     42  CB        28.2490   14.6780   14.0960 C.3    31  LYS31       0.0311
     43  CG        28.5230   13.1890   14.2370 C.3    31  LYS31       0.0038
     44  CD        28.5130   12.5120   12.9110 C.3    31  LYS31       0.0206
     45  CE        27.1020   12.2290   12.5450 C.3    31  LYS31       0.1093
     46  NZ        27.0360   11.7960   11.1470 N.3    31  LYS31      -0.1314
     47  N         27.2940   17.4070   14.9560 N.am   32  SER32      -0.1950
     48  CA        27.0380   18.8400   14.8190 C.3    32  SER32       0.1924
     49  C         27.2350   19.7150   16.0630 C.2    32  SER32       0.2314
     50  O         27.3080   20.9320   15.9410 O.2    32  SER32      -0.2863
     51  CB        25.6470   19.0790   14.2210 C.3    32  SER32       0.2116
     52  OG        24.6710   18.8170   15.1950 O.3    32  SER32      -0.2180
     53  N         23.4910   13.1390   21.8750 N.3    38  THR38      -0.1218
     54  CA        22.2600   12.9570   21.1410 C.3    38  THR38       0.1862
     55  C         21.6700   11.5710   21.4500 C.2    38  THR38       0.2287
     56  O         22.4070   10.6420   21.6330 O.2    38  THR38      -0.2866
     57  CB        22.5450   13.0300   19.6370 C.3    38  THR38       0.1770
     58  OG1       23.0400   14.3470   19.3210 O.3    38  THR38      -0.2211
     59  CG2       21.2750   12.7490   18.8080 C.3    38  THR38       0.0375
     60  N         11.9400    3.6400   16.1080 N.3    43  ARG43      -0.1245
     61  CA        10.4990    3.4790   16.1580 C.3    43  ARG43       0.1563
     62  C          9.9500    3.1420   14.7590 C.2    43  ARG43       0.2260
     63  O         10.3860    3.7240   13.7540 O.2    43  ARG43      -0.2867
     64  CB         9.7820    4.7330   16.7040 C.3    43  ARG43       0.0307
     65  CG         9.8730    5.8940   15.8880 C.3    43  ARG43       0.0489
     66  CD         8.5590    6.6870   15.9720 C.3    43  ARG43       0.2205
     67  NE         8.8170    7.9900   15.3670 N.pl3  43  ARG43      -0.0865
     68  CZ         8.0720    9.0830   15.5220 C.cat  43  ARG43       0.5346
     69  NH1        6.9620    9.0990   16.2640 N.pl3  43  ARG43       0.1354
     70  NH2        8.4710   10.1920   14.9350 N.pl3  43  ARG43       0.1354
     71  N         14.9720    5.1360   12.5250 N.3    47  VAL47      -0.1231
     72  CA        15.7000    5.7080   13.6700 C.3    47  VAL47       0.1692
     73  C         15.4870    7.2260   13.5920 C.2    47  VAL47       0.2593
     74  O         15.4870    7.7420   12.4820 O.2    47  VAL47      -0.2718
     75  CB        17.1750    5.3010   13.6070 C.3    47  VAL47       0.0266
     76  CG1       18.0040    6.0300   14.7070 C.3    47  VAL47       0.0020
     77  CG2       17.3170    3.7320   13.6710 C.3    47  VAL47       0.0020
     78  N         15.1770    7.8830   14.7150 N.am   48  THR48      -0.1939
     79  CA        15.0990    9.3520   14.8350 C.3    48  THR48       0.2028
     80  C         16.2290    9.7790   15.8000 C.2    48  THR48       0.2642
     81  O         16.5990    8.9920   16.6970 O.2    48  THR48      -0.2714
     82  CB        13.7840    9.7920   15.5340 C.3    48  THR48       0.1808
     83  OG1       12.6850    9.3110   14.8010 O.3    48  THR48      -0.2208
     84  CG2       13.6380   11.3020   15.4630 C.3    48  THR48       0.0379
     85  N         16.7210   11.0090   15.6810 N.am   49  HIS49      -0.1959
     86  CA        17.7790   11.4850   16.5410 C.3    49  HIS49       0.1787
     87  C         17.3140   12.7510   17.2270 C.2    49  HIS49       0.2620
     88  O         16.5570   13.5530   16.6580 O.2    49  HIS49      -0.2715
     89  CB        19.0880   11.6660   15.7900 C.3    49  HIS49       0.0785
     90  CG        19.4850   10.4920   14.9410 C.ar   49  HIS49       0.0821
     91  ND1       20.3530    9.5100   15.3800 N.ar   49  HIS49      -0.2267
     92  CD2       19.1700   10.1660   13.6610 C.ar   49  HIS49       0.1154
     93  CE1       20.5390    8.6260   14.4170 C.ar   49  HIS49       0.1986
     94  NE2       19.8370    9.0040   13.3640 N.ar   49  HIS49      -0.2212
     95  N         17.6730   12.8930   18.5110 N.am   50  ILE50      -0.1963
     96  CA        17.1350   13.9640   19.3130 C.3    50  ILE50       0.1727
     97  C         18.3440   14.5930   20.0530 C.2    50  ILE50       0.2616
     98  O         19.0080   13.9340   20.8280 O.2    50  ILE50      -0.2715
     99  CB        16.0450   13.4540   20.3510 C.3    50  ILE50       0.0290
    100  CG1       14.8420   12.7150   19.6920 C.3    50  ILE50       0.0022
    101  CG2       15.5050   14.5900   21.2300 C.3    50  ILE50       0.0023
    102  CD1       14.0790   11.8550   20.7400 C.3    50  ILE50       0.0001
    103  N         18.6110   15.8660   19.7990 N.am   51  LYS51      -0.1977
    104  CA        19.7230   16.5440   20.4480 C.3    51  LYS51       0.1596
    105  C         19.3890   16.8960   21.8730 C.2    51  LYS51       0.2287
    106  O         18.2360   17.2730   22.2250 O.2    51  LYS51      -0.2864
    107  CB        20.1150   17.8020   19.7120 C.3    51  LYS51       0.0298
    108  CG        20.4760   17.4660   18.2830 C.3    51  LYS51       0.0038
    109  CD        20.7340   18.7460   17.4430 C.3    51  LYS51       0.0206
    110  CE        22.1880   19.1600   17.6450 C.3    51  LYS51       0.1093
    111  NZ        22.8100   19.3260   16.2730 N.3    51  LYS51      -0.1314
    112  N         16.0130   19.0170   26.4330 N.3    61  LEU61      -0.1245
    113  CA        15.9170   18.6370   25.0190 C.3    61  LEU61       0.1561
    114  C         15.6480   19.8990   24.2410 C.2    61  LEU61       0.2260
    115  O         14.7830   19.9030   23.3580 O.2    61  LEU61      -0.2867
    116  CB        14.7970   17.5370   24.8110 C.3    61  LEU61       0.0270
    117  CG        15.1710   16.2170   25.5160 C.3    61  LEU61       0.0019
    118  CD1       14.1560   15.0880   25.2320 C.3    61  LEU61       0.0001
    119  CD2       16.5330   15.6590   25.1370 C.3    61  LEU61       0.0001
    120  N          7.5400   13.0220   25.4610 N.3    84  LEU84      -0.1231
    121  CA         8.4750   13.2870   24.4030 C.3    84  LEU84       0.1693
    122  C          7.7530   13.2320   23.0820 C.2    84  LEU84       0.2592
    123  O          7.4710   12.1750   22.5440 O.2    84  LEU84      -0.2718
    124  CB         9.5750   12.2460   24.4880 C.3    84  LEU84       0.0284
    125  CG        10.8320   12.5160   23.7140 C.3    84  LEU84       0.0019
    126  CD1       11.2840   13.7680   24.1610 C.3    84  LEU84       0.0001
    127  CD2       11.8280   11.4700   24.1100 C.3    84  LEU84       0.0001
    128  N          7.4030   14.3890   22.5720 N.am   85  LYS85      -0.1966
    129  CA         6.4510   14.4930   21.4250 C.3    85  LYS85       0.1728
    130  C          6.9720   15.4050   20.2870 C.2    85  LYS85       0.2616
    131  O          7.5930   16.4300   20.5550 O.2    85  LYS85      -0.2715
    132  CB         5.0360   14.9330   21.8950 C.3    85  LYS85       0.0311
    133  CG         4.2760   13.8680   22.6540 C.3    85  LYS85       0.0038
    134  CD         2.8540   14.2810   22.9710 C.3    85  LYS85       0.0206
    135  CE         2.7380   15.6580   23.4610 C.3    85  LYS85       0.1093
    136  NZ         1.5230   15.8230   24.3650 N.3    85  LYS85      -0.1314
    137  N          6.7420   14.9950   19.0320 N.am   86  GLU86      -0.1963
    138  CA         7.2040   15.7450   17.8460 C.3    86  GLU86       0.1733
    139  C          6.4340   17.0580   17.5630 C.2    86  GLU86       0.2616
    140  O          5.4500   17.3750   18.2560 O.2    86  GLU86      -0.2715
    141  CB         7.2110   14.8430   16.6030 C.3    86  GLU86       0.0429
    142  CG         8.5160   14.0620   16.4480 C.3    86  GLU86       0.1163
    143  CD         8.4750   13.0210   15.3370 C.2    86  GLU86       0.3649
    144  OE1        7.3970   12.4160   15.1290 O.co2  86  GLU86      -0.2457
    145  OE2        9.5230   12.7910   14.6800 O.co2  86  GLU86      -0.2457
    146  N          6.9000   17.8230   16.5670 N.am   87  LYS87      -0.1977
    147  CA         6.1880   19.0350   16.0970 C.3    87  LYS87       0.1596
    148  C          4.7600   18.6380   15.7590 C.2    87  LYS87       0.2287
    149  O          3.8260   19.2730   16.2330 O.2    87  LYS87      -0.2864
    150  CB         6.8740   19.6840   14.8780 C.3    87  LYS87       0.0298
    151  CG         8.1120   20.4760   15.2180 C.3    87  LYS87       0.0038
    152  CD         7.7500   21.7050   16.0220 C.3    87  LYS87       0.0206
    153  CE         8.9820   22.4430   16.4900 C.3    87  LYS87       0.1093
    154  NZ         9.7830   21.6000   17.4120 N.3    87  LYS87      -0.1314
    155  N          3.1520   16.0840   16.7620 N.3    89  GLY89      -0.1225
    156  CA         2.4320   15.5130   17.8940 C.3    89  GLY89       0.1811
    157  C          2.5740   14.0200   18.1860 C.2    89  GLY89       0.2280
    158  O          1.9290   13.5170   19.1240 O.2    89  GLY89      -0.2866
    159  N          7.6710    9.8620   20.8040 N.3    92  ILE92      -0.1245
    160  CA         8.8670    9.0570   20.6500 C.3    92  ILE92       0.1561
    161  C          9.1100    8.4150   22.0030 C.2    92  ILE92       0.2260
    162  O          9.3070    9.1250   22.9960 O.2    92  ILE92      -0.2867
    163  CB        10.0590    9.9210   20.3070 C.3    92  ILE92       0.0252
    164  CG1        9.8220   10.6550   19.0030 C.3    92  ILE92       0.0019
    165  CG2       11.3150    9.1150   20.2490 C.3    92  ILE92       0.0019
    166  CD1       10.5860   11.9630   18.8740 C.3    92  ILE92       0.0001
@<TRIPOS>BOND
     1    11     9    1
     2    10     9    1
     3    19    18   ar
     4     9     6    1
     5    18    20   ar
     6    18    17    1
     7    46    45    1
     8     6     7    1
     9     6     5    1
    10     8     7    2
    11    16    17    1
    12    16    13    1
    13     5     3   am
    14    74    73    2
    15    71    72    1
    16    45    44    1
    17    14    15    2
    18    14    13    1
    19    44    43    1
    20    13    12    1
    21     3     4    2
    22     3     2    1
    23    94    92   ar
    24    94    93   ar
    25    73    72    1
    26    73    78   am
    27    75    72    1
    28    75    77    1
    29    75    76    1
    30    92    90   ar
    31    63    62    2
    32    42    43    1
    33    42    39    1
    34     2     1    1
    35    51    48    1
    36    51    52    1
    37    93    91   ar
    38   145   143   ar
    39    78    79    1
    40    62    61    1
    41    83    82    1
    42    48    47    1
    43    48    49    1
    44    79    82    1
    45    79    80    1
    46   150   151    1
    47   150   147    1
    48    70    68    1
    49    90    91   ar
    50    90    89    1
    51    47    40   am
    52   144   143   ar
    53   151   152    1
    54    40    41    2
    55    40    39    1
    56   143   142    1
    57    67    68    2
    58    67    66    1
    59    39    38    1
    60    84    82    1
    61    68    69    1
    62    85    80   am
    63    85    86    1
    64   148   147    1
    65   148   149    2
    66    89    86    1
    67    80    81    2
    68    65    66    1
    69    65    64    1
    70    50    49    2
    71    31    29    1
    72   152   153    1
    73   147   146    1
    74    60    61    1
    75    61    64    1
    76   111   110    1
    77   142   141    1
    78   153   154    1
    79    38    34   am
    80    86    87    1
    81   146   139   am
    82   141   138    1
    83    88    87    2
    84   155   156    1
    85    29    30    1
    86    29    28    2
    87    87    95   am
    88    28    27    1
    89   109   110    1
    90   109   108    1
    91   139   138    1
    92   139   140    2
    93    34    35    2
    94    34    33    1
    95   138   137    1
    96   156   157    1
    97    27    26    1
    98   157   158    2
    99   108   107    1
   100    37    36    1
   101    95    96    1
   102    33    36    1
   103    33    32    1
   104    59    57    1
   105   166   164    1
   106   164   163    1
   107   137   130   am
   108    96    97    1
   109    96    99    1
   110    58    57    1
   111    26    25    1
   112    57    54    1
   113   100    99    1
   114   100   102    1
   115   107   104    1
   116   103    97   am
   117   103   104    1
   118    97    98    2
   119   165   163    1
   120   130   131    2
   121   130   129    1
   122   163   160    1
   123    99   101    1
   124    25    22    1
   125   104   105    1
   126   160   159    1
   127   160   161    1
   128    54    55    1
   129    54    53    1
   130   129   132    1
   131   129   128    1
   132    55    56    2
   133    23    22    1
   134    23    24    2
   135    22    21    1
   136   105   106    2
   137   132   133    1
   138   161   162    2
   139   123   122    2
   140   128   122   am
   141   133   134    1
   142   134   135    1
   143   122   121    1
   144   115   114    2
   145   135   136    1
   146   125   127    1
   147   125   126    1
   148   125   124    1
   149   114   113    1
   150   121   124    1
   151   121   120    1
   152   116   113    1
   153   116   117    1
   154   113   112    1
   155   119   117    1
   156   118   117    1
