@<TRIPOS>MOLECULE
tmp/3tl1A00.pdb
 152 145 0 0 0
SMALL
GASTEIGER

@<TRIPOS>ATOM
      1  N        -26.4680    7.2030  -23.3890 N.3    34  GLU34      -0.1245
      2  CA       -25.5380    6.5540  -24.3520 C.3    34  GLU34       0.1567
      3  C        -26.1820    5.6080  -25.3900 C.2    34  GLU34       0.2260
      4  O        -25.5210    5.2050  -26.3470 O.2    34  GLU34      -0.2867
      5  CB       -24.3620    5.8780  -23.6390 C.3    34  GLU34       0.0388
      6  CG       -24.8020    4.6990  -22.8090 C.3    34  GLU34       0.1160
      7  CD       -23.6560    3.9970  -22.1330 C.2    34  GLU34       0.3649
      8  OE1      -22.5380    3.9430  -22.6840 O.co2  34  GLU34      -0.2457
      9  OE2      -23.8980    3.4550  -21.0410 O.co2  34  GLU34      -0.2457
     10  N        -25.6790    1.5230  -29.1850 N.3    54  MET54      -0.1245
     11  CA       -25.0950    2.7830  -28.7340 C.3    54  MET54       0.1570
     12  C        -25.2030    3.8460  -29.8040 C.2    54  MET54       0.2261
     13  O        -25.3610    3.5270  -30.9880 O.2    54  MET54      -0.2867
     14  CB       -23.6350    2.5640  -28.3540 C.3    54  MET54       0.0387
     15  CG       -23.4450    1.6150  -27.1270 C.3    54  MET54       0.0595
     16  SD       -21.6950    1.5580  -26.7210 S.3    54  MET54      -0.1393
     17  CE       -21.5460    3.1810  -25.9620 C.3    54  MET54       0.0692
     18  N        -19.7020    5.9310  -32.0030 N.3    57  ASP57      -0.1239
     19  CA       -18.4920    6.1850  -31.2110 C.3    57  ASP57       0.1674
     20  C        -17.6140    7.2600  -31.8730 C.2    57  ASP57       0.2266
     21  O        -18.0710    7.9680  -32.7940 O.2    57  ASP57      -0.2867
     22  CB       -17.7160    4.8850  -30.8930 C.3    57  ASP57       0.1410
     23  CG       -17.0630    4.2420  -32.1280 C.2    57  ASP57       0.3668
     24  OD1      -16.8990    4.9240  -33.1530 O.co2  57  ASP57      -0.2456
     25  OD2      -16.7290    3.0340  -32.0740 O.co2  57  ASP57      -0.2456
     26  N        -22.0490    0.4960  -32.2010 N.3    63  TRP63      -0.1241
     27  CA       -21.9670   -0.8340  -31.5440 C.3    63  TRP63       0.1605
     28  C        -23.3620   -1.2730  -31.1100 C.2    63  TRP63       0.2264
     29  O        -24.1000   -0.5100  -30.4650 O.2    63  TRP63      -0.2867
     30  CB       -21.0560   -0.7950  -30.3120 C.3    63  TRP63       0.0550
     31  CG       -19.6090   -0.5500  -30.5890 C.ar   63  TRP63       0.0003
     32  CD1      -19.0150    0.6230  -31.0160 C.ar   63  TRP63       0.0946
     33  CD2      -18.5490   -1.4860  -30.4030 C.ar   63  TRP63       0.0152
     34  NE1      -17.6550    0.4480  -31.1220 N.ar   63  TRP63      -0.2442
     35  CE2      -17.3420   -0.8340  -30.7500 C.ar   63  TRP63       0.0810
     36  CE3      -18.4980   -2.8120  -29.9640 C.ar   63  TRP63       0.0012
     37  CZ2      -16.1050   -1.4650  -30.6780 C.ar   63  TRP63       0.0191
     38  CZ3      -17.2380   -3.4470  -29.8850 C.ar   63  TRP63       0.0001
     39  CH2      -16.0740   -2.7670  -30.2370 C.ar   63  TRP63       0.0015
     40  N        -25.3920   -4.9820  -29.6920 N.3    65  TRP65      -0.1241
     41  CA       -25.2300   -6.3710  -29.2400 C.3    65  TRP65       0.1605
     42  C        -26.4050   -6.8240  -28.3990 C.2    65  TRP65       0.2264
     43  O        -27.1760   -6.0060  -27.9180 O.2    65  TRP65      -0.2867
     44  CB       -23.9420   -6.5240  -28.4340 C.3    65  TRP65       0.0550
     45  CG       -23.9330   -5.7520  -27.1120 C.ar   65  TRP65       0.0003
     46  CD1      -24.3120   -6.2280  -25.8820 C.ar   65  TRP65       0.0946
     47  CD2      -23.5360   -4.3950  -26.9100 C.ar   65  TRP65       0.0152
     48  NE1      -24.1810   -5.2490  -24.9430 N.ar   65  TRP65      -0.2442
     49  CE2      -23.7000   -4.1120  -25.5380 C.ar   65  TRP65       0.0810
     50  CE3      -23.0580   -3.3760  -27.7610 C.ar   65  TRP65       0.0012
     51  CZ2      -23.4020   -2.8440  -24.9880 C.ar   65  TRP65       0.0191
     52  CZ3      -22.7690   -2.1430  -27.2150 C.ar   65  TRP65       0.0001
     53  CH2      -22.9500   -1.8780  -25.8520 C.ar   65  TRP65       0.0015
     54  N        -27.4370   -8.9760  -24.9240 N.3    67  SER67      -0.1217
     55  CA       -26.9710   -9.3540  -23.6170 C.3    67  SER67       0.1889
     56  C        -28.0810  -10.0460  -22.8800 C.2    67  SER67       0.2288
     57  O        -29.2410   -9.9200  -23.2280 O.2    67  SER67      -0.2866
     58  CB       -26.5160   -8.1070  -22.8320 C.3    67  SER67       0.2089
     59  OG       -25.2660   -7.7080  -23.3520 O.3    67  SER67      -0.2183
     60  N        -22.6460  -11.0980  -22.4200 N.3    82  ARG82      -0.1245
     61  CA       -22.9290  -10.9490  -23.8360 C.3    82  ARG82       0.1563
     62  C        -23.3270  -12.3140  -24.3660 C.2    82  ARG82       0.2260
     63  O        -22.6400  -13.3060  -24.0960 O.2    82  ARG82      -0.2867
     64  CB       -21.6670  -10.4890  -24.5450 C.3    82  ARG82       0.0307
     65  CG       -21.8470   -9.2970  -25.4570 C.3    82  ARG82       0.0489
     66  CD       -20.4940   -8.8940  -25.9460 C.3    82  ARG82       0.2205
     67  NE       -20.5260   -7.6610  -26.7350 N.pl3  82  ARG82      -0.0865
     68  CZ       -20.6150   -7.5980  -28.0590 C.cat  82  ARG82       0.5346
     69  NH1      -20.5860   -6.4020  -28.6330 N.pl3  82  ARG82       0.1354
     70  NH2      -20.7380   -8.7130  -28.8130 N.pl3  82  ARG82       0.1354
     71  N        -15.2070   -9.9250  -28.4190 N.3    88  PHE88      -0.1241
     72  CA       -14.7050  -10.2500  -27.0730 C.3    88  PHE88       0.1605
     73  C        -14.4520  -11.7450  -26.8960 C.2    88  PHE88       0.2264
     74  O        -15.1710  -12.5370  -27.4470 O.2    88  PHE88      -0.2867
     75  CB       -15.7960   -9.8700  -26.0590 C.3    88  PHE88       0.0534
     76  CG       -16.0610   -8.3700  -25.9600 C.ar   88  PHE88      -0.0203
     77  CD1      -15.2770   -7.5730  -25.1520 C.ar   88  PHE88      -0.0042
     78  CD2      -17.1240   -7.7900  -26.6660 C.ar   88  PHE88      -0.0042
     79  CE1      -15.5180   -6.2080  -25.0530 C.ar   88  PHE88      -0.0003
     80  CE2      -17.3860   -6.4230  -26.5780 C.ar   88  PHE88      -0.0003
     81  CZ       -16.5900   -5.6340  -25.7630 C.ar   88  PHE88      -0.0000
     82  N        -17.5170  -11.1290  -21.9890 N.3    91  MET91      -0.1245
     83  CA       -17.7880   -9.8610  -21.2690 C.3    91  MET91       0.1570
     84  C        -18.7270  -10.1600  -20.1250 C.2    91  MET91       0.2261
     85  O        -19.8630  -10.5880  -20.3680 O.2    91  MET91      -0.2867
     86  CB       -18.4300   -8.8260  -22.2160 C.3    91  MET91       0.0387
     87  CG       -18.9960   -7.5250  -21.4950 C.3    91  MET91       0.0595
     88  SD       -17.7390   -6.5500  -20.6430 S.3    91  MET91      -0.1393
     89  CE       -17.0890   -5.5860  -22.0070 C.3    91  MET91       0.0692
     90  N        -20.5400   -8.6650  -16.5650 N.3    93  ILE93      -0.1245
     91  CA       -20.8620   -7.4010  -15.9200 C.3    93  ILE93       0.1561
     92  C        -21.6340   -7.6820  -14.6590 C.2    93  ILE93       0.2260
     93  O        -22.6220   -8.4330  -14.6850 O.2    93  ILE93      -0.2867
     94  CB       -21.6780   -6.4920  -16.8260 C.3    93  ILE93       0.0252
     95  CG1      -20.9610   -6.2550  -18.1720 C.3    93  ILE93       0.0019
     96  CG2      -22.1350   -5.2070  -16.0550 C.3    93  ILE93       0.0019
     97  CD1      -21.8890   -5.6540  -19.2010 C.3    93  ILE93       0.0001
     98  N        -16.9430   -4.5850  -14.7610 N.3   110  GLN110     -0.1245
     99  CA       -16.9670   -5.3430  -16.0350 C.3   110  GLN110      0.1566
    100  C        -15.6230   -6.0540  -16.1950 C.2   110  GLN110      0.2260
    101  O        -14.5930   -5.4770  -15.9230 O.2   110  GLN110     -0.2867
    102  CB       -17.2280   -4.4300  -17.2430 C.3   110  GLN110      0.0367
    103  CG       -18.4460   -3.5400  -17.0430 C.3   110  GLN110      0.0905
    104  CD       -19.0450   -2.9510  -18.3100 C.2   110  GLN110      0.2608
    105  OE1      -18.9010   -3.4810  -19.4290 O.2   110  GLN110     -0.2717
    106  NE2      -19.7150   -1.8440  -18.1390 N.am  110  GLN110     -0.0878
    107  N         -8.1630    0.2140  -25.3600 N.3   124  TRP124     -0.1227
    108  CA        -9.1730    1.0680  -26.0010 C.3   124  TRP124      0.1737
    109  C        -10.5630    0.7950  -25.3840 C.2   124  TRP124      0.2595
    110  O        -11.3240    1.7150  -25.0780 O.2   124  TRP124     -0.2718
    111  CB        -9.2360    0.7490  -27.4760 C.3   124  TRP124      0.0564
    112  CG       -10.1330    1.6280  -28.3110 C.ar  124  TRP124      0.0003
    113  CD1       -9.7470    2.7400  -29.0350 C.ar  124  TRP124      0.0946
    114  CD2      -11.5300    1.4340  -28.5920 C.ar  124  TRP124      0.0152
    115  NE1      -10.8270    3.2570  -29.7130 N.ar  124  TRP124     -0.2442
    116  CE2      -11.9270    2.4730  -29.4770 C.ar  124  TRP124      0.0810
    117  CE3      -12.4890    0.4910  -28.1820 C.ar  124  TRP124      0.0012
    118  CZ2      -13.2370    2.5990  -29.9520 C.ar  124  TRP124      0.0191
    119  CZ3      -13.7980    0.6190  -28.6520 C.ar  124  TRP124      0.0001
    120  CH2      -14.1600    1.6740  -29.5330 C.ar  124  TRP124      0.0015
    121  N        -10.8800   -0.4820  -25.2150 N.am  125  MET125     -0.1979
    122  CA       -12.1980   -0.8690  -24.7030 C.3   125  MET125      0.1605
    123  C        -12.3450   -0.4280  -23.2680 C.2   125  MET125      0.2287
    124  O        -13.3830    0.1270  -22.9120 O.2   125  MET125     -0.2864
    125  CB       -12.4400   -2.3740  -24.8180 C.3   125  MET125      0.0413
    126  CG       -13.8520   -2.8050  -24.4600 C.3   125  MET125      0.0598
    127  SD       -15.2180   -1.8800  -25.2670 S.3   125  MET125     -0.1393
    128  CE       -14.9320   -2.3210  -26.9750 C.3   125  MET125      0.0692
    129  N        -12.9410    3.3770  -23.0880 N.3   128  ASN128     -0.1225
    130  CA       -14.3080    3.7190  -23.4880 C.3   128  ASN128      0.1785
    131  C        -15.3330    3.3790  -22.3970 C.2   128  ASN128      0.2597
    132  O        -16.2090    4.1980  -22.0750 O.2   128  ASN128     -0.2718
    133  CB       -14.6390    3.0760  -24.8440 C.3   128  ASN128      0.1169
    134  CG       -14.1980    3.9650  -26.0150 C.2   128  ASN128      0.2627
    135  OD1      -14.7240    5.0680  -26.2030 O.2   128  ASN128     -0.2716
    136  ND2      -13.1970    3.5220  -26.7530 N.am  128  ASN128     -0.0877
    137  N        -15.1750    2.1790  -21.8180 N.am  129  ILE129     -0.1980
    138  CA       -16.0810    1.6800  -20.7870 C.3   129  ILE129      0.1595
    139  C        -15.9740    2.5890  -19.5450 C.2   129  ILE129      0.2287
    140  O        -17.0210    3.0060  -19.0170 O.2   129  ILE129     -0.2864
    141  CB       -15.7890    0.1810  -20.4640 C.3   129  ILE129      0.0276
    142  CG1      -16.3000   -0.6970  -21.6140 C.3   129  ILE129      0.0022
    143  CG2      -16.4820   -0.2270  -19.1510 C.3   129  ILE129      0.0022
    144  CD1      -16.0920   -2.2100  -21.4140 C.3   129  ILE129      0.0001
    145  N        -17.6470    6.2090  -20.6000 N.3   132  ASN132     -0.1240
    146  CA       -19.0880    6.1350  -20.6740 C.3   132  ASN132      0.1653
    147  C        -19.6860    5.8050  -19.3260 C.2   132  ASN132      0.2266
    148  O        -20.7140    6.3880  -18.9670 O.2   132  ASN132     -0.2867
    149  CB       -19.5410    5.1150  -21.7160 C.3   132  ASN132      0.1155
    150  CG       -19.3070    5.5850  -23.1100 C.2   132  ASN132      0.2627
    151  OD1      -19.7530    6.6780  -23.4770 O.2   132  ASN132     -0.2716
    152  ND2      -18.6060    4.7780  -23.9140 N.am  132  ASN132     -0.0877
@<TRIPOS>BOND
     1    24    23   ar
     2    21    20    2
     3    26    27    1
     4    23    25   ar
     5    23    22    1
     6    18    19    1
     7    20    19    1
     8    27    28    1
     9    27    30    1
    10    19    22    1
    11    34    32   ar
    12    34    35   ar
    13    28    29    2
    14    32    31   ar
    15    13    12    2
    16    35    37   ar
    17    35    33   ar
    18    37    39   ar
    19    31    33   ar
    20    31    30    1
    21    33    36   ar
    22    39    38   ar
    23    36    38   ar
    24   118   120   ar
    25   118   116   ar
    26    12    11    1
    27   115   116   ar
    28   115   113   ar
    29    40    41    1
    30   120   119   ar
    31   116   114   ar
    32    41    44    1
    33    41    42    1
    34    10    11    1
    35   113   112   ar
    36    70    68    1
    37    11    14    1
    38   119   117   ar
    39    69    68    1
    40   114   112   ar
    41   114   117   ar
    42    44    45    1
    43    71    72    1
    44    42    43    2
    45    14    15    1
    46   112   111    1
    47    68    67    2
    48    50    52   ar
    49    50    47   ar
    50   111   108    1
    51    74    73    2
    52    52    53   ar
    53    15    16    1
    54    45    47   ar
    55    45    46   ar
    56    72    73    1
    57    72    75    1
    58   128   127    1
    59    47    49   ar
    60   136   134   am
    61    67    66    1
    62    16    17    1
    63    78    80   ar
    64    78    76   ar
    65    80    81   ar
    66     4     3    2
    67   135   134    2
    68    75    76    1
    69   134   133    1
    70   108   109    1
    71   108   107    1
    72    76    77   ar
    73    66    65    1
    74    46    48   ar
    75    53    51   ar
    76    81    79   ar
    77    49    51   ar
    78    49    48   ar
    79    65    64    1
    80     3     2    1
    81   109   121   am
    82   109   110    2
    83   127   126    1
    84   121   122    1
    85    77    79   ar
    86    54    55    1
    87   133   130    1
    88   125   122    1
    89   125   126    1
    90   122   123    1
    91    64    61    1
    92    62    63    2
    93    62    61    1
    94     2     5    1
    95     2     1    1
    96   152   150   am
    97    61    60    1
    98     5     6    1
    99    55    56    1
   100    55    58    1
   101   130   129    1
   102   130   131    1
   103   151   150    2
   104    59    58    1
   105   123   124    2
   106    57    56    2
   107   150   149    1
   108     6     7    1
   109     8     7   ar
   110   131   132    2
   111   131   137   am
   112    86    87    1
   113    86    83    1
   114     7     9   ar
   115    89    88    1
   116    82    83    1
   117   137   138    1
   118   149   146    1
   119   142   144    1
   120   142   141    1
   121    87    88    1
   122    83    84    1
   123   138   141    1
   124   138   139    1
   125   146   145    1
   126   146   147    1
   127   141   143    1
   128    85    84    2
   129   139   140    2
   130   105   104    2
   131   147   148    2
   132    97    95    1
   133   104   106   am
   134   104   103    1
   135    95    94    1
   136   102   103    1
   137   102    99    1
   138    94    96    1
   139    94    91    1
   140    90    91    1
   141   100    99    1
   142   100   101    2
   143    99    98    1
   144    91    92    1
   145    93    92    2
