@<TRIPOS>MOLECULE
tmp/3tl5A00.pdb
 205 193 0 0 0
SMALL
GASTEIGER

@<TRIPOS>ATOM
      1  N         12.2100   61.0540   10.6770 N.3   569  LYS569     -0.1231
      2  CA        12.7480   62.3580   10.3230 C.3   569  LYS569      0.1693
      3  C         14.2630   62.3410   10.3810 C.2   569  LYS569      0.2592
      4  O         14.8510   61.6140   11.1820 O.2   569  LYS569     -0.2718
      5  CB        12.2100   63.4380   11.2670 C.3   569  LYS569      0.0285
      6  CG        12.2450   63.0600   12.7340 C.3   569  LYS569      0.0035
      7  CD        11.5670   64.1070   13.6170 C.3   569  LYS569      0.0206
      8  CE        11.5220   63.6310   15.0710 C.3   569  LYS569      0.1093
      9  NZ        11.3060   64.7320   16.0470 N.3   569  LYS569     -0.1314
     10  N         14.8940   63.1400    9.5260 N.am  570  VAL570     -0.1966
     11  CA        16.3020   63.3920    9.6690 C.3   570  VAL570      0.1727
     12  C         16.4740   64.3160   10.8730 C.2   570  VAL570      0.2616
     13  O         15.6530   65.2090   11.1260 O.2   570  VAL570     -0.2715
     14  CB        16.8300   64.1400    8.4420 C.3   570  VAL570      0.0290
     15  CG1       18.3060   64.5160    8.6290 C.3   570  VAL570      0.0023
     16  CG2       16.6800   63.2800    7.1980 C.3   570  VAL570      0.0023
     17  N         17.5950   64.1000   11.5510 N.am  571  MET571     -0.1963
     18  CA        18.1400   64.8120   12.7170 C.3   571  MET571      0.1736
     19  C         18.9660   66.0560   12.3800 C.2   571  MET571      0.2616
     20  O         19.6910   66.0610   11.3830 O.2   571  MET571     -0.2715
     21  CB        18.7910   63.8790   13.7700 C.3   571  MET571      0.0427
     22  CG        18.3260   64.2190   15.2060 C.3   571  MET571      0.0599
     23  SD        18.7290   63.0370   16.5160 S.3   571  MET571     -0.1393
     24  CE        18.4860   61.5360   15.6090 C.3   571  MET571      0.0692
     25  N         18.8090   67.1370   13.1270 N.am  572  ALA572     -0.1963
     26  CA        19.5900   68.3170   12.8260 C.3   572  ALA572      0.1728
     27  C         20.9710   68.3640   13.5180 C.2   572  ALA572      0.2616
     28  O         21.5270   69.4330   13.7250 O.2   572  ALA572     -0.2715
     29  CB        18.7740   69.5310   13.2570 C.3   572  ALA572      0.0334
     30  N         21.5820   67.2140   13.7860 N.am  573  SER573     -0.1950
     31  CA        22.8020   67.1340   14.6230 C.3   573  SER573      0.1924
     32  C         24.1720   67.7920   14.2530 C.2   573  SER573      0.2314
     33  O         24.8390   68.3300   15.1370 O.2   573  SER573     -0.2863
     34  CB        23.0560   65.6690   15.0060 C.3   573  SER573      0.2116
     35  OG        22.0190   65.1710   15.8330 O.3   573  SER573     -0.2180
     36  N         22.0380   62.2760   11.2380 N.3   577  PRO577     -0.2116
     37  CA        21.5610   60.9030   11.4720 C.3   577  PRO577      0.1372
     38  C         20.0330   60.7720   11.4440 C.2   577  PRO577      0.2244
     39  O         19.3400   61.7760   11.6020 O.2   577  PRO577     -0.2868
     40  CB        22.0890   60.5890   12.8740 C.3   577  PRO577      0.0268
     41  CG        22.1860   61.9170   13.5390 C.3   577  PRO577      0.0207
     42  CD        22.5780   62.8900   12.4630 C.3   577  PRO577      0.0892
     43  N         16.2190   59.6450   12.6880 N.3   579  TRP579     -0.1241
     44  CA        15.3530   59.4380   13.8420 C.3   579  TRP579      0.1605
     45  C         14.2160   58.5850   13.2790 C.2   579  TRP579      0.2264
     46  O         13.3480   59.0820   12.5370 O.2   579  TRP579     -0.2867
     47  CB        14.7570   60.7750   14.2870 C.3   579  TRP579      0.0550
     48  CG        13.7340   60.6820   15.3840 C.ar  579  TRP579      0.0003
     49  CD1       12.4460   60.2890   15.2690 C.ar  579  TRP579      0.0946
     50  CD2       13.8900   61.1360   16.7310 C.ar  579  TRP579      0.0152
     51  NE1       11.8050   60.3700   16.4890 N.ar  579  TRP579     -0.2442
     52  CE2       12.6730   60.9090   17.3990 C.ar  579  TRP579      0.0810
     53  CE3       14.9530   61.6840   17.4460 C.ar  579  TRP579      0.0012
     54  CZ2       12.4930   61.2120   18.7500 C.ar  579  TRP579      0.0191
     55  CZ3       14.7740   61.9700   18.7900 C.ar  579  TRP579      0.0001
     56  CH2       13.5600   61.7350   19.4240 C.ar  579  TRP579      0.0015
     57  N         17.6990   55.6560   16.6590 N.3   598  ILE598     -0.1245
     58  CA        18.3860   56.6650   15.9050 C.3   598  ILE598      0.1561
     59  C         19.5660   55.9760   15.2120 C.2   598  ILE598      0.2260
     60  O         20.4220   55.3790   15.8720 O.2   598  ILE598     -0.2867
     61  CB        19.0020   57.7730   16.8130 C.3   598  ILE598      0.0252
     62  CG1       17.9980   58.7080   17.4860 C.3   598  ILE598      0.0019
     63  CG2       20.1560   58.5110   16.0980 C.3   598  ILE598      0.0019
     64  CD1       18.7030   59.6860   18.4040 C.3   598  ILE598      0.0001
     65  N         22.9170   56.6370   13.0470 N.3   600  LYS600     -0.1245
     66  CA        23.8360   57.7610   12.8550 C.3   600  LYS600      0.1561
     67  C         25.2120   57.4030   12.2960 C.2   600  LYS600      0.2260
     68  O         25.7570   56.3440   12.5850 O.2   600  LYS600     -0.2867
     69  CB        24.0040   58.5390   14.1620 C.3   600  LYS600      0.0271
     70  CG        25.3860   59.1410   14.3470 C.3   600  LYS600      0.0035
     71  CD        25.3040   60.5730   14.8430 C.3   600  LYS600      0.0206
     72  CE        26.4410   60.8900   15.7970 C.3   600  LYS600      0.1093
     73  NZ        26.6140   62.3550   15.9860 N.3   600  LYS600     -0.1314
     74  N         30.0540   59.1580   14.3400 N.3   603  ASP603     -0.1239
     75  CA        30.5730   58.9820   15.6870 C.3   603  ASP603      0.1674
     76  C         31.1590   57.5790   15.8630 C.2   603  ASP603      0.2266
     77  O         30.6740   56.6060   15.2660 O.2   603  ASP603     -0.2867
     78  CB        29.4380   59.1690   16.6990 C.3   603  ASP603      0.1410
     79  CG        29.3210   60.5940   17.1970 C.2   603  ASP603      0.3668
     80  OD1       29.5910   61.5190   16.4090 O.co2 603  ASP603     -0.2456
     81  OD2       28.9550   60.7900   18.3780 O.co2 603  ASP603     -0.2456
     82  N         30.8150   54.7770   17.8560 N.3   605  LEU605     -0.1245
     83  CA        29.7770   54.3280   18.7520 C.3   605  LEU605      0.1561
     84  C         30.3670   53.2670   19.6550 C.2   605  LEU605      0.2260
     85  O         29.7680   52.8750   20.6620 O.2   605  LEU605     -0.2867
     86  CB        28.6850   53.7500   17.8580 C.3   605  LEU605      0.0270
     87  CG        27.4080   54.5600   17.7890 C.3   605  LEU605      0.0019
     88  CD1       27.7110   56.0340   17.9630 C.3   605  LEU605      0.0001
     89  CD2       26.8310   54.3510   16.4120 C.3   605  LEU605      0.0001
     90  N         31.1870   54.9290   22.8110 N.3   608  ASP608     -0.1239
     91  CA        29.8550   55.0100   23.4580 C.3   608  ASP608      0.1674
     92  C         29.3290   53.6950   24.0370 C.2   608  ASP608      0.2266
     93  O         28.8900   53.7000   25.1810 O.2   608  ASP608     -0.2867
     94  CB        28.7760   55.5600   22.5110 C.3   608  ASP608      0.1410
     95  CG        28.9470   57.0380   22.2120 C.2   608  ASP608      0.3668
     96  OD1       30.0740   57.4870   21.9020 O.co2 608  ASP608     -0.2456
     97  OD2       27.9730   57.7820   22.3430 O.co2 608  ASP608     -0.2456
     98  N         20.9610   54.2140   28.0860 N.3   634  TYR634     -0.1241
     99  CA        20.1670   53.8400   26.9170 C.3   634  TYR634      0.1605
    100  C         20.9630   52.8890   26.0050 C.2   634  TYR634      0.2264
    101  O         22.1610   53.0320   25.8650 O.2   634  TYR634     -0.2867
    102  CB        19.7160   55.0880   26.1190 C.3   634  TYR634      0.0534
    103  CG        20.8490   56.0200   25.8700 C.ar  634  TYR634     -0.0201
    104  CD1       21.6430   55.8450   24.7410 C.ar  634  TYR634     -0.0009
    105  CD2       21.2110   57.0010   26.7880 C.ar  634  TYR634     -0.0009
    106  CE1       22.7170   56.6600   24.4880 C.ar  634  TYR634      0.0417
    107  CE2       22.3190   57.8270   26.5400 C.ar  634  TYR634      0.0417
    108  CZ        23.0550   57.6510   25.3830 C.ar  634  TYR634      0.1957
    109  OH        24.1390   58.4610   25.1070 O.3   634  TYR634     -0.2866
    110  N         21.2760   53.7780   18.1540 N.3   646  ILE646     -0.1231
    111  CA        21.0870   54.2570   19.5040 C.3   646  ILE646      0.1692
    112  C         19.6010   54.2390   19.8920 C.2   646  ILE646      0.2592
    113  O         18.7220   54.6210   19.1040 O.2   646  ILE646     -0.2718
    114  CB        21.5340   55.7290   19.5680 C.3   646  ILE646      0.0266
    115  CG1       22.9840   55.9020   19.0920 C.3   646  ILE646      0.0019
    116  CG2       21.1630   56.3580   20.9180 C.3   646  ILE646      0.0020
    117  CD1       23.4710   57.3150   19.1150 C.3   646  ILE646      0.0001
    118  N         19.3290   53.7670   21.1040 N.am  647  GLU647     -0.1966
    119  CA        17.9780   53.7830   21.6600 C.3   647  GLU647      0.1733
    120  C         17.4210   55.1690   21.9980 C.2   647  GLU647      0.2616
    121  O         18.1160   56.0020   22.5840 O.2   647  GLU647     -0.2715
    122  CB        17.9190   52.9830   22.9580 C.3   647  GLU647      0.0429
    123  CG        16.5390   53.0880   23.5490 C.3   647  GLU647      0.1163
    124  CD        16.4330   52.5950   24.9640 C.2   647  GLU647      0.3649
    125  OE1       15.3300   52.7370   25.5440 O.co2 647  GLU647     -0.2457
    126  OE2       17.4310   52.0700   25.5120 O.co2 647  GLU647     -0.2457
    127  N         16.2500   55.4830   21.4570 N.am  648  ILE648     -0.1963
    128  CA        15.6130   56.7550   21.7670 C.3   648  ILE648      0.1727
    129  C         14.9410   56.6050   23.1690 C.2   648  ILE648      0.2616
    130  O         14.0360   55.7840   23.3710 O.2   648  ILE648     -0.2715
    131  CB        14.5950   57.2100   20.7090 C.3   648  ILE648      0.0290
    132  CG1       15.2990   57.6460   19.4110 C.3   648  ILE648      0.0022
    133  CG2       13.7120   58.2690   21.2900 C.3   648  ILE648      0.0023
    134  CD1       14.3450   58.0710   18.3170 C.3   648  ILE648      0.0001
    135  N         15.2710   57.4920   24.0870 N.am  649  VAL649     -0.1977
    136  CA        14.6230   57.5470   25.3820 C.3   649  VAL649      0.1596
    137  C         13.3710   58.3860   25.2290 C.2   649  VAL649      0.2287
    138  O         13.4180   59.5110   24.7190 O.2   649  VAL649     -0.2864
    139  CB        15.4880   58.1860   26.4420 C.3   649  VAL649      0.0276
    140  CG1       14.6950   58.3510   27.7180 C.3   649  VAL649      0.0022
    141  CG2       16.7000   57.3540   26.6840 C.3   649  VAL649      0.0022
    142  N         12.1150   62.7750   26.3300 N.3   652  ALA652     -0.1245
    143  CA        13.2870   63.3650   26.9190 C.3   652  ALA652      0.1562
    144  C         13.5320   64.4590   25.9500 C.2   652  ALA652      0.2260
    145  O         13.3230   64.3170   24.7450 O.2   652  ALA652     -0.2867
    146  CB        14.4670   62.3280   26.8580 C.3   652  ALA652      0.0290
    147  N         16.4810   67.8790   25.5480 N.3   654  THR654     -0.1218
    148  CA        17.7980   68.2720   25.9960 C.3   654  THR654      0.1862
    149  C         17.7400   69.3450   27.0400 C.2   654  THR654      0.2287
    150  O         16.8270   70.1430   26.9810 O.2   654  THR654     -0.2866
    151  CB        18.5500   68.7780   24.7720 C.3   654  THR654      0.1770
    152  OG1       18.5740   67.7330   23.7870 O.3   654  THR654     -0.2211
    153  CG2       19.9520   69.2010   25.1500 C.3   654  THR654      0.0375
    154  N         18.0210   73.8430   25.0990 N.3   657  LYS657     -0.1245
    155  CA        16.7010   73.8670   24.4880 C.3   657  LYS657      0.1561
    156  C         15.5550   73.6140   25.4770 C.2   657  LYS657      0.2260
    157  O         14.3960   73.5420   25.0490 O.2   657  LYS657     -0.2867
    158  CB        16.5350   72.6360   23.5760 C.3   657  LYS657      0.0271
    159  CG        16.0220   72.9510   22.1930 C.3   657  LYS657      0.0035
    160  CD        14.5090   72.8770   22.1530 C.3   657  LYS657      0.0206
    161  CE        13.9830   72.9580   20.7280 C.3   657  LYS657      0.1093
    162  NZ        14.4390   71.7940   19.9060 N.3   657  LYS657     -0.1314
    163  N         24.1180   70.8520   25.8740 N.3   717  ASP717     -0.1239
    164  CA        23.5280   70.1670   24.7260 C.3   717  ASP717      0.1674
    165  C         23.5210   68.6280   24.7890 C.2   717  ASP717      0.2266
    166  O         22.6240   67.9530   24.2450 O.2   717  ASP717     -0.2867
    167  CB        24.2870   70.6400   23.4760 C.3   717  ASP717      0.1410
    168  CG        23.3790   70.8840   22.2970 C.2   717  ASP717      0.3668
    169  OD1       23.9110   71.0720   21.1790 O.co2 717  ASP717     -0.2456
    170  OD2       22.1400   70.8920   22.4850 O.co2 717  ASP717     -0.2456
    171  N         20.2290   65.5800   28.9580 N.3   720  MET720     -0.1245
    172  CA        18.8270   65.4290   28.6200 C.3   720  MET720      0.1570
    173  C         18.0320   65.1230   29.8780 C.2   720  MET720      0.2261
    174  O         18.5960   64.7140   30.9000 O.2   720  MET720     -0.2867
    175  CB        18.6370   64.3320   27.5670 C.3   720  MET720      0.0387
    176  CG        19.2770   64.6420   26.1970 C.3   720  MET720      0.0595
    177  SD        18.6960   63.5860   24.8440 S.3   720  MET720     -0.1393
    178  CE        16.9910   64.1360   24.5750 C.3   720  MET720      0.0692
    179  N         19.7420   62.3950   32.1210 N.3   728  PHE728     -0.1241
    180  CA        20.7460   61.4720   31.5870 C.3   728  PHE728      0.1605
    181  C         21.6020   62.1570   30.5360 C.2   728  PHE728      0.2264
    182  O         21.1020   63.0200   29.7870 O.2   728  PHE728     -0.2867
    183  CB        20.1290   60.1950   30.9940 C.3   728  PHE728      0.0534
    184  CG        19.1940   60.4200   29.8390 C.ar  728  PHE728     -0.0203
    185  CD1       19.6350   60.2370   28.5450 C.ar  728  PHE728     -0.0042
    186  CD2       17.8820   60.8360   30.0270 C.ar  728  PHE728     -0.0042
    187  CE1       18.7780   60.4150   27.4490 C.ar  728  PHE728     -0.0003
    188  CE2       17.0250   61.0420   28.9240 C.ar  728  PHE728     -0.0003
    189  CZ        17.4850   60.8190   27.6410 C.ar  728  PHE728     -0.0000
    190  N         24.3630   62.0470   27.1300 N.3   730  ILE730     -0.1231
    191  CA        24.4170   61.3410   25.8390 C.3   730  ILE730      0.1692
    192  C         25.6340   61.6750   24.9940 C.2   730  ILE730      0.2592
    193  O         26.3830   62.5580   25.3590 O.2   730  ILE730     -0.2718
    194  CB        23.1970   61.7720   24.9600 C.3   730  ILE730      0.0266
    195  CG1       23.2170   63.2970   24.7230 C.3   730  ILE730      0.0019
    196  CG2       21.8720   61.3370   25.5840 C.3   730  ILE730      0.0020
    197  CD1       22.1550   63.7890   23.7560 C.3   730  ILE730      0.0001
    198  N         25.7760   61.0470   23.8200 N.am  731  ASP731     -0.1974
    199  CA        26.8680   61.3870   22.8810 C.3   731  ASP731      0.1709
    200  C         28.2470   61.3680   23.5230 C.2   731  ASP731      0.2293
    201  O         28.8440   62.4080   23.7270 O.2   731  ASP731     -0.2864
    202  CB        26.6060   62.6380   22.0420 C.3   731  ASP731      0.1436
    203  CG        27.5450   62.7290   20.8580 C.2   731  ASP731      0.3671
    204  OD1       28.6330   62.1130   20.9080 O.co2 731  ASP731     -0.2456
    205  OD2       27.1630   63.3590   19.8530 O.co2 731  ASP731     -0.2456
@<TRIPOS>BOND
     1    16    14    1
     2    14    15    1
     3    14    11    1
     4    10    11    1
     5    10     3   am
     6    11    12    1
     7     2     3    1
     8     2     1    1
     9     2     5    1
    10     3     4    2
    11    12    13    2
    12    12    17   am
    13    36    37    1
    14    36    42    1
    15     5     6    1
    16    20    19    2
    17    38    37    1
    18    38    39    2
    19    37    40    1
    20    17    18    1
    21    67    68    2
    22    67    66    1
    23    19    18    1
    24    19    25   am
    25    42    41    1
    26    46    45    2
    27    43    44    1
    28    18    21    1
    29     6     7    1
    30    26    25    1
    31    26    29    1
    32    26    27    1
    33    66    65    1
    34    66    69    1
    35    40    41    1
    36    45    44    1
    37    27    28    2
    38    27    30   am
    39     7     8    1
    40    21    22    1
    41    30    31    1
    42    44    47    1
    43    69    70    1
    44    32    31    1
    45    32    33    2
    46    47    48    1
    47    74    75    1
    48    70    71    1
    49    31    34    1
    50    71    72    1
    51    34    35    1
    52     8     9    1
    53    22    23    1
    54    59    60    2
    55    59    58    1
    56    77    76    2
    57    49    48   ar
    58    49    51   ar
    59    48    50   ar
    60    24    23    1
    61    75    76    1
    62    75    78    1
    63    72    73    1
    64    58    57    1
    65    58    61    1
    66    63    61    1
    67    80    79   ar
    68    89    87    1
    69    51    52   ar
    70    78    79    1
    71    50    52   ar
    72    50    53   ar
    73    61    62    1
    74    79    81   ar
    75    52    54   ar
    76    53    55   ar
    77    62    64    1
    78    87    86    1
    79    87    88    1
    80    82    83    1
    81    86    83    1
    82   110   111    1
    83   134   132    1
    84    54    56   ar
    85    83    84    1
    86    55    56   ar
    87   115   117    1
    88   115   114    1
    89   113   112    2
    90   132   131    1
    91   111   114    1
    92   111   112    1
    93   114   116    1
    94    84    85    2
    95   205   203   ar
    96   112   118   am
    97   162   161    1
    98   131   133    1
    99   131   128    1
   100   161   160    1
   101   203   204   ar
   102   203   202    1
   103   118   119    1
   104   169   168   ar
   105   127   128    1
   106   127   120   am
   107   119   120    1
   108   119   122    1
   109   128   129    1
   110    96    95   ar
   111   120   121    2
   112   202   199    1
   113   160   159    1
   114   159   158    1
   115    95    97   ar
   116    95    94    1
   117   168   170   ar
   118   168   167    1
   119    94    91    1
   120    90    91    1
   121   199   200    1
   122   199   198    1
   123   122   123    1
   124   129   130    2
   125   129   135   am
   126    91    92    1
   127   167   164    1
   128   200   201    2
   129   123   124    1
   130   158   155    1
   131   197   195    1
   132   152   151    1
   133   198   192   am
   134    92    93    2
   135   135   136    1
   136   166   165    2
   137   155   154    1
   138   155   156    1
   139   106   104   ar
   140   106   108   ar
   141   178   177    1
   142   138   137    2
   143   195   194    1
   144   164   165    1
   145   164   163    1
   146   104   103   ar
   147   145   144    2
   148   151   153    1
   149   151   148    1
   150   177   176    1
   151   194   196    1
   152   194   191    1
   153   124   126   ar
   154   124   125   ar
   155   192   193    2
   156   192   191    1
   157   157   156    2
   158   109   108    1
   159   137   136    1
   160   136   139    1
   161   108   107   ar
   162   147   148    1
   163   191   190    1
   164   101   100    2
   165   103   102    1
   166   103   105   ar
   167   144   143    1
   168   148   149    1
   169   100    99    1
   170   102    99    1
   171   176   175    1
   172   142   143    1
   173   139   141    1
   174   139   140    1
   175   107   105   ar
   176   146   143    1
   177    99    98    1
   178   150   149    2
   179   187   189   ar
   180   187   185   ar
   181   175   172    1
   182   189   188   ar
   183   185   184   ar
   184   172   171    1
   185   172   173    1
   186   188   186   ar
   187   182   181    2
   188   184   186   ar
   189   184   183    1
   190   173   174    2
   191   181   180    1
   192   183   180    1
   193   180   179    1
