@<TRIPOS>MOLECULE
tmp/3tlbB00.pdb
 168 162 0 0 0
SMALL
GASTEIGER

@<TRIPOS>ATOM
      1  N         47.2770   48.2660   39.3670 N.3    20  ALA20      -0.1245
      2  CA        47.3420   49.7260   39.2400 C.3    20  ALA20       0.1562
      3  C         48.5150   50.3150   40.0240 C.2    20  ALA20       0.2260
      4  O         48.7840   49.8840   41.1450 O.2    20  ALA20      -0.2867
      5  CB        46.0330   50.3560   39.6850 C.3    20  ALA20       0.0290
      6  N         47.1290   47.9740   46.1810 N.3    84  ILE84      -0.1231
      7  CA        45.8220   48.2610   45.5990 C.3    84  ILE84       0.1692
      8  C         45.5260   47.2320   44.5000 C.2    84  ILE84       0.2593
      9  O         46.4280   46.5200   44.0440 O.2    84  ILE84      -0.2718
     10  CB        45.7650   49.7110   45.0250 C.3    84  ILE84       0.0266
     11  CG1       44.3150   50.1970   44.8920 C.3    84  ILE84       0.0019
     12  CG2       46.5470   49.8130   43.7080 C.3    84  ILE84       0.0020
     13  CD1       44.1680   51.7140   44.8350 C.3    84  ILE84       0.0001
     14  N         44.2660   47.1580   44.0790 N.am   85  GLY85      -0.1942
     15  CA        43.8730   46.2850   42.9780 C.3    85  GLY85       0.2014
     16  C         44.0340   46.9420   41.6190 C.2    85  GLY85       0.2639
     17  O         45.0710   47.5490   41.3170 O.2    85  GLY85      -0.2714
     18  N         42.9920   46.8240   40.8060 N.am   86  GLY86      -0.1939
     19  CA        43.0150   47.2910   39.4270 C.3    86  GLY86       0.2014
     20  C         42.2740   46.3170   38.5320 C.2    86  GLY86       0.2638
     21  O         41.0600   46.1450   38.6630 O.2    86  GLY86      -0.2714
     22  N         43.0130   45.6640   37.6370 N.am   87  ASP87      -0.1971
     23  CA        42.4200   44.7910   36.6200 C.3    87  ASP87       0.1709
     24  C         43.2920   43.5970   36.2450 C.2    87  ASP87       0.2293
     25  O         42.8030   42.6460   35.6360 O.2    87  ASP87      -0.2864
     26  CB        42.1510   45.5830   35.3360 C.3    87  ASP87       0.1436
     27  CG        41.0390   46.5910   35.4910 C.2    87  ASP87       0.3671
     28  OD1       39.8580   46.1930   35.4110 O.co2  87  ASP87      -0.2456
     29  OD2       41.3530   47.7850   35.6860 O.co2  87  ASP87      -0.2456
     30  N         42.3840   42.5630   48.3560 N.3   111  TYR111     -0.1227
     31  CA        41.0150   42.3720   47.8850 C.3   111  TYR111      0.1736
     32  C         40.8580   42.8420   46.4450 C.2   111  TYR111      0.2596
     33  O         41.8510   43.1570   45.7860 O.2   111  TYR111     -0.2718
     34  CB        39.9990   43.0290   48.8420 C.3   111  TYR111      0.0548
     35  CG        39.9540   44.5460   48.8530 C.ar  111  TYR111     -0.0200
     36  CD1       38.8850   45.2260   48.2780 C.ar  111  TYR111     -0.0009
     37  CD2       40.9550   45.2910   49.4760 C.ar  111  TYR111     -0.0009
     38  CE1       38.8240   46.6230   48.2960 C.ar  111  TYR111      0.0417
     39  CE2       40.9020   46.6820   49.5000 C.ar  111  TYR111      0.0417
     40  CZ        39.8370   47.3330   48.9040 C.ar  111  TYR111      0.1957
     41  OH        39.7840   48.7080   48.9280 O.3   111  TYR111     -0.2866
     42  N         39.6190   42.8650   45.9560 N.am  112  SER112     -0.1938
     43  CA        39.3230   43.3910   44.6230 C.3   112  SER112      0.2055
     44  C         40.0290   42.5670   43.5590 C.2   112  SER112      0.2643
     45  O         39.9470   41.3410   43.5660 O.2   112  SER112     -0.2714
     46  CB        39.7690   44.8520   44.5130 C.3   112  SER112      0.2130
     47  OG        39.1660   45.6630   45.4850 O.3   112  SER112     -0.2179
     48  N         40.7510   43.2330   42.6620 N.am  113  ASP113     -0.1971
     49  CA        41.4900   42.5350   41.6140 C.3   113  ASP113      0.1709
     50  C         42.4610   41.4890   42.1610 C.2   113  ASP113      0.2293
     51  O         42.7530   40.4970   41.4910 O.2   113  ASP113     -0.2864
     52  CB        42.2570   43.5180   40.7370 C.3   113  ASP113      0.1436
     53  CG        42.9880   42.8280   39.6180 C.2   113  ASP113      0.3671
     54  OD1       42.3090   42.3080   38.7080 O.co2 113  ASP113     -0.2456
     55  OD2       44.2350   42.7890   39.6630 O.co2 113  ASP113     -0.2456
     56  N         44.0430   51.7810   49.6820 N.3   137  PRO137     -0.2116
     57  CA        42.6390   52.1040   49.9410 C.3   137  PRO137      0.1372
     58  C         42.2160   51.8670   51.3930 C.2   137  PRO137      0.2244
     59  O         41.4410   52.6470   51.9380 O.2   137  PRO137     -0.2868
     60  CB        41.8760   51.1700   48.9920 C.3   137  PRO137      0.0268
     61  CG        42.8040   50.0370   48.7440 C.3   137  PRO137      0.0207
     62  CD        44.1800   50.6250   48.7730 C.3   137  PRO137      0.0892
     63  N         32.6760   58.2820   47.4780 N.3   177  SER177     -0.1202
     64  CA        33.8830   58.4980   46.6930 C.3   177  SER177      0.2020
     65  C         34.4400   59.9020   46.9110 C.2   177  SER177      0.2618
     66  O         34.4800   60.7220   45.9880 O.2   177  SER177     -0.2717
     67  CB        33.5970   58.2620   45.2090 C.3   177  SER177      0.2103
     68  OG        34.8020   58.1680   44.4740 O.3   177  SER177     -0.2182
     69  N         34.8530   60.1680   48.1460 N.am  178  ILE178     -0.1979
     70  CA        35.4960   61.4280   48.5190 C.3   178  ILE178      0.1595
     71  C         36.6930   61.1400   49.4230 C.2   178  ILE178      0.2287
     72  O         36.9140   59.9920   49.8300 O.2   178  ILE178     -0.2864
     73  CB        34.5240   62.3970   49.2550 C.3   178  ILE178      0.0276
     74  CG1       34.0120   61.7730   50.5610 C.3   178  ILE178      0.0022
     75  CG2       33.3740   62.8400   48.3360 C.3   178  ILE178      0.0022
     76  CD1       33.4150   62.7730   51.5390 C.3   178  ILE178      0.0001
     77  N         39.9080   60.9840   48.9640 N.3   180  TRP180     -0.1241
     78  CA        40.7660   59.9330   48.4330 C.3   180  TRP180      0.1605
     79  C         42.2670   60.1880   48.6200 C.2   180  TRP180      0.2264
     80  O         42.9370   59.4310   49.3250 O.2   180  TRP180     -0.2867
     81  CB        40.4200   59.6470   46.9640 C.3   180  TRP180      0.0550
     82  CG        41.3360   58.6520   46.3110 C.ar  180  TRP180      0.0003
     83  CD1       42.2100   58.8970   45.2940 C.ar  180  TRP180      0.0946
     84  CD2       41.4820   57.2600   46.6400 C.ar  180  TRP180      0.0152
     85  NE1       42.8870   57.7490   44.9600 N.ar  180  TRP180     -0.2442
     86  CE2       42.4630   56.7310   45.7720 C.ar  180  TRP180      0.0810
     87  CE3       40.8790   56.4090   47.5790 C.ar  180  TRP180      0.0012
     88  CZ2       42.8590   55.3890   45.8130 C.ar  180  TRP180      0.0191
     89  CZ3       41.2740   55.0710   47.6190 C.ar  180  TRP180      0.0001
     90  CH2       42.2540   54.5780   46.7400 C.ar  180  TRP180      0.0015
     91  N         36.1800   38.8600   44.9760 N.3   212  ASN212     -0.1240
     92  CA        35.5880   39.8050   44.0360 C.3   212  ASN212      0.1653
     93  C         35.0750   39.0670   42.8080 C.2   212  ASN212      0.2266
     94  O         35.8550   38.4870   42.0520 O.2   212  ASN212     -0.2867
     95  CB        36.5990   40.8760   43.6270 C.3   212  ASN212      0.1155
     96  CG        35.9720   41.9700   42.7880 C.2   212  ASN212      0.2627
     97  OD1       36.0070   41.9230   41.5560 O.2   212  ASN212     -0.2716
     98  ND2       35.3670   42.9480   43.4510 N.am  212  ASN212     -0.0877
     99  N         33.5470   39.9860   39.8700 N.3   214  ASN214     -0.1225
    100  CA        33.9920   40.4380   38.5570 C.3   214  ASN214      0.1785
    101  C         35.4180   39.9690   38.2580 C.2   214  ASN214      0.2597
    102  O         35.7250   39.5730   37.1330 O.2   214  ASN214     -0.2718
    103  CB        33.9040   41.9590   38.4380 C.3   214  ASN214      0.1169
    104  CG        34.0640   42.4380   37.0120 C.2   214  ASN214      0.2627
    105  OD1       33.2650   42.1020   36.1360 O.2   214  ASN214     -0.2716
    106  ND2       35.1030   43.2300   36.7680 N.am  214  ASN214     -0.0877
    107  N         36.2750   40.0040   39.2770 N.am  215  THR215     -0.1953
    108  CA        37.6600   39.5590   39.1350 C.3   215  THR215      0.1897
    109  C         37.7410   38.0510   38.8750 C.2   215  THR215      0.2313
    110  O         38.5950   37.5970   38.1120 O.2   215  THR215     -0.2863
    111  CB        38.5130   39.9520   40.3610 C.3   215  THR215      0.1794
    112  OG1       38.5080   41.3790   40.4980 O.3   215  THR215     -0.2208
    113  CG2       39.9530   39.4940   40.1960 C.3   215  THR215      0.0378
    114  N         32.1010   46.0570   43.1830 N.3   239  SER239     -0.1202
    115  CA        32.2280   47.4910   43.4160 C.3   239  SER239      0.2020
    116  C         31.8990   48.3120   42.1770 C.2   239  SER239      0.2619
    117  O         32.3360   47.9860   41.0700 O.2   239  SER239     -0.2717
    118  CB        33.6510   47.8130   43.8640 C.3   239  SER239      0.2103
    119  OG        33.9210   49.2030   43.7600 O.3   239  SER239     -0.2182
    120  N         31.1410   49.3900   42.3880 N.am  240  ARG240     -0.1965
    121  CA        30.8480   50.3930   41.3570 C.3   240  ARG240      0.1729
    122  C         30.2840   49.7980   40.0640 C.2   240  ARG240      0.2616
    123  O         30.5580   50.2900   38.9670 O.2   240  ARG240     -0.2715
    124  CB        32.0940   51.2370   41.0500 C.3   240  ARG240      0.0348
    125  CG        32.6350   52.0540   42.2190 C.3   240  ARG240      0.0492
    126  CD        33.9210   52.7450   41.7930 C.3   240  ARG240      0.2205
    127  NE        34.5430   53.5400   42.8520 N.pl3 240  ARG240     -0.0865
    128  CZ        34.4150   54.8590   42.9870 C.cat 240  ARG240      0.5346
    129  NH1       33.6660   55.5610   42.1430 N.pl3 240  ARG240      0.1354
    130  NH2       35.0380   55.4790   43.9810 N.pl3 240  ARG240      0.1354
    131  N         29.4960   48.7360   40.1950 N.am  241  LYS241     -0.1977
    132  CA        28.9100   48.0950   39.0260 C.3   241  LYS241      0.1596
    133  C         27.4890   48.5620   38.7850 C.2   241  LYS241      0.2287
    134  O         26.7710   48.9410   39.7190 O.2   241  LYS241     -0.2864
    135  CB        28.9220   46.5660   39.1610 C.3   241  LYS241      0.0298
    136  CG        30.2900   45.9390   39.3770 C.3   241  LYS241      0.0038
    137  CD        31.2940   46.3350   38.3080 C.3   241  LYS241      0.0206
    138  CE        32.6290   45.6480   38.5460 C.3   241  LYS241      0.1093
    139  NZ        33.7070   46.1890   37.6850 N.3   241  LYS241     -0.1314
    140  N         29.9170   48.7320   46.8590 N.3   271  GLU271     -0.1245
    141  CA        30.2870   50.1490   46.8560 C.3   271  GLU271      0.1567
    142  C         29.6470   50.8800   45.6770 C.2   271  GLU271      0.2260
    143  O         29.8770   50.5240   44.5190 O.2   271  GLU271     -0.2867
    144  CB        31.8130   50.2970   46.8080 C.3   271  GLU271      0.0388
    145  CG        32.3250   51.7350   46.6500 C.3   271  GLU271      0.1160
    146  CD        33.8120   51.8020   46.3360 C.2   271  GLU271      0.3649
    147  OE1       34.3200   50.9150   45.6200 O.co2 271  GLU271     -0.2457
    148  OE2       34.4820   52.7500   46.7980 O.co2 271  GLU271     -0.2457
    149  N         34.5480   46.6140   49.2180 N.3   305  HIS305     -0.1241
    150  CA        35.1590   47.9120   48.9250 C.3   305  HIS305      0.1621
    151  C         34.6660   49.0320   49.8420 C.2   305  HIS305      0.2264
    152  O         35.2060   50.1370   49.8050 O.2   305  HIS305     -0.2867
    153  CB        34.8990   48.3160   47.4740 C.3   305  HIS305      0.0745
    154  CG        35.6580   47.5170   46.4620 C.ar  305  HIS305      0.0817
    155  ND1       35.4370   46.1720   46.2520 N.ar  305  HIS305     -0.2268
    156  CD2       36.5970   47.8880   45.5600 C.ar  305  HIS305      0.1154
    157  CE1       36.2220   45.7460   45.2780 C.ar  305  HIS305      0.1986
    158  NE2       36.9330   46.7680   44.8390 N.ar  305  HIS305     -0.2212
    159  N         33.9070   51.0010   53.5000 N.3   307  HIS307     -0.1241
    160  CA        34.6470   51.2210   54.7410 C.3   307  HIS307      0.1621
    161  C         33.6890   51.2040   55.9270 C.2   307  HIS307      0.2264
    162  O         32.6000   51.7660   55.8400 O.2   307  HIS307     -0.2867
    163  CB        35.3920   52.5570   54.6980 C.3   307  HIS307      0.0745
    164  CG        36.4570   52.6180   53.6510 C.ar  307  HIS307      0.0817
    165  ND1       37.7610   52.2420   53.8920 N.ar  307  HIS307     -0.2268
    166  CD2       36.4100   53.0080   52.3550 C.ar  307  HIS307      0.1154
    167  CE1       38.4700   52.3950   52.7890 C.ar  307  HIS307      0.1986
    168  NE2       37.6750   52.8570   51.8410 N.ar  307  HIS307     -0.2212
@<TRIPOS>BOND
     1    26    27    1
     2    26    23    1
     3    28    27   ar
     4    27    29   ar
     5    25    24    2
     6   105   104    2
     7    24    23    1
     8    23    22    1
     9   106   104   am
    10   104   103    1
    11   102   101    2
    12    22    20   am
    13   139   138    1
    14   110   109    2
    15   101   100    1
    16   101   107   am
    17   137   138    1
    18   137   136    1
    19   103   100    1
    20    20    21    2
    21    20    19    1
    22   100    99    1
    23    54    53   ar
    24   133   132    1
    25   133   134    2
    26   109   108    1
    27   123   122    2
    28   132   135    1
    29   132   131    1
    30   108   107    1
    31   108   111    1
    32   135   136    1
    33     2     1    1
    34     2     5    1
    35     2     3    1
    36    19    18    1
    37    53    55   ar
    38    53    52    1
    39     3     4    2
    40   122   131   am
    41   122   121    1
    42   113   111    1
    43   111   112    1
    44    52    49    1
    45    18    16   am
    46   124   121    1
    47   124   125    1
    48   117   116    2
    49    17    16    2
    50   121   120    1
    51    51    50    2
    52    97    96    2
    53    49    50    1
    54    49    48    1
    55    16    15    1
    56   126   125    1
    57   126   127    1
    58    94    93    2
    59   129   128    1
    60   116   120   am
    61   116   115    1
    62    48    44   am
    63    96    98   am
    64    96    95    1
    65    93    92    1
    66   127   128    2
    67    15    14    1
    68   128   130    1
    69   114   115    1
    70   115   118    1
    71    44    45    2
    72    44    43    1
    73    95    92    1
    74    12    10    1
    75   119   118    1
    76    92    91    1
    77     9     8    2
    78    14     8   am
    79    68    67    1
    80     8     7    1
    81    46    43    1
    82    46    47    1
    83   143   142    2
    84    43    42    1
    85    13    11    1
    86   158   157   ar
    87   158   156   ar
    88    11    10    1
    89    85    83   ar
    90    85    86   ar
    91    10     7    1
    92    67    64    1
    93   157   155   ar
    94    83    82   ar
    95   156   154   ar
    96     7     6    1
    97   147   146   ar
    98   142   141    1
    99    86    88   ar
   100    86    84   ar
   101    33    32    2
   102    88    90   ar
   103    42    32   am
   104    66    65    2
   105   155   154   ar
   106    82    84   ar
   107    82    81    1
   108   146   145    1
   109   146   148   ar
   110    32    31    1
   111   154   153    1
   112    84    87   ar
   113   145   144    1
   114    64    65    1
   115    64    63    1
   116    90    89   ar
   117   144   141    1
   118   141   140    1
   119    65    69   am
   120    81    78    1
   121   153   150    1
   122    87    89   ar
   123    31    30    1
   124    31    34    1
   125    69    70    1
   126    36    38   ar
   127    36    35   ar
   128    38    40   ar
   129    75    73    1
   130    78    79    1
   131    78    77    1
   132    70    73    1
   133    70    71    1
   134    79    80    2
   135    61    62    1
   136    61    60    1
   137    62    56    1
   138    34    35    1
   139    35    37   ar
   140    40    41    1
   141    40    39   ar
   142   150   149    1
   143   150   151    1
   144    60    57    1
   145    73    74    1
   146    71    72    2
   147    37    39   ar
   148    56    57    1
   149   152   151    2
   150    57    58    1
   151    74    76    1
   152    58    59    2
   153   168   166   ar
   154   168   167   ar
   155   166   164   ar
   156   167   165   ar
   157   159   160    1
   158   164   165   ar
   159   164   163    1
   160   163   160    1
   161   160   161    1
   162   162   161    2
