@<TRIPOS>MOLECULE
tmp/3tlcA00.pdb
 167 161 0 0 0
SMALL
GASTEIGER

@<TRIPOS>ATOM
      1  N         -7.1830   -0.9670   32.1380 N.3    20  ALA20      -0.1245
      2  CA        -7.2590    0.4940   32.2500 C.3    20  ALA20       0.1562
      3  C         -8.4380    1.0790   31.4650 C.2    20  ALA20       0.2260
      4  O         -8.6930    0.6650   30.3320 O.2    20  ALA20      -0.2867
      5  CB        -5.9530    1.1340   31.8000 C.3    20  ALA20       0.0290
      6  N         -6.9540   -1.2760   25.2970 N.3    84  ILE84      -0.1231
      7  CA        -5.6600   -0.9590   25.8980 C.3    84  ILE84       0.1692
      8  C         -5.3720   -1.9870   26.9980 C.2    84  ILE84       0.2593
      9  O         -6.2710   -2.7160   27.4230 O.2    84  ILE84      -0.2718
     10  CB        -5.6350    0.4910   26.4780 C.3    84  ILE84       0.0266
     11  CG1       -4.1960    1.0150   26.5960 C.3    84  ILE84       0.0019
     12  CG2       -6.3980    0.5650   27.8070 C.3    84  ILE84       0.0020
     13  CD1       -4.0880    2.5270   26.7120 C.3    84  ILE84       0.0001
     14  N         -4.1240   -2.0400   27.4540 N.am   85  GLY85      -0.1942
     15  CA        -3.7410   -2.9220   28.5490 C.3    85  GLY85       0.2014
     16  C         -3.8990   -2.2730   29.9100 C.2    85  GLY85       0.2639
     17  O         -4.9280   -1.6590   30.2090 O.2    85  GLY85      -0.2714
     18  N         -2.8650   -2.4080   30.7330 N.am   86  GLY86      -0.1939
     19  CA        -2.9010   -1.9520   32.1140 C.3    86  GLY86       0.2014
     20  C         -2.1830   -2.9380   33.0130 C.2    86  GLY86       0.2638
     21  O         -0.9660   -3.1130   32.9060 O.2    86  GLY86      -0.2714
     22  N         -2.9420   -3.6030   33.8820 N.am   87  ASP87      -0.1971
     23  CA        -2.3710   -4.4780   34.9080 C.3    87  ASP87       0.1709
     24  C         -3.2540   -5.6720   35.2610 C.2    87  ASP87       0.2293
     25  O         -2.7770   -6.6330   35.8580 O.2    87  ASP87      -0.2864
     26  CB        -2.1290   -3.6890   36.2000 C.3    87  ASP87       0.1436
     27  CG        -1.0790   -2.6130   36.0450 C.2    87  ASP87       0.3671
     28  OD1        0.1220   -2.9250   36.1860 O.co2  87  ASP87      -0.2456
     29  OD2       -1.4630   -1.4520   35.7920 O.co2  87  ASP87      -0.2456
     30  N         -2.3100   -6.6870   23.1340 N.3   111  TYR111     -0.1227
     31  CA        -0.9480   -6.8980   23.6040 C.3   111  TYR111      0.1736
     32  C         -0.7890   -6.4180   25.0360 C.2   111  TYR111      0.2595
     33  O         -1.7790   -6.0840   25.6930 O.2   111  TYR111     -0.2718
     34  CB         0.0730   -6.2480   22.6530 C.3   111  TYR111      0.0548
     35  CG         0.1200   -4.7330   22.6390 C.ar  111  TYR111     -0.0200
     36  CD1        1.1670   -4.0510   23.2560 C.ar  111  TYR111     -0.0009
     37  CD2       -0.8550   -3.9840   21.9740 C.ar  111  TYR111     -0.0009
     38  CE1        1.2300   -2.6620   23.2360 C.ar  111  TYR111      0.0417
     39  CE2       -0.7980   -2.5930   21.9470 C.ar  111  TYR111      0.0417
     40  CZ         0.2450   -1.9430   22.5820 C.ar  111  TYR111      0.1957
     41  OH         0.3080   -0.5700   22.5610 O.3   111  TYR111     -0.2866
     42  N          0.4510   -6.4080   25.5210 N.am  112  ALA112     -0.1966
     43  CA         0.7680   -5.8670   26.8380 C.3   112  ALA112      0.1728
     44  C          0.0290   -6.6600   27.9170 C.2   112  ALA112      0.2616
     45  O          0.0910   -7.8890   27.9230 O.2   112  ALA112     -0.2715
     46  CB         0.4270   -4.3820   26.8910 C.3   112  ALA112      0.0334
     47  N         -0.6880   -5.9810   28.8100 N.am  113  ASP113     -0.1971
     48  CA        -1.4280   -6.6810   29.8600 C.3   113  ASP113      0.1709
     49  C         -2.4060   -7.7270   29.3220 C.2   113  ASP113      0.2293
     50  O         -2.6830   -8.7290   29.9880 O.2   113  ASP113     -0.2864
     51  CB        -2.1790   -5.6960   30.7460 C.3   113  ASP113      0.1436
     52  CG        -2.8990   -6.3840   31.8730 C.2   113  ASP113      0.3671
     53  OD1       -2.2160   -6.9210   32.7670 O.co2 113  ASP113     -0.2456
     54  OD2       -4.1460   -6.4080   31.8510 O.co2 113  ASP113     -0.2456
     55  N         -3.9060    2.5300   21.8200 N.3   137  PRO137     -0.2116
     56  CA        -2.5010    2.8420   21.5490 C.3   137  PRO137      0.1372
     57  C         -2.0810    2.6040   20.0950 C.2   137  PRO137      0.2244
     58  O         -1.3000    3.3820   19.5520 O.2   137  PRO137     -0.2868
     59  CB        -1.7420    1.9050   22.4960 C.3   137  PRO137      0.0268
     60  CG        -2.6740    0.7750   22.7410 C.3   137  PRO137      0.0207
     61  CD        -4.0450    1.3730   22.7250 C.3   137  PRO137      0.0892
     62  N          7.4970    9.0460   24.0550 N.3   177  SER177     -0.1202
     63  CA         6.2860    9.2750   24.8340 C.3   177  SER177      0.2020
     64  C          5.7570   10.6880   24.6060 C.2   177  SER177      0.2618
     65  O          5.7730   11.5290   25.5110 O.2   177  SER177     -0.2717
     66  CB         6.5570    9.0320   26.3200 C.3   177  SER177      0.2103
     67  OG         5.3510    9.0130   27.0600 O.3   177  SER177     -0.2182
     68  N          5.3120   10.9390   23.3780 N.am  178  ILE178     -0.1979
     69  CA         4.6840   12.2050   22.9990 C.3   178  ILE178      0.1595
     70  C          3.4850   11.9090   22.1040 C.2   178  ILE178      0.2287
     71  O          3.2730   10.7570   21.7050 O.2   178  ILE178     -0.2864
     72  CB         5.6630   13.1630   22.2510 C.3   178  ILE178      0.0276
     73  CG1        6.1380   12.5440   20.9290 C.3   178  ILE178      0.0022
     74  CG2        6.8390   13.5730   23.1500 C.3   178  ILE178      0.0022
     75  CD1        6.7300   13.5430   19.9510 C.3   178  ILE178      0.0001
     76  N          0.2610   11.7210   22.5840 N.3   180  TRP180     -0.1241
     77  CA        -0.5830   10.6570   23.1130 C.3   180  TRP180      0.1605
     78  C         -2.0850   10.8970   22.9150 C.2   180  TRP180      0.2264
     79  O         -2.7420   10.1340   22.2060 O.2   180  TRP180     -0.2867
     80  CB        -0.2450   10.3640   24.5850 C.3   180  TRP180      0.0550
     81  CG        -1.1730    9.3630   25.2190 C.ar  180  TRP180      0.0003
     82  CD1       -2.0730    9.6040   26.2140 C.ar  180  TRP180      0.0946
     83  CD2       -1.3090    7.9720   24.8830 C.ar  180  TRP180      0.0152
     84  NE1       -2.7570    8.4540   26.5250 N.ar  180  TRP180     -0.2442
     85  CE2       -2.3100    7.4370   25.7220 C.ar  180  TRP180      0.0810
     86  CE3       -0.6770    7.1260   23.9590 C.ar  180  TRP180      0.0012
     87  CZ2       -2.6990    6.0930   25.6660 C.ar  180  TRP180      0.0191
     88  CZ3       -1.0650    5.7880   23.9040 C.ar  180  TRP180      0.0001
     89  CH2       -2.0680    5.2890   24.7520 C.ar  180  TRP180      0.0015
     90  N          3.8820  -10.3450   26.4890 N.3   212  ASN212     -0.1240
     91  CA         4.4610   -9.3950   27.4310 C.3   212  ASN212      0.1653
     92  C          4.9880  -10.1340   28.6520 C.2   212  ASN212      0.2266
     93  O          4.2180  -10.7470   29.3950 O.2   212  ASN212     -0.2867
     94  CB         3.4340   -8.3410   27.8410 C.3   212  ASN212      0.1155
     95  CG         4.0350   -7.2380   28.6890 C.2   212  ASN212      0.2627
     96  OD1        3.9980   -7.2980   29.9190 O.2   212  ASN212     -0.2716
     97  ND2        4.6000   -6.2270   28.0370 N.am  212  ASN212     -0.0877
     98  N          6.4950   -9.2080   31.5820 N.3   214  ASN214     -0.1225
     99  CA         6.0380   -8.7600   32.8910 C.3   214  ASN214      0.1785
    100  C          4.6200   -9.2460   33.1890 C.2   214  ASN214      0.2597
    101  O          4.3250   -9.6710   34.3050 O.2   214  ASN214     -0.2718
    102  CB         6.1150   -7.2410   33.0230 C.3   214  ASN214      0.1169
    103  CG         5.9900   -6.7860   34.4560 C.2   214  ASN214      0.2627
    104  OD1        6.7850   -7.1800   35.3130 O.2   214  ASN214     -0.2716
    105  ND2        4.9850   -5.9630   34.7320 N.am  214  ASN214     -0.0877
    106  N          3.7530   -9.2040   32.1810 N.am  215  THR215     -0.1953
    107  CA         2.3740   -9.6630   32.3420 C.3   215  THR215      0.1897
    108  C          2.2920  -11.1720   32.5960 C.2   215  THR215      0.2313
    109  O          1.4410  -11.6260   33.3620 O.2   215  THR215     -0.2863
    110  CB         1.5070   -9.2660   31.1320 C.3   215  THR215      0.1794
    111  OG1        1.5170   -7.8420   30.9960 O.3   215  THR215     -0.2208
    112  CG2        0.0700   -9.7310   31.3150 C.3   215  THR215      0.0378
    113  N          7.8700   -3.1120   28.2670 N.3   239  SER239     -0.1202
    114  CA         7.7240   -1.6830   28.0350 C.3   239  SER239      0.2020
    115  C          8.1210   -0.8690   29.2550 C.2   239  SER239      0.2619
    116  O          7.7010   -1.1720   30.3730 O.2   239  SER239     -0.2717
    117  CB         6.2690   -1.3700   27.6860 C.3   239  SER239      0.2103
    118  OG         5.9790    0.0100   27.8370 O.3   239  SER239     -0.2182
    119  N          8.9220    0.1700   29.0210 N.am  240  ARG240     -0.1965
    120  CA         9.2610    1.1820   30.0290 C.3   240  ARG240      0.1729
    121  C          9.8150    0.6010   31.3320 C.2   240  ARG240      0.2616
    122  O          9.5570    1.1260   32.4170 O.2   240  ARG240     -0.2715
    123  CB         8.0490    2.0740   30.3350 C.3   240  ARG240      0.0348
    124  CG         7.4940    2.8800   29.1680 C.3   240  ARG240      0.0492
    125  CD         6.1750    3.5040   29.6050 C.3   240  ARG240      0.2205
    126  NE         5.5210    4.3290   28.5890 N.pl3 240  ARG240     -0.0865
    127  CZ         5.6280    5.6540   28.5020 C.cat 240  ARG240      0.5346
    128  NH1        6.3870    6.3340   29.3540 N.pl3 240  ARG240      0.1354
    129  NH2        4.9720    6.3040   27.5500 N.pl3 240  ARG240      0.1354
    130  N         10.5800   -0.4810   31.2230 N.am  241  LYS241     -0.1977
    131  CA        11.1530   -1.1160   32.4040 C.3   241  LYS241      0.1596
    132  C         12.5790   -0.6640   32.6560 C.2   241  LYS241      0.2287
    133  O         13.3130   -0.3020   31.7300 O.2   241  LYS241     -0.2864
    134  CB        11.1190   -2.6470   32.2960 C.3   241  LYS241      0.0298
    135  CG         9.7460   -3.2590   32.0600 C.3   241  LYS241      0.0038
    136  CD         8.7310   -2.8420   33.1140 C.3   241  LYS241      0.0206
    137  CE         7.4120   -3.5510   32.8810 C.3   241  LYS241      0.1093
    138  NZ         6.3130   -2.9670   33.6840 N.3   241  LYS241     -0.1314
    139  N         10.1760   -0.5120   24.5570 N.3   271  GLU271     -0.1245
    140  CA         9.8050    0.9020   24.5900 C.3   271  GLU271      0.1567
    141  C         10.4650    1.6170   25.7670 C.2   271  GLU271      0.2260
    142  O         10.2270    1.2660   26.9240 O.2   271  GLU271     -0.2867
    143  CB         8.2830    1.0460   24.6770 C.3   271  GLU271      0.0388
    144  CG         7.7850    2.4800   24.8530 C.3   271  GLU271      0.1160
    145  CD         6.2990    2.5590   25.1520 C.2   271  GLU271      0.3649
    146  OE1        5.7720    1.6740   25.8580 O.co2 271  GLU271     -0.2457
    147  OE2        5.6510    3.5160   24.6830 O.co2 271  GLU271     -0.2457
    148  N          5.5500   -2.5940   22.2290 N.3   305  HIS305     -0.1241
    149  CA         4.9680   -1.2890   22.5330 C.3   305  HIS305      0.1621
    150  C          5.4880   -0.1700   21.6280 C.2   305  HIS305      0.2264
    151  O          4.9850    0.9520   21.6800 O.2   305  HIS305     -0.2867
    152  CB         5.2360   -0.9100   23.9850 C.3   305  HIS305      0.0745
    153  CG         4.3990   -1.6490   24.9800 C.ar  305  HIS305      0.0817
    154  ND1        4.5520   -2.9960   25.2340 N.ar  305  HIS305     -0.2268
    155  CD2        3.4300   -1.2160   25.8190 C.ar  305  HIS305      0.1154
    156  CE1        3.6990   -3.3620   26.1750 C.ar  305  HIS305      0.1986
    157  NE2        3.0090   -2.3000   26.5490 N.ar  305  HIS305     -0.2212
    158  N          6.2380    1.7680   17.9460 N.3   307  HIS307     -0.1241
    159  CA         5.4750    2.0000   16.7220 C.3   307  HIS307      0.1621
    160  C          6.4150    2.0100   15.5220 C.2   307  HIS307      0.2264
    161  O          7.4890    2.6030   15.5900 O.2   307  HIS307     -0.2867
    162  CB         4.7190    3.3260   16.8030 C.3   307  HIS307      0.0745
    163  CG         3.6920    3.3660   17.8880 C.ar  307  HIS307      0.0817
    164  ND1        2.4000    2.9210   17.7060 N.ar  307  HIS307     -0.2268
    165  CD2        3.7690    3.7900   19.1710 C.ar  307  HIS307      0.1154
    166  CE1        1.7240    3.0730   18.8310 C.ar  307  HIS307      0.1986
    167  NE2        2.5310    3.5980   19.7350 N.ar  307  HIS307     -0.2212
@<TRIPOS>BOND
     1   160   161    2
     2   160   159    1
     3   159   162    1
     4   159   158    1
     5   162   163    1
     6   164   163   ar
     7   164   166   ar
     8   163   165   ar
     9   166   167   ar
    10   165   167   ar
    11    58    57    2
    12    75    73    1
    13    57    56    1
    14    73    72    1
    15    56    55    1
    16    56    59    1
    17   150   151    2
    18   150   149    1
    19    71    70    2
    20    55    61    1
    21    39    37   ar
    22    39    40   ar
    23    37    35   ar
    24    70    69    1
    25    79    78    2
    26   148   149    1
    27    72    69    1
    28    72    74    1
    29    59    60    1
    30   149   152    1
    31    41    40    1
    32    40    38   ar
    33    76    77    1
    34    35    34    1
    35    35    36   ar
    36    34    31    1
    37    61    60    1
    38    78    77    1
    39    69    68    1
    40    77    80    1
    41    30    31    1
    42    38    36   ar
    43    68    64   am
    44    31    32    1
    45    88    86   ar
    46    88    89   ar
    47    86    83   ar
    48   152   153    1
    49    62    63    1
    50   139   140    1
    51    80    81    1
    52   140   143    1
    53   140   141    1
    54    64    63    1
    55    64    65    2
    56   143   144    1
    57   147   145   ar
    58    89    87   ar
    59    63    66    1
    60   144   145    1
    61    83    81   ar
    62    83    85   ar
    63   153   154   ar
    64   153   155   ar
    65    32    42   am
    66    32    33    2
    67   145   146   ar
    68    81    82   ar
    69   154   156   ar
    70     6     7    1
    71    42    43    1
    72    87    85   ar
    73    85    84   ar
    74   141   142    2
    75   155   157   ar
    76     7    10    1
    77     7     8    1
    78   156   157   ar
    79    82    84   ar
    80    66    67    1
    81    10    11    1
    82    10    12    1
    83    90    91    1
    84    11    13    1
    85    43    46    1
    86    43    44    1
    87     8     9    2
    88     8    14   am
    89    91    94    1
    90    91    92    1
    91    14    15    1
    92   129   127    1
    93   117   118    1
    94   117   114    1
    95    94    95    1
    96    44    45    2
    97    44    47   am
    98   114   113    1
    99   114   115    1
   100    97    95   am
   101   127   126    2
   102   127   128    1
   103    15    16    1
   104   126   125    1
   105    92    93    2
   106    95    96    2
   107    47    48    1
   108   119   115   am
   109   119   120    1
   110   124   125    1
   111   124   123    1
   112   115   116    2
   113    49    48    1
   114    49    50    2
   115    48    51    1
   116    16    17    2
   117    16    18   am
   118   120   123    1
   119   120   121    1
   120     4     3    2
   121    18    19    1
   122    51    52    1
   123   111   110    1
   124   110   112    1
   125   110   107    1
   126   130   121   am
   127   130   131    1
   128   121   122    2
   129     3     2    1
   130    98    99    1
   131   133   132    2
   132     5     2    1
   133    54    52   ar
   134    52    53   ar
   135   135   134    1
   136   135   136    1
   137    19    20    1
   138     1     2    1
   139   106   107    1
   140   106   100   am
   141   134   131    1
   142   107   108    1
   143   131   132    1
   144   108   109    2
   145   137   136    1
   146   137   138    1
   147    99   102    1
   148    99   100    1
   149    21    20    2
   150    20    22   am
   151   102   103    1
   152   100   101    2
   153    22    23    1
   154   103   105   am
   155   103   104    2
   156    23    24    1
   157    23    26    1
   158    24    25    2
   159    29    27   ar
   160    27    28   ar
   161    27    26    1
