@<TRIPOS>MOLECULE
tmp/3tlhA00.pdb
 100 95 0 0 0
SMALL
GASTEIGER

@<TRIPOS>ATOM
      1  N        -10.2360   24.7140   30.6990 N.3    25  ASP25      -0.1239
      2  CA       -10.8400   23.5270   30.0870 C.3    25  ASP25       0.1674
      3  C        -12.2110   23.1430   30.6160 C.2    25  ASP25       0.2266
      4  O        -12.3380   22.6020   31.7140 O.2    25  ASP25      -0.2867
      5  CB        -9.8660   22.3720   30.3270 C.3    25  ASP25       0.1410
      6  CG       -10.2390   21.1050   29.5960 C.2    25  ASP25       0.3668
      7  OD1      -11.3030   21.0850   28.9460 O.co2  25  ASP25      -0.2456
      8  OD2       -9.4330   20.1510   29.6820 O.co2  25  ASP25      -0.2456
      9  N        -14.0380   20.7510   29.6270 N.3    27  GLY27      -0.1210
     10  CA       -14.1560   19.3010   29.6060 C.3    27  GLY27       0.1956
     11  C        -13.4350   18.5980   30.7290 C.2    27  GLY27       0.2612
     12  O        -13.3360   17.3740   30.7830 O.2    27  GLY27      -0.2717
     13  N        -12.8890   19.3590   31.6830 N.am   28  ALA28      -0.1965
     14  CA       -12.1760   18.7030   32.7760 C.3    28  ALA28       0.1728
     15  C        -12.9350   18.9290   34.0790 C.2    28  ALA28       0.2616
     16  O        -13.2170   20.0730   34.4380 O.2    28  ALA28      -0.2715
     17  CB       -10.7560   19.2340   32.8620 C.3    28  ALA28       0.0334
     18  N        -13.2710   17.8550   34.7770 N.am   29  ASP29      -0.1957
     19  CA       -13.9290   17.9300   36.0730 C.3    29  ASP29       0.1840
     20  C        -13.0490   18.6280   37.1210 C.2    29  ASP29       0.2622
     21  O        -13.5580   19.4840   37.8370 O.2    29  ASP29      -0.2715
     22  CB       -14.2940   16.5270   36.5740 C.3    29  ASP29       0.1450
     23  CG       -15.1930   15.7440   35.6410 C.2    29  ASP29       0.3671
     24  OD1      -15.8240   16.3070   34.7220 O.co2  29  ASP29      -0.2456
     25  OD2      -15.2790   14.5180   35.8420 O.co2  29  ASP29      -0.2456
     26  N        -11.7860   18.2710   37.1740 N.am   30  ASP30      -0.1971
     27  CA       -10.7230   18.6700   38.0630 C.3    30  ASP30       0.1709
     28  C         -9.6010   19.4860   37.4140 C.2    30  ASP30       0.2293
     29  O         -9.4630   19.6130   36.2010 O.2    30  ASP30      -0.2864
     30  CB       -10.0550   17.4210   38.6740 C.3    30  ASP30       0.1436
     31  CG       -11.0230   16.5490   39.4480 C.2    30  ASP30       0.3671
     32  OD1      -11.7860   17.0840   40.2740 O.co2  30  ASP30      -0.2456
     33  OD2      -11.0360   15.3190   39.2320 O.co2  30  ASP30      -0.2456
     34  N         -5.5820   19.9710   36.8690 N.3    32  VAL32      -0.1245
     35  CA        -4.4060   19.0930   37.0450 C.3    32  VAL32       0.1561
     36  C         -3.1680   19.7940   36.5010 C.2    32  VAL32       0.2260
     37  O         -3.1750   20.2430   35.3610 O.2    32  VAL32      -0.2867
     38  CB        -4.6240   17.7230   36.3870 C.3    32  VAL32       0.0252
     39  CG1       -5.3460   17.8820   35.0640 C.3    32  VAL32       0.0019
     40  CG2       -3.3300   16.9520   36.1730 C.3    32  VAL32       0.0019
     41  N         -4.5540    9.4450   43.8460 N.3    45  LYS45      -0.1231
     42  CA        -5.8060    9.4220   43.0900 C.3    45  LYS45       0.1693
     43  C         -5.5660    8.9880   41.6470 C.2    45  LYS45       0.2592
     44  O         -4.4060    8.9640   41.2320 O.2    45  LYS45      -0.2718
     45  CB        -6.4500   10.8020   43.1090 C.3    45  LYS45       0.0285
     46  CG        -7.9590   10.8660   43.0270 C.3    45  LYS45       0.0035
     47  CD        -8.4230   12.1480   42.3480 C.3    45  LYS45       0.0206
     48  CE        -9.7700   12.6160   42.8730 C.3    45  LYS45       0.1093
     49  NZ       -10.7720   12.7570   41.7790 N.3    45  LYS45      -0.1314
     50  N         -6.6540    8.6760   40.9480 N.am   46  MET46      -0.1965
     51  CA        -6.6300    8.3090   39.5410 C.3    46  MET46       0.1736
     52  C         -7.5050    9.2200   38.6890 C.2    46  MET46       0.2616
     53  O         -8.6540    9.5100   39.0280 O.2    46  MET46      -0.2715
     54  CB        -7.1130    6.8680   39.3340 C.3    46  MET46       0.0427
     55  CG        -6.6350    5.9430   40.4530 C.3    46  MET46       0.0599
     56  SD        -4.9260    5.4440   40.1420 S.3    46  MET46      -0.1393
     57  CE        -5.0090    5.2200   38.3650 C.3    46  MET46       0.0692
     58  N         -6.9640    9.6590   37.5550 N.am   47  ILE47      -0.1963
     59  CA        -7.7870   10.3900   36.5950 C.3    47  ILE47       0.1727
     60  C         -7.7220    9.7340   35.2270 C.2    47  ILE47       0.2617
     61  O         -6.7150    9.1610   34.8050 O.2    47  ILE47      -0.2715
     62  CB        -7.3560   11.8640   36.4860 C.3    47  ILE47       0.0290
     63  CG1       -5.9370   12.1020   35.9680 C.3    47  ILE47       0.0022
     64  CG2       -7.5320   12.5670   37.8220 C.3    47  ILE47       0.0023
     65  CD1       -5.7790   13.4430   35.2710 C.3    47  ILE47       0.0001
     66  N         -8.8300    9.8060   34.4920 N.am   48  GLY48      -0.1940
     67  CA        -8.8870    9.1650   33.1910 C.3    48  GLY48       0.2014
     68  C         -9.3300   10.1400   32.1090 C.2    48  GLY48       0.2639
     69  O         -9.9900   11.1440   32.3930 O.2    48  GLY48      -0.2714
     70  N         -8.9490    9.8240   30.8770 N.am   49  GLY49      -0.1939
     71  CA        -9.2550   10.6350   29.7100 C.3    49  GLY49       0.2014
     72  C         -9.1240    9.8330   28.4360 C.2    49  GLY49       0.2638
     73  O         -9.2170    8.6030   28.4520 O.2    49  GLY49      -0.2714
     74  N         -8.9160   10.4790   27.2780 N.am   50  ILE50      -0.1977
     75  CA        -8.7940    9.5800   26.1290 C.3    50  ILE50       0.1596
     76  C         -7.4400    8.8810   26.2110 C.2    50  ILE50       0.2287
     77  O         -6.4270    9.4720   26.5810 O.2    50  ILE50      -0.2864
     78  CB        -8.9080   10.2860   24.7710 C.3    50  ILE50       0.0276
     79  CG1       -7.8510   11.3810   24.6210 C.3    50  ILE50       0.0022
     80  CG2      -10.3080   10.8020   24.4940 C.3    50  ILE50       0.0022
     81  CD1       -6.6840   10.9500   23.7560 C.3    50  ILE50       0.0001
     82  N         -5.4760    6.3560   31.7970 N.3    53  PHE53      -0.1241
     83  CA        -5.6030    6.8360   33.1580 C.3    53  PHE53       0.1605
     84  C         -4.2180    7.2160   33.6610 C.2    53  PHE53       0.2264
     85  O         -3.2140    6.7570   33.1090 O.2    53  PHE53      -0.2867
     86  CB        -6.2750    5.8090   34.0680 C.3    53  PHE53       0.0534
     87  CG        -7.7930    5.8950   34.2240 C.ar   53  PHE53      -0.0203
     88  CD1       -8.3480    6.6790   35.2420 C.ar   53  PHE53      -0.0042
     89  CD2       -8.6260    5.1560   33.3750 C.ar   53  PHE53      -0.0042
     90  CE1       -9.7380    6.7560   35.3860 C.ar   53  PHE53      -0.0003
     91  CE2      -10.0160    5.2270   33.5250 C.ar   53  PHE53      -0.0003
     92  CZ       -10.5720    6.0320   34.5260 C.ar   53  PHE53      -0.0000
     93  N         -3.8920   22.2760   33.2640 N.3    84  ILE84      -0.1245
     94  CA        -5.3280   22.3410   32.9800 C.3    84  ILE84       0.1561
     95  C         -6.1150   22.8900   34.1600 C.2    84  ILE84       0.2260
     96  O         -6.0450   22.3250   35.2580 O.2    84  ILE84      -0.2867
     97  CB        -5.8600   20.9210   32.6720 C.3    84  ILE84       0.0252
     98  CG1       -5.4310   20.3820   31.3110 C.3    84  ILE84       0.0019
     99  CG2       -7.3670   20.8670   32.8360 C.3    84  ILE84       0.0019
    100  CD1       -5.2380   18.8890   31.2940 C.3    84  ILE84       0.0001
@<TRIPOS>BOND
     1    81    79    1
     2    80    78    1
     3    79    78    1
     4    78    75    1
     5    75    76    1
     6    75    74    1
     7    76    77    2
     8    74    72   am
     9    72    73    2
    10    72    71    1
    11     7     6   ar
    12     6     8   ar
    13     6     5    1
    14    10     9    1
    15    10    11    1
    16    71    70    1
    17     2     5    1
    18     2     3    1
    19     2     1    1
    20     3     4    2
    21    11    12    2
    22    11    13   am
    23    70    68   am
    24   100    98    1
    25    98    97    1
    26    13    14    1
    27    82    83    1
    28    68    69    2
    29    68    67    1
    30    97    99    1
    31    97    94    1
    32    14    17    1
    33    14    15    1
    34    94    93    1
    35    94    95    1
    36    85    84    2
    37    83    84    1
    38    83    86    1
    39    67    66    1
    40    89    91   ar
    41    89    87   ar
    42    91    92   ar
    43    86    87    1
    44    15    16    2
    45    15    18   am
    46    95    96    2
    47    87    88   ar
    48    66    60   am
    49    92    90   ar
    50    24    23   ar
    51    18    19    1
    52    61    60    2
    53    39    38    1
    54    60    59    1
    55    88    90   ar
    56    65    63    1
    57    37    36    2
    58    23    25   ar
    59    23    22    1
    60    63    62    1
    61    19    22    1
    62    19    20    1
    63    40    38    1
    64    29    28    2
    65    38    35    1
    66    62    59    1
    67    62    64    1
    68    36    35    1
    69    59    58    1
    70    34    35    1
    71    20    26   am
    72    20    21    2
    73    26    27    1
    74    28    27    1
    75    58    52   am
    76    27    30    1
    77    57    56    1
    78    30    31    1
    79    52    53    2
    80    52    51    1
    81    33    31   ar
    82    54    51    1
    83    54    55    1
    84    31    32   ar
    85    51    50    1
    86    56    55    1
    87    50    43   am
    88    44    43    2
    89    43    42    1
    90    49    48    1
    91    47    48    1
    92    47    46    1
    93    46    45    1
    94    42    45    1
    95    42    41    1
