@<TRIPOS>MOLECULE
tmp/3tlkA00.pdb
 167 158 0 0 0
SMALL
GASTEIGER

@<TRIPOS>ATOM
      1  N         13.6870  -13.3360  -13.6800 N.3    28  VAL28      -0.1231
      2  CA        13.2530  -14.6820  -13.3090 C.3    28  VAL28       0.1692
      3  C         14.1270  -15.7640  -13.9900 C.2    28  VAL28       0.2592
      4  O         14.3750  -16.8280  -13.4070 O.2    28  VAL28      -0.2718
      5  CB        11.7390  -14.8820  -13.5440 C.3    28  VAL28       0.0266
      6  CG1       11.4170  -14.9780  -15.0360 C.3    28  VAL28       0.0020
      7  CG2       11.2410  -16.1060  -12.7930 C.3    28  VAL28       0.0020
      8  N         14.6310  -15.4880  -15.1900 N.am   29  THR29      -0.1953
      9  CA        15.5400  -16.4340  -15.8610 C.3    29  THR29       0.1897
     10  C         16.8310  -16.6740  -15.0560 C.2    29  THR29       0.2313
     11  O         17.2350  -17.8230  -14.8390 O.2    29  THR29      -0.2863
     12  CB        15.9310  -15.9610  -17.3040 C.3    29  THR29       0.1794
     13  OG1       14.7520  -15.7790  -18.0920 O.3    29  THR29      -0.2208
     14  CG2       16.8330  -16.9790  -18.0110 C.3    29  THR29       0.0378
     15  N          7.1710  -13.8810  -13.4500 N.3    47  THR47      -0.1203
     16  CA         6.2630  -13.6480  -14.5720 C.3    47  THR47       0.1994
     17  C          4.8480  -13.9630  -14.0900 C.2    47  THR47       0.2618
     18  O          4.6160  -14.0670  -12.8880 O.2    47  THR47      -0.2717
     19  CB         6.6530  -14.4590  -15.8350 C.3    47  THR47       0.1784
     20  OG1        5.8150  -14.0690  -16.9450 O.3    47  THR47      -0.2211
     21  CG2        6.5390  -15.9630  -15.5910 C.3    47  THR47       0.0376
     22  N          3.8980  -14.1060  -15.0040 N.am   48  THR48      -0.1952
     23  CA         2.5060  -14.3060  -14.6030 C.3    48  THR48       0.1897
     24  C          2.2470  -15.6970  -14.0100 C.2    48  THR48       0.2313
     25  O          2.5070  -16.7040  -14.6580 O.2    48  THR48      -0.2863
     26  CB         1.5650  -14.0840  -15.8090 C.3    48  THR48       0.1794
     27  OG1        1.9670  -12.9010  -16.5160 O.3    48  THR48      -0.2208
     28  CG2        0.1280  -13.9590  -15.3410 C.3    48  THR48       0.0378
     29  N          0.9000  -19.0910  -15.9790 N.3    51  ASN51      -0.1225
     30  CA         0.9940  -18.9670  -17.4360 C.3    51  ASN51       0.1785
     31  C          1.6900  -20.1970  -18.0170 C.2    51  ASN51       0.2597
     32  O          1.8940  -21.1880  -17.3170 O.2    51  ASN51      -0.2718
     33  CB         1.6310  -17.6290  -17.8800 C.3    51  ASN51       0.1169
     34  CG         3.1400  -17.6020  -17.7400 C.2    51  ASN51       0.2627
     35  OD1        3.7610  -18.5890  -17.3810 O.2    51  ASN51      -0.2716
     36  ND2        3.7400  -16.4460  -18.0420 N.am   51  ASN51      -0.0877
     37  N          2.0470  -20.1480  -19.2910 N.am   52  ARG52      -0.1966
     38  CA         2.5200  -21.3510  -19.9670 C.3    52  ARG52       0.1729
     39  C          3.8280  -21.9020  -19.4080 C.2    52  ARG52       0.2616
     40  O          4.0970  -23.1090  -19.5240 O.2    52  ARG52      -0.2715
     41  CB         2.6520  -21.0870  -21.4710 C.3    52  ARG52       0.0348
     42  CG         1.3240  -21.0230  -22.1980 C.3    52  ARG52       0.0492
     43  CD         1.4580  -20.2980  -23.5520 C.3    52  ARG52       0.2205
     44  NE         2.4290  -20.9560  -24.4210 N.pl3  52  ARG52      -0.0865
     45  CZ         2.9340  -20.4150  -25.5320 C.cat  52  ARG52       0.5346
     46  NH1        2.5770  -19.1950  -25.9080 N.pl3  52  ARG52       0.1354
     47  NH2        3.8130  -21.0970  -26.2580 N.pl3  52  ARG52       0.1354
     48  N          4.6340  -21.0260  -18.8050 N.am   53  VAL53      -0.1977
     49  CA         5.9980  -21.3830  -18.3990 C.3    53  VAL53       0.1596
     50  C          6.2670  -21.2670  -16.8920 C.2    53  VAL53       0.2287
     51  O          7.3720  -21.5490  -16.4290 O.2    53  VAL53      -0.2864
     52  CB         7.0310  -20.5400  -19.1680 C.3    53  VAL53       0.0276
     53  CG1        6.8650  -20.7530  -20.6740 C.3    53  VAL53       0.0022
     54  CG2        6.8810  -19.0610  -18.8180 C.3    53  VAL53       0.0022
     55  N          9.7500  -19.9180  -12.6440 N.3    60  LEU60      -0.1245
     56  CA         9.8920  -20.9270  -13.7050 C.3    60  LEU60       0.1561
     57  C          9.7740  -22.3700  -13.1880 C.2    60  LEU60       0.2260
     58  O         10.2040  -22.6900  -12.0820 O.2    60  LEU60      -0.2867
     59  CB        11.1760  -20.7010  -14.5080 C.3    60  LEU60       0.0270
     60  CG        11.2150  -19.3500  -15.2260 C.3    60  LEU60       0.0019
     61  CD1       12.5550  -19.1780  -15.9370 C.3    60  LEU60       0.0001
     62  CD2       10.0740  -19.2490  -16.2460 C.3    60  LEU60       0.0001
     63  N         15.0110  -10.0820  -23.1620 N.3    99  GLY99      -0.1210
     64  CA        13.8960  -10.9140  -22.7270 C.3    99  GLY99       0.1956
     65  C         12.8000  -10.1280  -22.0280 C.2    99  GLY99       0.2612
     66  O         12.9940   -8.9630  -21.6650 O.2    99  GLY99      -0.2717
     67  N         11.6470  -10.7630  -21.8440 N.am  100  GLY100     -0.1942
     68  CA        10.5220  -10.1490  -21.1660 C.3   100  GLY100      0.2014
     69  C         10.7860   -9.8590  -19.6960 C.2   100  GLY100      0.2638
     70  O         10.0840   -9.0650  -19.0630 O.2   100  GLY100     -0.2714
     71  N         11.8010  -10.5070  -19.1350 N.am  101  ASP101     -0.1971
     72  CA        12.1460  -10.2820  -17.7310 C.3   101  ASP101      0.1709
     73  C         13.2570   -9.2370  -17.5300 C.2   101  ASP101      0.2293
     74  O         13.7760   -9.0800  -16.4200 O.2   101  ASP101     -0.2864
     75  CB        12.5350  -11.6090  -17.0600 C.3   101  ASP101      0.1436
     76  CG        13.6850  -12.3020  -17.7540 C.2   101  ASP101      0.3671
     77  OD1       14.0430  -11.8950  -18.8830 O.co2 101  ASP101     -0.2456
     78  OD2       14.2250  -13.2800  -17.1720 O.co2 101  ASP101     -0.2456
     79  N         21.7090  -13.5820  -21.0650 N.3   121  TYR121     -0.1241
     80  CA        21.5030  -15.0370  -21.0930 C.3   121  TYR121      0.1605
     81  C         21.1350  -15.5550  -22.4850 C.2   121  TYR121      0.2264
     82  O         20.9950  -16.7490  -22.6890 O.2   121  TYR121     -0.2867
     83  CB        20.4740  -15.4920  -20.0460 C.3   121  TYR121      0.0534
     84  CG        19.0500  -14.9780  -20.2290 C.ar  121  TYR121     -0.0201
     85  CD1       18.2280  -15.4920  -21.2260 C.ar  121  TYR121     -0.0009
     86  CD2       18.5180  -14.0140  -19.3710 C.ar  121  TYR121     -0.0009
     87  CE1       16.9220  -15.0470  -21.3760 C.ar  121  TYR121      0.0417
     88  CE2       17.2070  -13.5700  -19.5070 C.ar  121  TYR121      0.0417
     89  CZ        16.4200  -14.1000  -20.5180 C.ar  121  TYR121      0.1957
     90  OH        15.1310  -13.6740  -20.6760 O.3   121  TYR121     -0.2866
     91  N         10.0310  -22.5750  -29.8490 N.3   172  VAL172     -0.1245
     92  CA         8.8980  -22.5510  -28.9400 C.3   172  VAL172      0.1561
     93  C          7.7110  -22.2440  -29.8340 C.2   172  VAL172      0.2260
     94  O          7.7190  -21.2470  -30.5620 O.2   172  VAL172     -0.2867
     95  CB         9.0180  -21.4330  -27.8990 C.3   172  VAL172      0.0252
     96  CG1        7.7510  -21.3750  -27.0220 C.3   172  VAL172      0.0019
     97  CG2       10.2510  -21.6570  -27.0420 C.3   172  VAL172      0.0019
     98  N          3.6110  -21.4820  -30.5100 N.3   174  THR174     -0.1218
     99  CA         2.4000  -20.9140  -29.9060 C.3   174  THR174      0.1862
    100  C          1.1930  -21.2900  -30.7600 C.2   174  THR174      0.2287
    101  O          0.9190  -20.6790  -31.7900 O.2   174  THR174     -0.2866
    102  CB         2.5040  -19.3870  -29.7070 C.3   174  THR174      0.1770
    103  OG1        3.5130  -19.1050  -28.7220 O.3   174  THR174     -0.2211
    104  CG2        1.1730  -18.8270  -29.2140 C.3   174  THR174      0.0375
    105  N          8.8690  -19.0250  -32.1760 N.3   181  ASN181     -0.1240
    106  CA        10.1900  -18.4420  -32.0990 C.3   181  ASN181      0.1653
    107  C         11.2520  -19.5310  -32.2570 C.2   181  ASN181      0.2266
    108  O         11.1940  -20.5640  -31.6120 O.2   181  ASN181     -0.2867
    109  CB        10.3480  -17.6290  -30.8040 C.3   181  ASN181      0.1155
    110  CG         9.4450  -16.4170  -30.7890 C.2   181  ASN181      0.2627
    111  OD1        9.4920  -15.5950  -31.7190 O.2   181  ASN181     -0.2716
    112  ND2        8.5960  -16.3090  -29.7680 N.am  181  ASN181     -0.0877
    113  N         14.9770  -21.0610  -32.0500 N.3   183  TRP183     -0.1241
    114  CA        16.2020  -20.8970  -31.2870 C.3   183  TRP183      0.1605
    115  C         17.3880  -20.8560  -32.2330 C.2   183  TRP183      0.2264
    116  O         17.4610  -21.6520  -33.1750 O.2   183  TRP183     -0.2867
    117  CB        16.3850  -22.0610  -30.3010 C.3   183  TRP183      0.0550
    118  CG        15.3430  -22.1180  -29.2350 C.ar  183  TRP183      0.0003
    119  CD1       14.3370  -23.0300  -29.1220 C.ar  183  TRP183      0.0946
    120  CD2       15.1980  -21.2120  -28.1280 C.ar  183  TRP183      0.0152
    121  NE1       13.5750  -22.7570  -27.9950 N.ar  183  TRP183     -0.2442
    122  CE2       14.0840  -21.6470  -27.3750 C.ar  183  TRP183      0.0810
    123  CE3       15.9040  -20.0840  -27.7010 C.ar  183  TRP183      0.0012
    124  CZ2       13.6670  -20.9930  -26.2130 C.ar  183  TRP183      0.0191
    125  CZ3       15.4770  -19.4260  -26.5570 C.ar  183  TRP183      0.0001
    126  CH2       14.3740  -19.8930  -25.8180 C.ar  183  TRP183      0.0015
    127  N         18.3310   -9.0670  -28.9520 N.3   216  ARG216     -0.1245
    128  CA        18.5840  -10.4320  -28.4840 C.3   216  ARG216      0.1563
    129  C         19.1660  -11.3460  -29.5600 C.2   216  ARG216      0.2260
    130  O         18.8100  -11.2450  -30.7260 O.2   216  ARG216     -0.2867
    131  CB        17.3000  -11.0390  -27.9140 C.3   216  ARG216      0.0307
    132  CG        16.2480  -11.3630  -28.9650 C.3   216  ARG216      0.0489
    133  CD        14.8680  -11.5010  -28.3280 C.3   216  ARG216      0.2205
    134  NE        14.8430  -12.5370  -27.3020 N.pl3 216  ARG216     -0.0865
    135  CZ        13.8500  -12.7250  -26.4380 C.cat 216  ARG216      0.5346
    136  NH1       13.9310  -13.7170  -25.5390 N.pl3 216  ARG216      0.1354
    137  NH2       12.7910  -11.9150  -26.4470 N.pl3 216  ARG216      0.1354
    138  N         16.6890  -15.8510  -30.4520 N.3   219  ILE219     -0.1245
    139  CA        15.5730  -16.2970  -31.2710 C.3   219  ILE219      0.1561
    140  C         15.4460  -15.4940  -32.5510 C.2   219  ILE219      0.2260
    141  O         15.9800  -14.3980  -32.6640 O.2   219  ILE219     -0.2867
    142  CB        14.2190  -16.1990  -30.5270 C.3   219  ILE219      0.0252
    143  CG1       13.9510  -14.7600  -30.0680 C.3   219  ILE219      0.0019
    144  CG2       14.2010  -17.1500  -29.3190 C.3   219  ILE219      0.0019
    145  CD1       12.5660  -14.5470  -29.4800 C.3   219  ILE219      0.0001
    146  N         11.7170  -23.7570  -21.1200 N.3   274  PHE274     -0.1227
    147  CA        11.6690  -22.4000  -21.6840 C.3   274  PHE274      0.1736
    148  C         13.0110  -21.6840  -21.4690 C.2   274  PHE274      0.2595
    149  O         13.4900  -20.9450  -22.3330 O.2   274  PHE274     -0.2718
    150  CB        10.5120  -21.6310  -21.0120 C.3   274  PHE274      0.0547
    151  CG        10.2900  -20.2400  -21.5590 C.ar  274  PHE274     -0.0202
    152  CD1        9.9720  -20.0420  -22.9080 C.ar  274  PHE274     -0.0042
    153  CD2       10.3380  -19.1380  -20.7150 C.ar  274  PHE274     -0.0042
    154  CE1        9.7480  -18.7620  -23.3990 C.ar  274  PHE274     -0.0003
    155  CE2       10.1120  -17.8560  -21.1990 C.ar  274  PHE274     -0.0003
    156  CZ         9.8170  -17.6710  -22.5470 C.ar  274  PHE274     -0.0000
    157  N         13.6190  -21.9190  -20.3120 N.am  275  ARG275     -0.1980
    158  CA        14.9470  -21.3920  -20.0240 C.3   275  ARG275      0.1597
    159  C         15.8240  -22.5490  -19.5610 C.2   275  ARG275      0.2287
    160  O         15.3460  -23.4510  -18.8610 O.2   275  ARG275     -0.2864
    161  CB        14.8920  -20.3050  -18.9400 C.3   275  ARG275      0.0334
    162  CG        14.1290  -19.0190  -19.3550 C.3   275  ARG275      0.0492
    163  CD        14.8370  -18.3340  -20.5210 C.3   275  ARG275      0.2205
    164  NE        14.2710  -17.0300  -20.8840 N.pl3 275  ARG275     -0.0865
    165  CZ        13.4860  -16.8100  -21.9340 C.cat 275  ARG275      0.5346
    166  NH1       13.1350  -17.8240  -22.7140 N.pl3 275  ARG275      0.1354
    167  NH2       13.0490  -15.5660  -22.2100 N.pl3 275  ARG275      0.1354
@<TRIPOS>BOND
     1   116   115    2
     2   141   140    2
     3   140   139    1
     4   107   106    1
     5   107   108    2
     6   115   114    1
     7   105   106    1
     8   106   109    1
     9   113   114    1
    10   101   100    2
    11   111   110    2
    12   114   117    1
    13   139   142    1
    14   139   138    1
    15   109   110    1
    16   110   112   am
    17   100    99    1
    18   130   129    2
    19    94    93    2
    20   142   143    1
    21   142   144    1
    22    98    99    1
    23   117   118    1
    24   143   145    1
    25    99   102    1
    26    91    92    1
    27    93    92    1
    28   102   104    1
    29   102   103    1
    30   129   128    1
    31   118   119   ar
    32   118   120   ar
    33   119   121   ar
    34   132   133    1
    35   132   131    1
    36   127   128    1
    37    92    95    1
    38   128   131    1
    39   133   134    1
    40   120   123   ar
    41   120   122   ar
    42   121   122   ar
    43    95    97    1
    44    95    96    1
    45   123   125   ar
    46   122   124   ar
    47   134   135    2
    48   125   126   ar
    49   137   135    1
    50   135   136    1
    51    47    45    1
    52   124   126   ar
    53    46    45    1
    54    45    44    2
    55    44    43    1
    56    43    42    1
    57   154   152   ar
    58   154   156   ar
    59    63    64    1
    60   152   151   ar
    61    64    65    1
    62   166   165    1
    63    82    81    2
    64   156   155   ar
    65    81    80    1
    66   149   148    2
    67   167   165    1
    68    42    41    1
    69    65    67   am
    70    65    66    2
    71   165   164    2
    72    67    68    1
    73   147   148    1
    74   147   146    1
    75   147   150    1
    76   151   150    1
    77   151   153   ar
    78    41    38    1
    79   148   157   am
    80    87    85   ar
    81    87    89   ar
    82    85    84   ar
    83   155   153   ar
    84    68    69    1
    85    80    79    1
    86    80    83    1
    87   164   163    1
    88    90    89    1
    89    53    52    1
    90   163   162    1
    91    89    88   ar
    92   157   158    1
    93    84    83    1
    94    84    86   ar
    95   158   159    1
    96   158   161    1
    97    38    39    1
    98    38    37    1
    99    69    71   am
   100    69    70    2
   101   159   160    2
   102    40    39    2
   103    88    86   ar
   104    39    48   am
   105   162   161    1
   106    37    31   am
   107    52    54    1
   108    52    49    1
   109    71    72    1
   110    77    76   ar
   111    48    49    1
   112    49    50    1
   113    13    12    1
   114    36    34   am
   115    31    30    1
   116    31    32    2
   117    14    12    1
   118    33    34    1
   119    33    30    1
   120    76    78   ar
   121    76    75    1
   122    34    35    2
   123    72    73    1
   124    72    75    1
   125    73    74    2
   126    30    29    1
   127    12     9    1
   128    20    19    1
   129    50    51    2
   130    27    26    1
   131    62    60    1
   132    61    60    1
   133     9     8    1
   134     9    10    1
   135    19    21    1
   136    19    16    1
   137    26    28    1
   138    26    23    1
   139    60    59    1
   140     8     3   am
   141    10    11    2
   142     6     5    1
   143    22    23    1
   144    22    17   am
   145    25    24    2
   146    23    24    1
   147    16    17    1
   148    16    15    1
   149    59    56    1
   150    17    18    2
   151     3     4    2
   152     3     2    1
   153    56    57    1
   154    56    55    1
   155     1     2    1
   156     5     2    1
   157     5     7    1
   158    57    58    2
