@<TRIPOS>MOLECULE
tmp/3tllA00.pdb
 122 113 0 0 0
SMALL
GASTEIGER

@<TRIPOS>ATOM
      1  N          9.5020   11.8720   22.1490 N.3    92  ASP92      -0.1225
      2  CA        10.3440   12.9330   22.6900 C.3    92  ASP92       0.1805
      3  C          9.6420   13.6150   23.8480 C.2    92  ASP92       0.2598
      4  O          8.4650   13.3550   24.1560 O.2    92  ASP92      -0.2718
      5  CB        10.7950   13.8690   21.5750 C.3    92  ASP92       0.1424
      6  CG         9.6740   14.6250   20.9390 C.2    92  ASP92       0.3668
      7  OD1        8.6560   14.8420   21.5990 O.co2  92  ASP92      -0.2456
      8  OD2        9.8750   15.0440   19.7590 O.co2  92  ASP92      -0.2456
      9  N         10.3490   14.4720   24.5590 N.am   93  SER93      -0.1938
     10  CA         9.7820   15.0250   25.8130 C.3    93  SER93       0.2055
     11  C          9.1980   16.4130   25.6190 C.2    93  SER93       0.2643
     12  O          8.6030   16.9720   26.5280 O.2    93  SER93      -0.2714
     13  CB        10.8230   15.0250   26.9220 C.3    93  SER93       0.2130
     14  OG        12.1050   15.4350   26.4820 O.3    93  SER93      -0.2179
     15  N          9.3710   16.9850   24.4260 N.am   94  GLY94      -0.1954
     16  CA         8.6720   18.1830   24.0520 C.3    94  GLY94       0.1869
     17  C          9.4580   19.4500   24.1430 C.2    94  GLY94       0.2309
     18  O          9.1420   20.4390   23.4310 O.2    94  GLY94      -0.2863
     19  N         12.5810   20.4970   23.2530 N.3    96  TYR96      -0.1241
     20  CA        13.3010   20.9210   22.0340 C.3    96  TYR96       0.1605
     21  C         12.3940   21.6380   21.0510 C.2    96  TYR96       0.2264
     22  O         12.6770   22.7360   20.5490 O.2    96  TYR96      -0.2867
     23  CB        13.9150   19.6970   21.3480 C.3    96  TYR96       0.0534
     24  CG        14.7310   20.0610   20.1250 C.ar   96  TYR96      -0.0201
     25  CD1       16.0660   20.4560   20.2020 C.ar   96  TYR96      -0.0009
     26  CD2       14.1690   20.0000   18.8660 C.ar   96  TYR96      -0.0009
     27  CE1       16.8090   20.7910   19.0700 C.ar   96  TYR96       0.0417
     28  CE2       14.8980   20.3270   17.7420 C.ar   96  TYR96       0.0417
     29  CZ        16.2050   20.7180   17.8280 C.ar   96  TYR96       0.1957
     30  OH        16.9170   21.0370   16.6950 O.3    96  TYR96      -0.2866
     31  N         11.2820    9.7430   26.9170 N.3   137  MET137     -0.1245
     32  CA        12.4880   10.5140   27.1100 C.3   137  MET137      0.1570
     33  C         12.3350   11.4280   28.3280 C.2   137  MET137      0.2261
     34  O         11.2860   12.0660   28.5260 O.2   137  MET137     -0.2867
     35  CB        12.8060   11.4080   25.8870 C.3   137  MET137      0.0387
     36  CG        13.0720   10.6100   24.5990 C.3   137  MET137      0.0595
     37  SD        14.3670    9.3680   24.7610 S.3   137  MET137     -0.1393
     38  CE        15.7380   10.4140   25.2050 C.3   137  MET137      0.0692
     39  N         14.3620   17.5790   29.2710 N.3   140  ASP140     -0.1239
     40  CA        15.6630   18.2290   29.3010 C.3   140  ASP140      0.1674
     41  C         15.6060   19.5970   28.6460 C.2   140  ASP140      0.2266
     42  O         14.5760   20.0330   28.1270 O.2   140  ASP140     -0.2867
     43  CB        16.6900   17.3610   28.5630 C.3   140  ASP140      0.1410
     44  CG        16.4790   17.3240   27.0530 C.2   140  ASP140      0.3668
     45  OD1       15.2950   17.3670   26.6010 O.co2 140  ASP140     -0.2456
     46  OD2       17.5140   17.1850   26.3630 O.co2 140  ASP140     -0.2456
     47  N         17.8400   21.4330   25.6520 N.3   142  CYS142     -0.1235
     48  CA        18.9110   21.3590   24.6510 C.3   142  CYS142      0.1677
     49  C         19.6570   22.6850   24.6810 C.2   142  CYS142      0.2270
     50  O         19.1300   23.6840   24.1650 O.2   142  CYS142     -0.2867
     51  CB        18.2950   21.0570   23.2730 C.3   142  CYS142      0.0956
     52  SG        19.5900   21.0120   22.0070 S.3   142  CYS142     -0.0801
     53  N         19.0670   11.9390   29.2310 N.3   185  ILE185     -0.1245
     54  CA        19.7310   12.6960   28.1560 C.3   185  ILE185      0.1561
     55  C         20.9460   13.4460   28.6870 C.2   185  ILE185      0.2260
     56  O         20.8040   14.3120   29.5880 O.2   185  ILE185     -0.2867
     57  CB        18.7290   13.6630   27.4670 C.3   185  ILE185      0.0252
     58  CG1       17.4620   12.9400   26.9760 C.3   185  ILE185      0.0019
     59  CG2       19.4710   14.3880   26.3490 C.3   185  ILE185      0.0019
     60  CD1       16.3600   13.8930   26.5100 C.3   185  ILE185      0.0001
     61  N         23.7890   16.2050   28.6650 N.3   187  GLN187     -0.1245
     62  CA        24.0220   17.5580   28.1270 C.3   187  GLN187      0.1566
     63  C         25.4430   17.9610   28.4410 C.2   187  GLN187      0.2260
     64  O         26.2610   17.0700   28.7440 O.2   187  GLN187     -0.2867
     65  CB        22.9520   18.5100   28.6600 C.3   187  GLN187      0.0367
     66  CG        21.5350   18.1730   28.1460 C.3   187  GLN187      0.0905
     67  CD        21.3150   18.4420   26.6780 C.2   187  GLN187      0.2608
     68  OE1       22.0980   19.1320   26.0030 O.2   187  GLN187     -0.2717
     69  NE2       20.2260   17.9130   26.0930 N.am  187  GLN187     -0.0878
     70  N         22.6030   11.1470   23.7930 N.3   212  VAL212     -0.1231
     71  CA        23.5690   12.2170   23.7200 C.3   212  VAL212      0.1692
     72  C         22.7520   13.3850   23.1900 C.2   212  VAL212      0.2593
     73  O         22.3930   13.4510   22.0090 O.2   212  VAL212     -0.2718
     74  CB        24.7950   11.9120   22.8650 C.3   212  VAL212      0.0266
     75  CG1       25.7610   13.1090   22.7900 C.3   212  VAL212      0.0020
     76  CG2       25.5270   10.6850   23.4450 C.3   212  VAL212      0.0020
     77  N         22.4240   14.3130   24.0890 N.am  213  GLY213     -0.1942
     78  CA        21.6890   15.4990   23.7080 C.3   213  GLY213      0.2014
     79  C         22.5980   16.6490   23.3580 C.2   213  GLY213      0.2639
     80  O         23.8390   16.5720   23.5260 O.2   213  GLY213     -0.2714
     81  N         22.0250   17.7330   22.8420 N.am  214  GLY214     -0.1939
     82  CA        22.7730   18.9710   22.6720 C.3   214  GLY214      0.2014
     83  C         23.6790   18.9860   21.4550 C.2   214  GLY214      0.2639
     84  O         24.5020   19.9150   21.3590 O.2   214  GLY214     -0.2714
     85  N         23.5710   18.0200   20.5560 N.am  215  LEU215     -0.1963
     86  CA        24.3590   17.9980   19.3400 C.3   215  LEU215      0.1728
     87  C         23.4560   18.1670   18.1180 C.2   215  LEU215      0.2616
     88  O         22.2230   18.2080   18.2840 O.2   215  LEU215     -0.2715
     89  CB        25.2190   16.7390   19.2930 C.3   215  LEU215      0.0311
     90  CG        26.3000   16.6340   20.4070 C.3   215  LEU215      0.0022
     91  CD1       27.0520   15.3190   20.2200 C.3   215  LEU215      0.0001
     92  CD2       27.2270   17.8080   20.3600 C.3   215  LEU215      0.0001
     93  N         24.0970   18.2720   16.9590 N.am  216  ALA216     -0.1963
     94  CA        23.3380   18.5940   15.7410 C.3   216  ALA216      0.1728
     95  C         22.5360   19.8730   15.9390 C.2   216  ALA216      0.2616
     96  O         21.3720   19.9430   15.5380 O.2   216  ALA216     -0.2715
     97  CB        22.4980   17.3920   15.3230 C.3   216  ALA216      0.0334
     98  N         23.1810   20.9000   16.4840 N.am  217  VAL217     -0.1977
     99  CA        22.5630   22.1950   16.7970 C.3   217  VAL217      0.1596
    100  C         23.3870   23.2940   16.1540 C.2   217  VAL217      0.2287
    101  O         23.2340   24.4430   16.5790 O.2   217  VAL217     -0.2864
    102  CB        22.4030   22.4320   18.3040 C.3   217  VAL217      0.0276
    103  CG1       21.3150   21.5000   18.8480 C.3   217  VAL217      0.0022
    104  CG2       23.6990   22.2150   19.0580 C.3   217  VAL217      0.0022
    105  N         20.1610   12.0140   19.3090 N.3   244  MET244     -0.1230
    106  CA        18.9210   12.6910   18.9420 C.3   244  MET244      0.1702
    107  C         19.0560   13.5450   17.7080 C.2   244  MET244      0.2592
    108  O         19.9370   14.4010   17.6970 O.2   244  MET244     -0.2718
    109  CB        18.4710   13.5290   20.1810 C.3   244  MET244      0.0401
    110  CG        18.4220   12.6070   21.4190 C.3   244  MET244      0.0596
    111  SD        17.5000   13.3160   22.7640 S.3   244  MET244     -0.1393
    112  CE        15.8180   13.1540   22.2390 C.3   244  MET244      0.0692
    113  N         18.1730   13.4480   16.7080 N.am  245  GLY245     -0.1957
    114  CA        18.1510   14.4330   15.6300 C.3   245  GLY245      0.1869
    115  C         19.2110   14.1960   14.5530 C.2   245  GLY245      0.2309
    116  O         19.4110   15.0560   13.6970 O.2   245  GLY245     -0.2863
    117  N         15.6040   11.2140   12.5020 N.3   265  CYS265     -0.1235
    118  CA        15.7310   12.5540   11.9020 C.3   265  CYS265      0.1677
    119  C         14.6390   12.7080   10.8640 C.2   265  CYS265      0.2270
    120  O         14.1230   11.7290   10.3460 O.2   265  CYS265     -0.2867
    121  CB        17.1040   12.8190   11.2970 C.3   265  CYS265      0.0956
    122  SG        17.4100   11.9220    9.7530 S.3   265  CYS265     -0.0801
@<TRIPOS>BOND
     1   122   121    1
     2   120   119    2
     3   119   118    1
     4   121   118    1
     5   118   117    1
     6   116   115    2
     7   115   114    1
     8    97    94    1
     9    96    95    2
    10   114   113    1
    11    94    95    1
    12    94    93    1
    13    95    98   am
    14   100   101    2
    15   100    99    1
    16    98    99    1
    17    30    29    1
    18   113   107   am
    19    99   102    1
    20    93    87   am
    21   108   107    2
    22   107   106    1
    23    28    29   ar
    24    28    26   ar
    25    29    27   ar
    26    87    88    2
    27    87    86    1
    28   102   103    1
    29   102   104    1
    30    26    24   ar
    31   106   105    1
    32   106   109    1
    33    27    25   ar
    34    89    86    1
    35    89    90    1
    36    86    85    1
    37     8     6   ar
    38    24    25   ar
    39    24    23    1
    40   109   110    1
    41    91    90    1
    42    92    90    1
    43    22    21    2
    44    85    83   am
    45     6     5    1
    46     6     7   ar
    47    21    20    1
    48    23    20    1
    49    84    83    2
    50   110   111    1
    51    83    82    1
    52     5     2    1
    53    52    51    1
    54    73    72    2
    55    20    19    1
    56     1     2    1
    57   112   111    1
    58    82    81    1
    59     2     3    1
    60    75    74    1
    61    81    79   am
    62    74    76    1
    63    74    71    1
    64    72    71    1
    65    72    77   am
    66    51    48    1
    67    79    80    2
    68    79    78    1
    69    18    17    2
    70    78    77    1
    71    71    70    1
    72     3     4    2
    73     3     9   am
    74    16    17    1
    75    16    15    1
    76    50    49    2
    77    15    11   am
    78     9    10    1
    79    36    37    1
    80    36    35    1
    81    48    49    1
    82    48    47    1
    83    37    38    1
    84    11    10    1
    85    11    12    2
    86    10    13    1
    87    35    32    1
    88    68    67    2
    89    69    67   am
    90    59    57    1
    91    46    44   ar
    92    14    13    1
    93    60    58    1
    94    45    44   ar
    95    67    66    1
    96    31    32    1
    97    58    57    1
    98    44    43    1
    99    32    33    1
   100    57    54    1
   101    62    63    1
   102    62    65    1
   103    62    61    1
   104    42    41    2
   105    66    65    1
   106    54    55    1
   107    54    53    1
   108    33    34    2
   109    63    64    2
   110    43    40    1
   111    41    40    1
   112    55    56    2
   113    39    40    1
