@<TRIPOS>MOLECULE
tmp/3tloA00.pdb
 76 73 0 0 0
SMALL
GASTEIGER

@<TRIPOS>ATOM
      1  N         -6.4600   22.8040   -5.8700 N.3    32  LEU32      -0.1231
      2  CA        -5.3970   22.1490   -6.6120 C.3    32  LEU32       0.1693
      3  C         -5.8340   22.0630   -8.0660 C.2    32  LEU32       0.2593
      4  O         -6.9030   21.5400   -8.3620 O.2    32  LEU32      -0.2718
      5  CB        -5.1860   20.7430   -6.0570 C.3    32  LEU32       0.0284
      6  CG        -4.7000   20.6800   -4.6120 C.3    32  LEU32       0.0019
      7  CD1       -4.8150   19.2630   -4.0730 C.3    32  LEU32       0.0001
      8  CD2       -3.2730   21.2010   -4.5080 C.3    32  LEU32       0.0001
      9  N         -5.0130   22.5710   -8.9770 N.am   33  GLY33      -0.1942
     10  CA        -5.4350   22.6500  -10.3650 C.3    33  GLY33       0.2014
     11  C         -6.7060   23.4740  -10.4310 C.2    33  GLY33       0.2639
     12  O         -6.7750   24.5390   -9.8090 O.2    33  GLY33      -0.2714
     13  N         -7.7200   22.9870  -11.1490 N.am   34  ASP34      -0.1957
     14  CA        -8.9840   23.7170  -11.2300 C.3    34  ASP34       0.1840
     15  C        -10.0720   23.1830  -10.2880 C.2    34  ASP34       0.2622
     16  O        -11.2630   23.3800  -10.5320 O.2    34  ASP34      -0.2715
     17  CB        -9.4960   23.7210  -12.6760 C.3    34  ASP34       0.1450
     18  CG        -9.9650   22.3570  -13.1250 C.2    34  ASP34       0.3671
     19  OD1       -9.7360   21.3640  -12.4050 O.co2  34  ASP34      -0.2456
     20  OD2      -10.5770   22.2720  -14.2160 O.co2  34  ASP34      -0.2456
     21  N         -9.6700   22.5220   -9.2030 N.am   35  THR35      -0.1951
     22  CA       -10.6340   21.8870   -8.3160 C.3    35  THR35       0.1897
     23  C        -10.4020   22.2930   -6.8760 C.2    35  THR35       0.2313
     24  O         -9.2660   22.3070   -6.4070 O.2    35  THR35      -0.2863
     25  CB       -10.5310   20.3570   -8.3830 C.3    35  THR35       0.1794
     26  OG1      -10.7590   19.9240   -9.7290 O.3    35  THR35      -0.2208
     27  CG2      -11.5720   19.7140   -7.4750 C.3    35  THR35       0.0378
     28  N         -7.2050   27.6230  -12.8350 N.3    93  SER93      -0.1202
     29  CA        -6.3440   26.7120  -12.0910 C.3    93  SER93       0.2020
     30  C         -5.4520   27.4890  -11.1350 C.2    93  SER93       0.2619
     31  O         -5.0150   28.6020  -11.4320 O.2    93  SER93      -0.2717
     32  CB        -5.4570   25.8940  -13.0380 C.3    93  SER93       0.2103
     33  OG        -6.2110   24.9680  -13.7990 O.3    93  SER93      -0.2182
     34  N         -5.1560   26.8780   -9.9970 N.am   94  ASN94      -0.1960
     35  CA        -4.1920   27.4420   -9.0610 C.3    94  ASN94       0.1819
     36  C         -2.7830   27.3660   -9.6520 C.2    94  ASN94       0.2621
     37  O         -2.2450   26.2780   -9.8310 O.2    94  ASN94      -0.2715
     38  CB        -4.2630   26.6600   -7.7460 C.3    94  ASN94       0.1195
     39  CG        -3.3560   27.2160   -6.6750 C.2    94  ASN94       0.2630
     40  OD1       -2.6220   28.1820   -6.8920 O.2    94  ASN94      -0.2716
     41  ND2       -3.4130   26.6090   -5.4850 N.am   94  ASN94      -0.0877
     42  N         -2.2030   28.5130   -9.9910 N.am   95  VAL95      -0.1977
     43  CA        -0.8790   28.5190  -10.6050 C.3    95  VAL95       0.1596
     44  C          0.2120   28.1360   -9.6210 C.2    95  VAL95       0.2287
     45  O          1.3480   27.9000  -10.0250 O.2    95  VAL95      -0.2864
     46  CB        -0.5410   29.8740  -11.2560 C.3    95  VAL95       0.0276
     47  CG1       -1.6020   30.2380  -12.2800 C.3    95  VAL95       0.0022
     48  CG2       -0.4030   30.9570  -10.2040 C.3    95  VAL95       0.0022
     49  N         -0.1140   25.4220   -7.5910 N.3    97  THR97      -0.1218
     50  CA        -0.3390   24.0280   -7.2310 C.3    97  THR97       0.1862
     51  C          0.9930   23.2990   -7.1640 C.2    97  THR97       0.2287
     52  O          1.7140   23.2480   -8.1530 O.2    97  THR97      -0.2866
     53  CB        -1.2040   23.3170   -8.2810 C.3    97  THR97       0.1770
     54  OG1       -2.4490   24.0150   -8.4250 O.3    97  THR97      -0.2211
     55  CG2       -1.4950   21.8870   -7.8550 C.3    97  THR97       0.0375
     56  N          2.0590   16.9940   -6.4920 N.3   100  HIS100     -0.1241
     57  CA         1.3210   16.3750   -5.4030 C.3   100  HIS100      0.1621
     58  C          0.6540   15.0760   -5.8050 C.2   100  HIS100      0.2264
     59  O          0.4810   14.7690   -6.9930 O.2   100  HIS100     -0.2867
     60  CB         0.2430   17.3370   -4.8800 C.3   100  HIS100      0.0745
     61  CG        -0.8950   17.5340   -5.8350 C.ar  100  HIS100      0.0817
     62  ND1       -0.8300   18.4010   -6.9030 N.ar  100  HIS100     -0.2268
     63  CD2       -2.1230   16.9640   -5.8850 C.ar  100  HIS100      0.1154
     64  CE1       -1.9720   18.3620   -7.5690 C.ar  100  HIS100      0.1986
     65  NE2       -2.7720   17.4980   -6.9750 N.ar  100  HIS100     -0.2212
     66  N         -2.4640   12.1810   -3.8210 N.3   102  PHE102     -0.1241
     67  CA        -3.3670   11.9680   -2.7090 C.3   102  PHE102      0.1605
     68  C         -3.0430   10.6260   -2.0760 C.2   102  PHE102      0.2264
     69  O         -2.8400    9.6310   -2.7770 O.2   102  PHE102     -0.2867
     70  CB        -4.8150   12.0350   -3.1880 C.3   102  PHE102      0.0534
     71  CG        -5.1450   13.3280   -3.8740 C.ar  102  PHE102     -0.0203
     72  CD1       -5.4000   14.4680   -3.1320 C.ar  102  PHE102     -0.0042
     73  CD2       -5.1600   13.4180   -5.2650 C.ar  102  PHE102     -0.0042
     74  CE1       -5.6820   15.6670   -3.7450 C.ar  102  PHE102     -0.0003
     75  CE2       -5.4470   14.6220   -5.8900 C.ar  102  PHE102     -0.0003
     76  CZ        -5.7110   15.7490   -5.1280 C.ar  102  PHE102     -0.0000
@<TRIPOS>BOND
     1    20    18   ar
     2    33    32    1
     3    18    17    1
     4    18    19   ar
     5    32    29    1
     6    28    29    1
     7    17    14    1
     8    47    46    1
     9    29    30    1
    10    31    30    2
    11    46    43    1
    12    46    48    1
    13    14    13    1
    14    14    15    1
    15    13    11   am
    16    30    34   am
    17    43    42    1
    18    43    44    1
    19    16    15    2
    20    11    10    1
    21    11    12    2
    22    10     9    1
    23    15    21   am
    24    45    44    2
    25    34    35    1
    26    42    36   am
    27    37    36    2
    28    26    25    1
    29    36    35    1
    30    21    22    1
    31    35    38    1
    32     9     3   am
    33    54    53    1
    34    25    22    1
    35    25    27    1
    36     4     3    2
    37    22    23    1
    38    53    55    1
    39    53    50    1
    40    52    51    2
    41     3     2    1
    42    38    39    1
    43    49    50    1
    44    64    65   ar
    45    64    62   ar
    46    50    51    1
    47    59    58    2
    48    65    63   ar
    49    62    61   ar
    50    40    39    2
    51    23    24    2
    52    39    41   am
    53     2     5    1
    54     2     1    1
    55    56    57    1
    56     5     6    1
    57    75    73   ar
    58    75    76   ar
    59    63    61   ar
    60    61    60    1
    61    58    57    1
    62    57    60    1
    63    73    71   ar
    64    76    74   ar
    65     6     8    1
    66     6     7    1
    67    71    70    1
    68    71    72   ar
    69    66    67    1
    70    74    72   ar
    71    70    67    1
    72    69    68    2
    73    67    68    1
