@<TRIPOS>MOLECULE
tmp/3tlxB01.pdb
 204 192 0 0 0
SMALL
GASTEIGER

@<TRIPOS>ATOM
      1  N         44.1620    2.2750   -3.9820 N.3    35  PRO35      -0.2102
      2  CA        44.4800    2.4130   -2.5560 C.3    35  PRO35       0.1504
      3  C         44.5980    3.8890   -2.2260 C.2    35  PRO35       0.2576
      4  O         45.1540    4.6450   -3.0100 O.2    35  PRO35      -0.2718
      5  CB        45.8090    1.6600   -2.4000 C.3    35  PRO35       0.0282
      6  CG        46.0450    0.9540   -3.7300 C.3    35  PRO35       0.0208
      7  CD        45.3280    1.7880   -4.7440 C.3    35  PRO35       0.0893
      8  N         44.0250    4.2730   -1.0980 N.am   36  GLY36      -0.1957
      9  CA        43.9920    5.6440   -0.6070 C.3    36  GLY36       0.1869
     10  C         42.6790    6.3230   -0.8840 C.2    36  GLY36       0.2309
     11  O         42.5140    7.4700   -0.5060 O.2    36  GLY36      -0.2863
     12  N         38.3060    3.3340    1.1910 N.3    39  LYS39      -0.1231
     13  CA        37.5060    2.1320    1.2670 C.3    39  LYS39       0.1693
     14  C         37.4840    1.5840    2.6990 C.2    39  LYS39       0.2592
     15  O         36.4050    1.2520    3.1920 O.2    39  LYS39      -0.2718
     16  CB        38.0470    1.0650    0.3070 C.3    39  LYS39       0.0285
     17  CG        38.0370    1.4520   -1.1690 C.3    39  LYS39       0.0035
     18  CD        38.4550    0.2670   -2.0850 C.3    39  LYS39       0.0206
     19  CE        39.8450   -0.3120   -1.8430 C.3    39  LYS39       0.1093
     20  NZ        40.9040    0.7180   -1.8440 N.3    39  LYS39      -0.1314
     21  N         38.6670    1.4650    3.3360 N.am   40  GLY40      -0.1957
     22  CA        38.8140    0.9580    4.7000 C.3    40  GLY40       0.1869
     23  C         38.0390    1.8330    5.6490 C.2    40  GLY40       0.2309
     24  O         37.2000    1.3550    6.4160 O.2    40  GLY40      -0.2863
     25  N         38.2490   -7.6040    4.2070 N.3    56  SER56      -0.1202
     26  CA        39.4310   -6.9480    3.6480 C.3    56  SER56       0.2020
     27  C         40.4600   -7.9810    3.2680 C.2    56  SER56       0.2619
     28  O         40.9880   -8.6780    4.1490 O.2    56  SER56      -0.2717
     29  CB        40.0120   -5.9370    4.6290 C.3    56  SER56       0.2103
     30  OG        41.3080   -5.5530    4.2150 O.3    56  SER56      -0.2182
     31  N         40.7330   -8.1140    1.9500 N.am   57  THR57      -0.1938
     32  CA        41.6970   -9.1110    1.4560 C.3    57  THR57       0.2028
     33  C         43.1120   -8.6870    1.8240 C.2    57  THR57       0.2642
     34  O         43.9400   -9.5380    2.1910 O.2    57  THR57      -0.2714
     35  CB        41.4810   -9.4230   -0.0160 C.3    57  THR57       0.1808
     36  OG1       41.4440   -8.2310   -0.7670 O.3    57  THR57      -0.2208
     37  CG2       40.2030  -10.1590   -0.2460 C.3    57  THR57       0.0379
     38  N         43.3380   -7.3850    1.8320 N.am   58  GLY58      -0.1954
     39  CA        44.5960   -6.8260    2.2660 C.3    58  GLY58       0.1869
     40  C         44.9360   -7.2140    3.6900 C.2    58  GLY58       0.2309
     41  O         46.0600   -7.6750    3.9530 O.2    58  GLY58      -0.2863
     42  N         45.5770  -10.9680    3.8970 N.3    61  LEU61      -0.1231
     43  CA        46.8150  -11.3720    3.2300 C.3    61  LEU61       0.1693
     44  C         48.0440  -10.9450    3.9930 C.2    61  LEU61       0.2591
     45  O         49.0170  -11.6940    4.0210 O.2    61  LEU61      -0.2718
     46  CB        46.8580  -10.8970    1.7700 C.3    61  LEU61       0.0284
     47  CG        45.9960  -11.7570    0.8070 C.3    61  LEU61       0.0019
     48  CD1       45.6660  -11.0210   -0.4120 C.3    61  LEU61       0.0001
     49  CD2       46.6900  -13.0080    0.4120 C.3    61  LEU61       0.0001
     50  N         48.0000   -9.7580    4.6320 N.am   62  ARG62      -0.1980
     51  CA        49.0510   -9.2230    5.4940 C.3    62  ARG62       0.1597
     52  C         49.2470  -10.1800    6.6860 C.2    62  ARG62       0.2287
     53  O         50.3960  -10.4290    7.1000 O.2    62  ARG62      -0.2864
     54  CB        48.7010   -7.8120    5.9840 C.3    62  ARG62       0.0334
     55  CG        49.1600   -6.6820    5.0620 C.3    62  ARG62       0.0492
     56  CD        48.8500   -5.2920    5.6320 C.3    62  ARG62       0.2205
     57  NE        47.4630   -4.8660    5.3960 N.pl3  62  ARG62      -0.0865
     58  CZ        47.0410   -4.2520    4.2890 C.cat  62  ARG62       0.5346
     59  NH1       47.8960   -3.9680    3.3090 N.pl3  62  ARG62       0.1354
     60  NH2       45.7580   -3.9220    4.1510 N.pl3  62  ARG62       0.1354
     61  N         55.2080  -10.3600   -2.4550 N.3    78  ILE78      -0.1231
     62  CA        54.2770   -9.8570   -3.4670 C.3    78  ILE78       0.1692
     63  C         53.6500   -8.5350   -2.9750 C.2    78  ILE78       0.2591
     64  O         53.6310   -7.5530   -3.7290 O.2    78  ILE78      -0.2718
     65  CB        53.2450  -10.9250   -3.8900 C.3    78  ILE78       0.0266
     66  CG1       53.8480  -11.7920   -4.9930 C.3    78  ILE78       0.0019
     67  CG2       51.9420  -10.2510   -4.3580 C.3    78  ILE78       0.0020
     68  CD1       53.0380  -12.8390   -5.4870 C.3    78  ILE78       0.0001
     69  N         53.2000   -8.5130   -1.6940 N.am   79  ILE79      -0.1980
     70  CA        52.6300   -7.3410   -1.0320 C.3    79  ILE79       0.1595
     71  C         53.6350   -6.1770   -1.0750 C.2    79  ILE79       0.2287
     72  O         53.3240   -5.1220   -1.6020 O.2    79  ILE79      -0.2864
     73  CB        52.1950   -7.6600    0.4330 C.3    79  ILE79       0.0276
     74  CG1       51.0480   -8.6660    0.4960 C.3    79  ILE79       0.0022
     75  CG2       51.8050   -6.3720    1.1740 C.3    79  ILE79       0.0022
     76  CD1       50.5690   -8.9960    1.9430 C.3    79  ILE79       0.0001
     77  N         54.1900   -4.4180   -4.2830 N.3    82  GLY82      -0.1210
     78  CA        52.9920   -3.7150   -4.7350 C.3    82  GLY82       0.1956
     79  C         52.1500   -4.4620   -5.7520 C.2    82  GLY82       0.2612
     80  O         51.1880   -3.8970   -6.2870 O.2    82  GLY82      -0.2717
     81  N         52.4900   -5.7440   -6.0100 N.am   83  LYS83      -0.1965
     82  CA        51.8000   -6.6100   -6.9720 C.3    83  LYS83       0.1728
     83  C         50.6540   -7.4370   -6.3350 C.2    83  LYS83       0.2616
     84  O         50.4630   -7.4220   -5.1170 O.2    83  LYS83      -0.2715
     85  CB        52.7980   -7.5190   -7.7230 C.3    83  LYS83       0.0311
     86  CG        52.7670   -7.3300   -9.2560 C.3    83  LYS83       0.0038
     87  CD        51.3040   -7.2180   -9.8660 C.3    83  LYS83       0.0206
     88  CE        51.1540   -7.1210  -11.3790 C.3    83  LYS83       0.1093
     89  NZ        52.3120   -6.4760  -12.0730 N.3    83  LYS83      -0.1314
     90  N         49.8770   -8.1280   -7.1790 N.am   84  LEU84      -0.1963
     91  CA        48.7350   -8.9230   -6.7370 C.3    84  LEU84       0.1728
     92  C         49.0990  -10.3700   -6.4630 C.2    84  LEU84       0.2616
     93  O         49.7440  -11.0230   -7.2720 O.2    84  LEU84      -0.2715
     94  CB        47.5760   -8.8830   -7.7490 C.3    84  LEU84       0.0311
     95  CG        46.9900   -7.5330   -8.1430 C.3    84  LEU84       0.0022
     96  CD1       45.9880   -7.7040   -9.2720 C.3    84  LEU84       0.0001
     97  CD2       46.3590   -6.8140   -6.9500 C.3    84  LEU84       0.0001
     98  N         48.6450  -10.8690   -5.3110 N.am   85  VAL85      -0.1977
     99  CA        48.7260  -12.2440   -4.8530 C.3    85  VAL85       0.1596
    100  C         47.8690  -13.0720   -5.8320 C.2    85  VAL85       0.2287
    101  O         46.9280  -12.5530   -6.4440 O.2    85  VAL85      -0.2864
    102  CB        48.2140  -12.3330   -3.3870 C.3    85  VAL85       0.0276
    103  CG1       47.6810  -13.7220   -3.0250 C.3    85  VAL85       0.0022
    104  CG2       49.2910  -11.8870   -2.4150 C.3    85  VAL85       0.0022
    105  N         43.6340  -15.8020   -2.8460 N.3    90  VAL90      -0.1245
    106  CA        42.6490  -14.8750   -2.2680 C.3    90  VAL90       0.1561
    107  C         41.2330  -15.5140   -2.2500 C.2    90  VAL90       0.2260
    108  O         40.5250  -15.4520   -1.2410 O.2    90  VAL90      -0.2867
    109  CB        42.6590  -13.4740   -2.9270 C.3    90  VAL90       0.0252
    110  CG1       44.0690  -12.9000   -2.9870 C.3    90  VAL90       0.0019
    111  CG2       42.0710  -13.5070   -4.3210 C.3    90  VAL90       0.0019
    112  N         36.2780   -5.1610    0.4400 N.3   110  ASP110     -0.1225
    113  CA        37.2730   -4.1010    0.3740 C.3   110  ASP110      0.1805
    114  C         38.6020   -4.7290   -0.0730 C.2   110  ASP110      0.2598
    115  O         39.2330   -5.4440    0.7090 O.2   110  ASP110     -0.2718
    116  CB        37.3440   -3.4250    1.7610 C.3   110  ASP110      0.1424
    117  CG        38.5110   -2.4970    2.0640 C.2   110  ASP110      0.3668
    118  OD1       39.0890   -1.9290    1.1080 O.co2 110  ASP110     -0.2456
    119  OD2       38.7970   -2.2770    3.2680 O.co2 110  ASP110     -0.2456
    120  N         38.9690   -4.5140   -1.3440 N.am  111  GLY111     -0.1942
    121  CA        40.1880   -5.0910   -1.9160 C.3   111  GLY111      0.2014
    122  C         39.9680   -6.2860   -2.8290 C.2   111  GLY111      0.2638
    123  O         40.8940   -6.7170   -3.5180 O.2   111  GLY111     -0.2714
    124  N         38.7440   -6.8350   -2.8350 N.am  112  TYR112     -0.1973
    125  CA        38.3310   -7.9550   -3.6780 C.3   112  TYR112      0.1639
    126  C         37.0160   -7.5960   -4.3980 C.2   112  TYR112      0.2290
    127  O         36.0690   -7.1210   -3.7490 O.2   112  TYR112     -0.2864
    128  CB        38.1330   -9.2060   -2.8470 C.3   112  TYR112      0.0560
    129  CG        37.9700  -10.4630   -3.6680 C.ar  112  TYR112     -0.0198
    130  CD1       39.0760  -11.1480   -4.1570 C.ar  112  TYR112     -0.0009
    131  CD2       36.7110  -10.9980   -3.9170 C.ar  112  TYR112     -0.0009
    132  CE1       38.9320  -12.3050   -4.9100 C.ar  112  TYR112      0.0417
    133  CE2       36.5570  -12.1730   -4.6470 C.ar  112  TYR112      0.0417
    134  CZ        37.6730  -12.8340   -5.1250 C.ar  112  TYR112      0.1957
    135  OH        37.5510  -14.0080   -5.8300 O.3   112  TYR112     -0.2866
    136  N         40.1160   -7.8410   -7.5200 N.3   114  ARG114     -0.1245
    137  CA        41.0600   -6.8560   -8.0460 C.3   114  ARG114      0.1563
    138  C         41.3650   -6.9920   -9.5600 C.2   114  ARG114      0.2260
    139  O         42.1910   -6.2460  -10.1050 O.2   114  ARG114     -0.2867
    140  CB        42.3100   -6.7320   -7.1920 C.3   114  ARG114      0.0307
    141  CG        42.1080   -5.3720   -6.5210 C.3   114  ARG114      0.0489
    142  CD        43.2900   -4.8420   -5.7860 C.3   114  ARG114      0.2205
    143  NE        43.0110   -4.8860   -4.3620 N.pl3 114  ARG114     -0.0865
    144  CZ        43.6590   -4.1800   -3.4490 C.cat 114  ARG114      0.5346
    145  NH1       43.3160   -4.2640   -2.1760 N.pl3 114  ARG114      0.1354
    146  NH2       44.6560   -3.3780   -3.8030 N.pl3 114  ARG114      0.1354
    147  N         39.0660  -12.4910  -10.8460 N.3   118  GLN118     -0.1245
    148  CA        38.5570  -12.4410   -9.4670 C.3   118  GLN118      0.1566
    149  C         37.0680  -12.0590   -9.4300 C.2   118  GLN118      0.2260
    150  O         36.3290  -12.5340   -8.5550 O.2   118  GLN118     -0.2867
    151  CB        39.3720  -11.4450   -8.6380 C.3   118  GLN118      0.0367
    152  CG        40.7230  -11.9730   -8.2320 C.3   118  GLN118      0.0905
    153  CD        41.5300  -11.0430   -7.3840 C.2   118  GLN118      0.2608
    154  OE1       41.0230  -10.3530   -6.5230 O.2   118  GLN118     -0.2717
    155  NE2       42.8350  -11.0800   -7.5380 N.am  118  GLN118     -0.0878
    156  N         49.2700    8.2150    5.5420 N.3   153  ARG153     -0.1245
    157  CA        48.5610    7.1090    6.2030 C.3   153  ARG153      0.1563
    158  C         49.3850    6.4550    7.3030 C.2   153  ARG153      0.2260
    159  O         50.5550    6.1280    7.1290 O.2   153  ARG153     -0.2867
    160  CB        48.0290    6.0480    5.2280 C.3   153  ARG153      0.0307
    161  CG        46.9110    5.2340    5.8760 C.3   153  ARG153      0.0489
    162  CD        46.8510    3.7700    5.4970 C.3   153  ARG153      0.2205
    163  NE        46.0090    3.5970    4.3190 N.pl3 153  ARG153     -0.0865
    164  CZ        46.4040    3.0460    3.1800 C.cat 153  ARG153      0.5346
    165  NH1       47.6080    2.5050    3.0760 N.pl3 153  ARG153      0.1354
    166  NH2       45.5870    2.9940    2.1490 N.pl3 153  ARG153      0.1354
    167  N         52.8480    1.2890    6.8650 N.3   186  ARG186     -0.1245
    168  CA        52.8700    0.0160    6.1600 C.3   186  ARG186      0.1563
    169  C         53.9470    0.0920    5.0740 C.2   186  ARG186      0.2260
    170  O         54.0060    1.0880    4.3550 O.2   186  ARG186     -0.2867
    171  CB        51.5040   -0.2580    5.5250 C.3   186  ARG186      0.0307
    172  CG        50.4320   -0.6980    6.4910 C.3   186  ARG186      0.0489
    173  CD        49.4950   -1.6400    5.7890 C.3   186  ARG186      0.2205
    174  NE        48.1130   -1.1550    5.6810 N.pl3 186  ARG186     -0.0865
    175  CZ        47.1540   -1.4550    6.5490 C.cat 186  ARG186      0.5346
    176  NH1       45.9150   -1.0110    6.3580 N.pl3 186  ARG186      0.1354
    177  NH2       47.4230   -2.2060    7.6110 N.pl3 186  ARG186      0.1354
    178  N         54.2500   -1.0830    2.1780 N.3   188  ASP188     -0.1225
    179  CA        53.7130   -0.8470    0.8470 C.3   188  ASP188      0.1805
    180  C         53.2260    0.5990    0.6560 C.2   188  ASP188      0.2597
    181  O         52.8710    0.9740   -0.4650 O.2   188  ASP188     -0.2718
    182  CB        52.6260   -1.8800    0.4730 C.3   188  ASP188      0.1424
    183  CG        51.4790   -2.1360    1.4530 C.2   188  ASP188      0.3668
    184  OD1       51.6320   -1.8240    2.6520 O.co2 188  ASP188     -0.2456
    185  OD2       50.4740   -2.7490    1.0370 O.co2 188  ASP188     -0.2456
    186  N         53.2530    1.4310    1.7210 N.am  189  ASP189     -0.1974
    187  CA        52.8500    2.8340    1.6340 C.3   189  ASP189      0.1709
    188  C         54.0220    3.7530    1.2570 C.2   189  ASP189      0.2293
    189  O         53.8560    4.9720    1.1870 O.2   189  ASP189     -0.2864
    190  CB        52.1720    3.3070    2.9310 C.3   189  ASP189      0.1436
    191  CG        50.7490    2.8200    3.1260 C.2   189  ASP189      0.3671
    192  OD1       50.1390    2.3380    2.1380 O.co2 189  ASP189     -0.2456
    193  OD2       50.2230    2.9730    4.2480 O.co2 189  ASP189     -0.2456
    194  N         51.4310    0.1270   -7.1310 N.3   197  ARG197     -0.1245
    195  CA        50.0860   -0.2070   -6.6810 C.3   197  ARG197      0.1563
    196  C         49.0280    0.5250   -7.5170 C.2   197  ARG197      0.2260
    197  O         48.0620   -0.1010   -7.9520 O.2   197  ARG197     -0.2867
    198  CB        49.9390    0.1150   -5.1970 C.3   197  ARG197      0.0307
    199  CG        50.7130   -0.8330   -4.3180 C.3   197  ARG197      0.0489
    200  CD        50.8110   -0.3080   -2.9130 C.3   197  ARG197      0.2205
    201  NE        49.6440   -0.7110   -2.1240 N.pl3 197  ARG197     -0.0865
    202  CZ        49.2540   -0.1190   -0.9990 C.cat 197  ARG197      0.5346
    203  NH1       48.1930   -0.5610   -0.3470 N.pl3 197  ARG197      0.1354
    204  NH2       49.8980    0.9500   -0.5430 N.pl3 197  ARG197      0.1354
@<TRIPOS>BOND
     1    89    88    1
     2    88    87    1
     3   147   148    1
     4   139   138    2
     5    87    86    1
     6   138   137    1
     7   148   149    1
     8   148   151    1
     9   149   150    2
    10    96    95    1
    11    86    85    1
    12   151   152    1
    13   152   153    1
    14    95    94    1
    15    95    97    1
    16   137   136    1
    17   137   140    1
    18   197   196    2
    19    94    91    1
    20    85    82    1
    21   155   153   am
    22   196   195    1
    23   153   154    2
    24    93    92    2
    25   140   141    1
    26    90    91    1
    27    90    83   am
    28   194   195    1
    29    82    83    1
    30    82    81    1
    31    91    92    1
    32   195   198    1
    33   141   142    1
    34    92    98   am
    35   101   100    2
    36    83    84    2
    37    80    79    2
    38    81    79   am
    39   100    99    1
    40   135   134    1
    41   142   143    1
    42    79    78    1
    43    68    66    1
    44    98    99    1
    45   198   199    1
    46   134   132   ar
    47   134   133   ar
    48    66    65    1
    49   132   130   ar
    50    99   102    1
    51     7     1    1
    52     7     6    1
    53    78    77    1
    54   133   131   ar
    55   126   127    2
    56   126   125    1
    57   143   144    2
    58    67    65    1
    59   111   109    1
    60   199   200    1
    61   130   129   ar
    62     1     2    1
    63   131   129   ar
    64    65    62    1
    65   146   144    1
    66     6     5    1
    67    64    63    2
    68   125   128    1
    69   125   124    1
    70   129   128    1
    71   123   122    2
    72    62    63    1
    73    62    61    1
    74   144   145    1
    75   102   103    1
    76   102   104    1
    77     4     3    2
    78   110   109    1
    79    63    69   am
    80   109   106    1
    81   200   201    1
    82   105   106    1
    83   124   122   am
    84   122   121    1
    85     2     5    1
    86     2     3    1
    87   106   107    1
    88   107   108    2
    89     3     8   am
    90   201   202    2
    91    18    19    1
    92    18    17    1
    93   121   120    1
    94    20    19    1
    95    69    70    1
    96    72    71    2
    97   120   114   am
    98    17    16    1
    99     8     9    1
   100    71    70    1
   101    70    73    1
   102   202   204    1
   103   202   203    1
   104    10     9    1
   105    10    11    2
   106    36    35    1
   107   181   180    2
   108    48    47    1
   109    37    35    1
   110   114   113    1
   111   114   115    2
   112    35    32    1
   113    16    13    1
   114   113   112    1
   115   113   116    1
   116    49    47    1
   117    73    74    1
   118    73    75    1
   119   182   179    1
   120   182   183    1
   121    74    76    1
   122   180   179    1
   123   180   186   am
   124    47    46    1
   125   179   178    1
   126   185   183   ar
   127   118   117   ar
   128   189   188    2
   129    12    13    1
   130   188   187    1
   131    13    14    1
   132   183   184   ar
   133    32    33    1
   134    32    31    1
   135   187   186    1
   136   187   190    1
   137   116   117    1
   138    46    43    1
   139    33    38   am
   140    33    34    2
   141    38    39    1
   142    31    27   am
   143   117   119   ar
   144   192   191   ar
   145   166   164    1
   146    39    40    1
   147    14    15    2
   148    14    21   am
   149   190   191    1
   150   165   164    1
   151   191   193   ar
   152   164   163    2
   153    43    42    1
   154    43    44    1
   155    27    26    1
   156    27    28    2
   157    59    58    1
   158    21    22    1
   159    26    25    1
   160    26    29    1
   161    40    41    2
   162    44    45    2
   163    44    50   am
   164    60    58    1
   165    30    29    1
   166    58    57    2
   167   163   162    1
   168   170   169    2
   169    50    51    1
   170    22    23    1
   171    55    56    1
   172    55    54    1
   173   169   168    1
   174   160   161    1
   175   160   157    1
   176    57    56    1
   177    51    54    1
   178    51    52    1
   179   162   161    1
   180   171   168    1
   181   171   172    1
   182   156   157    1
   183    23    24    2
   184   174   173    1
   185   174   175    2
   186   173   172    1
   187   168   167    1
   188   157   158    1
   189   176   175    1
   190   175   177    1
   191    52    53    2
   192   159   158    2
