@<TRIPOS>MOLECULE
tmp/3tlxD00.pdb
 153 142 0 0 0
SMALL
GASTEIGER

@<TRIPOS>ATOM
      1  N         24.0190  -19.7870   54.6940 N.3    31  GLY31      -0.1210
      2  CA        24.9930  -19.5650   53.6270 C.3    31  GLY31       0.1956
      3  C         24.4990  -20.0440   52.2730 C.2    31  GLY31       0.2613
      4  O         24.5420  -19.3030   51.2780 O.2    31  GLY31      -0.2717
      5  N         24.0330  -21.3100   52.2380 N.am   32  THR32      -0.1938
      6  CA        23.3710  -21.9340   51.0930 C.3    32  THR32       0.2028
      7  C         22.1150  -21.0960   50.7480 C.2    32  THR32       0.2642
      8  O         21.9440  -20.7030   49.5960 O.2    32  THR32      -0.2714
      9  CB        22.9810  -23.3710   51.4490 C.3    32  THR32       0.1808
     10  OG1       22.2130  -23.3750   52.6460 O.3    32  THR32      -0.2208
     11  CG2       24.2050  -24.2520   51.6220 C.3    32  THR32       0.0379
     12  N         21.2700  -20.7940   51.7650 N.am   33  GLN33      -0.1976
     13  CA        20.0460  -19.9930   51.6550 C.3    33  GLN33       0.1601
     14  C         20.3630  -18.5250   51.3300 C.2    33  GLN33       0.2287
     15  O         19.5730  -17.8650   50.6480 O.2    33  GLN33      -0.2864
     16  CB        19.2130  -20.1060   52.9410 C.3    33  GLN33       0.0394
     17  CG        18.6540  -21.4910   53.2590 C.3    33  GLN33       0.0908
     18  CD        17.7840  -22.0280   52.1520 C.2    33  GLN33       0.2608
     19  OE1       16.8490  -21.3250   51.7210 O.2    33  GLN33      -0.2717
     20  NE2       18.1180  -23.1540   51.6050 N.am   33  GLN33      -0.0878
     21  N         25.3460  -10.5270   50.1030 N.3    45  HIS45      -0.1241
     22  CA        25.6800  -11.5980   51.0290 C.3    45  HIS45       0.1621
     23  C         26.8920  -11.2060   51.8480 C.2    45  HIS45       0.2264
     24  O         28.0300  -11.2830   51.3790 O.2    45  HIS45      -0.2867
     25  CB        25.8630  -12.9500   50.3170 C.3    45  HIS45       0.0745
     26  CG        26.2220  -14.0890   51.2270 C.ar   45  HIS45       0.0817
     27  ND1       27.0490  -15.1130   50.8040 N.ar   45  HIS45      -0.2268
     28  CD2       25.8730  -14.3180   52.5160 C.ar   45  HIS45       0.1154
     29  CE1       27.1560  -15.9380   51.8320 C.ar   45  HIS45       0.1986
     30  NE2       26.4700  -15.4990   52.8870 N.ar   45  HIS45      -0.2212
     31  N         29.0790  -12.2890   54.5150 N.3    47  SER47      -0.1217
     32  CA        29.5380  -13.4250   55.3180 C.3    47  SER47       0.1889
     33  C         30.8720  -13.1200   55.9410 C.2    47  SER47       0.2288
     34  O         31.8680  -13.0030   55.2270 O.2    47  SER47      -0.2866
     35  CB        29.5900  -14.7230   54.5200 C.3    47  SER47       0.2089
     36  OG        30.1370  -14.5370   53.2270 O.3    47  SER47      -0.2183
     37  N         32.4790  -15.0420   58.0900 N.3    49  GLY49      -0.1225
     38  CA        33.1990  -16.3060   58.0110 C.3    49  GLY49       0.1811
     39  C         33.9860  -16.4030   56.7200 C.2    49  GLY49       0.2280
     40  O         35.1860  -16.6970   56.7540 O.2    49  GLY49      -0.2866
     41  N         25.2970  -13.3260   57.4400 N.3    84  ASP84      -0.1225
     42  CA        25.6970  -14.7090   57.7720 C.3    84  ASP84       0.1805
     43  C         27.0110  -14.7250   58.5680 C.2    84  ASP84       0.2598
     44  O         28.0820  -14.4430   58.0270 O.2    84  ASP84      -0.2718
     45  CB        25.8120  -15.5870   56.5020 C.3    84  ASP84       0.1424
     46  CG        26.0560  -17.0530   56.8300 C.2    84  ASP84       0.3668
     47  OD1       25.7840  -17.5370   57.9850 O.co2  84  ASP84      -0.2456
     48  OD2       26.3970  -17.7960   55.8980 O.co2  84  ASP84      -0.2456
     49  N         26.9060  -15.0370   59.8530 N.am   85  GLY85      -0.1957
     50  CA        28.0530  -15.0850   60.7540 C.3    85  GLY85       0.1869
     51  C         28.2250  -13.8490   61.6150 C.2    85  GLY85       0.2309
     52  O         29.0500  -13.8430   62.5360 O.2    85  GLY85      -0.2863
     53  N         27.8100  -12.2660   66.2390 N.3    88  ARG88      -0.1245
     54  CA        28.0300  -13.5470   66.9100 C.3    88  ARG88       0.1563
     55  C         27.9010  -13.4600   68.4470 C.2    88  ARG88       0.2260
     56  O         28.0580  -14.4730   69.1320 O.2    88  ARG88      -0.2867
     57  CB        29.3620  -14.1810   66.4780 C.3    88  ARG88       0.0307
     58  CG        29.5120  -15.6310   66.8420 C.3    88  ARG88       0.0489
     59  CD        29.9980  -16.4810   65.6710 C.3    88  ARG88       0.2205
     60  NE        29.8890  -17.8990   65.9900 N.pl3  88  ARG88      -0.0865
     61  CZ        30.6920  -18.8500   65.5230 C.cat  88  ARG88       0.5346
     62  NH1       31.6900  -18.5470   64.7000 N.pl3  88  ARG88       0.1354
     63  NH2       30.4920  -20.1150   65.8800 N.pl3  88  ARG88       0.1354
     64  N         23.7230  -31.4300   62.1210 N.3   119  LEU119     -0.1245
     65  CA        24.8440  -30.5260   61.8370 C.3   119  LEU119      0.1561
     66  C         26.1730  -31.2810   61.6380 C.2   119  LEU119      0.2260
     67  O         26.9780  -30.8480   60.8170 O.2   119  LEU119     -0.2867
     68  CB        24.9870  -29.4470   62.9270 C.3   119  LEU119      0.0270
     69  CG        23.9020  -28.3720   62.9650 C.3   119  LEU119      0.0019
     70  CD1       24.1300  -27.4980   64.1770 C.3   119  LEU119      0.0001
     71  CD2       23.9130  -27.5120   61.7280 C.3   119  LEU119      0.0001
     72  N         26.2090  -32.5380   58.0860 N.3   122  ARG122     -0.1197
     73  CA        26.2120  -31.3290   57.2610 C.3   122  ARG122      0.1779
     74  C         27.6350  -30.8010   57.0790 C.2   122  ARG122      0.2305
     75  O         28.0200  -30.4720   55.9570 O.2   122  ARG122     -0.2863
     76  CB        25.3200  -30.2480   57.8900 C.2   122  ARG122     -0.0007
     77  CG        24.9070  -29.1420   57.0090 C.2   122  ARG122      0.0176
     78  CD        23.7980  -28.2370   57.3110 C.3   122  ARG122      0.2464
     79  NE        22.6060  -28.8510   57.9160 N.pl3 122  ARG122     -0.0815
     80  CZ        21.4310  -28.4370   57.4110 C.cat 122  ARG122      0.5349
     81  NH1       21.5600  -27.5840   56.3920 N.pl3 122  ARG122      0.1354
     82  NH2       20.2230  -28.8140   57.8100 N.pl3 122  ARG122      0.1354
     83  N         30.8020  -31.0890   53.6900 N.3   126  ARG126     -0.1245
     84  CA        31.0010  -29.7320   53.1650 C.3   126  ARG126      0.1563
     85  C         32.3480  -29.5210   52.4860 C.2   126  ARG126      0.2260
     86  O         33.3990  -29.8790   53.0190 O.2   126  ARG126     -0.2867
     87  CB        30.8020  -28.6630   54.2500 C.3   126  ARG126      0.0307
     88  CG        30.7090  -27.2540   53.6330 C.3   126  ARG126      0.0489
     89  CD        30.8940  -26.1780   54.6920 C.3   126  ARG126      0.2205
     90  NE        29.9880  -26.3550   55.8190 N.pl3 126  ARG126     -0.0865
     91  CZ        28.6720  -26.1030   55.7630 C.cat 126  ARG126      0.5346
     92  NH1       28.0620  -25.6520   54.6710 N.pl3 126  ARG126      0.1354
     93  NH2       27.9290  -26.3920   56.8200 N.pl3 126  ARG126      0.1354
     94  N         34.0490  -26.2510   49.9470 N.3   128  ILE128     -0.1245
     95  CA        33.8850  -24.9290   49.3470 C.3   128  ILE128      0.1561
     96  C         35.1660  -24.5240   48.6560 C.2   128  ILE128      0.2260
     97  O         36.2500  -24.8950   49.1170 O.2   128  ILE128     -0.2867
     98  CB        33.4500  -23.8610   50.3840 C.3   128  ILE128      0.0252
     99  CG1       34.5200  -23.6160   51.4570 C.3   128  ILE128      0.0019
    100  CG2       32.1330  -24.2860   50.9980 C.3   128  ILE128      0.0019
    101  CD1       34.1840  -22.4530   52.3670 C.3   128  ILE128      0.0001
    102  N         33.1950  -25.0030   67.9750 N.3   139  ARG139     -0.1245
    103  CA        32.3840  -24.0100   67.2700 C.3   139  ARG139      0.1563
    104  C         30.9430  -24.0380   67.7860 C.2   139  ARG139      0.2260
    105  O         30.3680  -22.9740   68.0220 O.2   139  ARG139     -0.2867
    106  CB        32.4200  -24.2590   65.7550 C.3   139  ARG139      0.0307
    107  CG        31.7580  -23.1260   64.9490 C.3   139  ARG139      0.0489
    108  CD        31.7490  -23.3500   63.4300 C.3   139  ARG139      0.2205
    109  NE        33.1230  -23.3530   62.9500 N.pl3 139  ARG139     -0.0865
    110  CZ        33.7060  -24.4530   62.4440 C.cat 139  ARG139      0.5346
    111  NH1       33.0440  -25.6230   62.3270 N.pl3 139  ARG139      0.1354
    112  NH2       35.0110  -24.3950   62.1530 N.pl3 139  ARG139      0.1354
    113  N         15.1740  -25.4650   59.8610 N.3   165  ALA165     -0.1231
    114  CA        16.2910  -25.6390   58.9370 C.3   165  ALA165      0.1694
    115  C         16.6480  -27.1220   58.6240 C.2   165  ALA165      0.2593
    116  O         17.5910  -27.3770   57.8650 O.2   165  ALA165     -0.2718
    117  CB        17.5050  -24.8980   59.4630 C.3   165  ALA165      0.0304
    118  N         15.8720  -28.0850   59.1670 N.am  166  THR166     -0.1939
    119  CA        16.0700  -29.5170   58.9140 C.3   166  THR166      0.2028
    120  C         15.3850  -29.9580   57.6070 C.2   166  THR166      0.2642
    121  O         15.7050  -31.0330   57.0810 O.2   166  THR166     -0.2714
    122  CB        15.5930  -30.3500   60.1040 C.3   166  THR166      0.1808
    123  OG1       16.1760  -29.8540   61.2880 O.3   166  THR166     -0.2208
    124  CG2       15.8840  -31.8060   59.9380 C.3   166  THR166      0.0379
    125  N         14.4530  -29.1260   57.0850 N.am  167  GLN167     -0.1963
    126  CA        13.7140  -29.3920   55.8490 C.3   167  GLN167      0.1718
    127  C         14.6370  -29.2510   54.6070 C.2   167  GLN167      0.2458
    128  O         15.6900  -28.6130   54.7360 O.2   167  GLN167     -0.2730
    129  CB        12.4850  -28.4680   55.7580 C.3   167  GLN167      0.0407
    130  CG        12.7230  -26.9820   55.7240 C.3   167  GLN167      0.0908
    131  CD        11.3930  -26.2440   55.8630 C.2   167  GLN167      0.2608
    132  OE1       10.6410  -26.1580   54.9060 O.2   167  GLN167     -0.2717
    133  NE2       11.0710  -25.8940   57.0960 N.am  167  GLN167     -0.0878
    134  N         14.2990  -29.8420   53.4160 N.am  168  PRO168     -0.2716
    135  CA        15.1930  -29.7030   52.2450 C.3   168  PRO168      0.1536
    136  C         15.4300  -28.2520   51.8430 C.2   168  PRO168      0.2598
    137  O         14.5420  -27.4160   52.0200 O.2   168  PRO168     -0.2715
    138  CB        14.4630  -30.4750   51.1430 C.3   168  PRO168      0.0310
    139  CG        13.5660  -31.4160   51.8640 C.3   168  PRO168      0.0237
    140  CD        13.1140  -30.6550   53.0700 C.3   168  PRO168      0.0939
    141  N         16.6360  -27.9590   51.3200 N.am  169  ALA169     -0.1978
    142  CA        17.0730  -26.6180   50.9150 C.3   169  ALA169      0.1597
    143  C         16.0660  -25.8800   50.0180 C.2   169  ALA169      0.2287
    144  O         15.7760  -24.7080   50.2840 O.2   169  ALA169     -0.2864
    145  CB        18.4330  -26.6900   50.2330 C.3   169  ALA169      0.0319
    146  N         13.0500  -24.9420   52.1730 N.3   172  LEU172     -0.1245
    147  CA        13.4460  -23.8600   53.0810 C.3   172  LEU172      0.1561
    148  C         13.5490  -22.5250   52.3460 C.2   172  LEU172      0.2260
    149  O         13.1830  -21.4930   52.9150 O.2   172  LEU172     -0.2867
    150  CB        14.7650  -24.1820   53.8010 C.3   172  LEU172      0.0270
    151  CG        15.1600  -23.1460   54.8550 C.3   172  LEU172      0.0019
    152  CD1       14.1330  -23.0140   55.9730 C.3   172  LEU172      0.0001
    153  CD2       16.5250  -23.5040   55.4210 C.3   172  LEU172      0.0001
@<TRIPOS>BOND
     1    96    97    2
     2    96    95    1
     3    95    94    1
     4    95    98    1
     5     8     7    2
     6   143   144    2
     7   143   142    1
     8    21    22    1
     9   145   142    1
    10    25    22    1
    11    25    26    1
    12    98   100    1
    13    98    99    1
    14    15    14    2
    15     7     6    1
    16     7    12   am
    17    27    26   ar
    18    27    29   ar
    19   142   141    1
    20    22    23    1
    21     6     9    1
    22     6     5    1
    23   138   139    1
    24   138   135    1
    25    26    28   ar
    26     4     3    2
    27   141   136   am
    28    14    13    1
    29    24    23    2
    30     9    11    1
    31     9    10    1
    32    99   101    1
    33    20    18   am
    34    13    12    1
    35    13    16    1
    36    19    18    2
    37    29    30   ar
    38   136   137    2
    39   136   135    1
    40   139   140    1
    41    18    17    1
    42   146   147    1
    43     5     3   am
    44   135   134    1
    45     3     2    1
    46   148   149    2
    47   148   147    1
    48    85    86    2
    49    85    84    1
    50    28    30   ar
    51    16    17    1
    52   140   134    1
    53   147   150    1
    54    84    83    1
    55    84    87    1
    56    36    35    1
    57   134   127   am
    58     2     1    1
    59    88    87    1
    60    88    89    1
    61   150   151    1
    62    31    32    1
    63    35    32    1
    64   127   128    2
    65   127   126    1
    66    92    91    1
    67    89    90    1
    68   151   153    1
    69   151   152    1
    70   132   131    2
    71    34    33    2
    72    32    33    1
    73   130   129    1
    74   130   131    1
    75   129   126    1
    76    91    90    2
    77    91    93    1
    78   126   125    1
    79   131   133   am
    80    48    46   ar
    81    75    74    2
    82    81    80    1
    83    45    46    1
    84    45    42    1
    85    39    40    2
    86    39    38    1
    87    46    47   ar
    88    77    78    1
    89    77    76    2
    90    74    73    1
    91   121   120    2
    92   125   120   am
    93    73    76    1
    94    73    72    1
    95    78    79    1
    96    80    82    1
    97    80    79    2
    98    41    42    1
    99   120   119    1
   100    42    43    1
   101   116   115    2
   102    38    37    1
   103    44    43    2
   104    43    49   am
   105   115   114    1
   106   115   118   am
   107   119   118    1
   108   119   122    1
   109   114   117    1
   110   114   113    1
   111    49    50    1
   112   124   122    1
   113   122   123    1
   114    50    51    1
   115    67    66    2
   116    51    52    2
   117    66    65    1
   118    71    69    1
   119    65    64    1
   120    65    68    1
   121   112   110    1
   122   111   110    1
   123   110   109    2
   124    68    69    1
   125   109   108    1
   126    69    70    1
   127   108   107    1
   128    62    61    1
   129   107   106    1
   130    61    63    1
   131    61    60    2
   132    59    60    1
   133    59    58    1
   134   106   103    1
   135    53    54    1
   136    57    58    1
   137    57    54    1
   138    54    55    1
   139   103   104    1
   140   103   102    1
   141   104   105    2
   142    55    56    2
