@<TRIPOS>MOLECULE
tmp/3tlxA00.pdb
 185 174 0 0 0
SMALL
GASTEIGER

@<TRIPOS>ATOM
      1  N         -4.6810  -20.2530   -9.3930 N.3    30  PRO30      -0.2116
      2  CA        -5.4830  -19.8460   -8.2260 C.3    30  PRO30       0.1372
      3  C         -5.8530  -21.0580   -7.3810 C.2    30  PRO30       0.2244
      4  O         -6.2390  -22.0880   -7.9350 O.2    30  PRO30      -0.2868
      5  CB        -6.7380  -19.2190   -8.8510 C.3    30  PRO30       0.0268
      6  CG        -6.4560  -19.0850  -10.2910 C.3    30  PRO30       0.0207
      7  CD        -5.4530  -20.1090  -10.6420 C.3    30  PRO30       0.0892
      8  N         -0.8310  -19.1930   -2.5270 N.3    34  LYS34      -0.1245
      9  CA         0.0470  -18.0260   -2.6020 C.3    34  LYS34       0.1561
     10  C         -0.3000  -16.9930   -1.5420 C.2    34  LYS34       0.2260
     11  O          0.5870  -16.5400   -0.8260 O.2    34  LYS34      -0.2867
     12  CB        -0.0060  -17.3900   -3.9960 C.3    34  LYS34       0.0271
     13  CG         0.3890  -18.3170   -5.1280 C.3    34  LYS34       0.0035
     14  CD         0.4520  -17.5920   -6.4720 C.3    34  LYS34       0.0206
     15  CE        -0.8640  -16.9920   -6.9140 C.3    34  LYS34       0.1093
     16  NZ        -1.9900  -17.9830   -6.9600 N.3    34  LYS34      -0.1314
     17  N         -0.2690   -7.9780   -3.6270 N.3    51  SER51      -0.1202
     18  CA        -1.2480   -8.7480   -4.3640 C.3    51  SER51       0.2020
     19  C         -1.9200   -7.8350   -5.4180 C.2    51  SER51       0.2619
     20  O         -2.5880   -6.8610   -5.0560 O.2    51  SER51      -0.2717
     21  CB        -2.2740   -9.3590   -3.4110 C.3    51  SER51       0.2103
     22  OG        -3.3840   -9.8240   -4.1610 O.3    51  SER51      -0.2182
     23  N         -1.7180   -8.1440   -6.7150 N.am   52  THR52      -0.1938
     24  CA        -2.3300   -7.3990   -7.8130 C.3    52  THR52       0.2028
     25  C         -3.8430   -7.6670   -7.8400 C.2    52  THR52       0.2643
     26  O         -4.6240   -6.7420   -8.0990 O.2    52  THR52      -0.2714
     27  CB        -1.6460   -7.6660   -9.1310 C.3    52  THR52       0.1808
     28  OG1       -1.5680   -9.0710   -9.3580 O.3    52  THR52      -0.2208
     29  CG2       -0.2730   -7.0560   -9.1740 C.3    52  THR52       0.0379
     30  N         -4.2450   -8.8900   -7.4900 N.am   53  GLY53      -0.1939
     31  CA        -5.6480   -9.2550   -7.3720 C.3    53  GLY53       0.2014
     32  C         -6.3510   -8.3590   -6.3680 C.2    53  GLY53       0.2638
     33  O         -7.3820   -7.7680   -6.6980 O.2    53  GLY53      -0.2714
     34  N         -5.7460   -8.1850   -5.1580 N.am   54  ASP54      -0.1971
     35  CA        -6.2830   -7.3170   -4.1020 C.3    54  ASP54       0.1709
     36  C         -6.3590   -5.8650   -4.5590 C.2    54  ASP54       0.2293
     37  O         -7.4170   -5.2550   -4.4240 O.2    54  ASP54      -0.2864
     38  CB        -5.4680   -7.4360   -2.8030 C.3    54  ASP54       0.1436
     39  CG        -5.7140   -8.7040   -1.9920 C.2    54  ASP54       0.3671
     40  OD1       -6.7020   -9.4410   -2.2970 O.co2  54  ASP54      -0.2456
     41  OD2       -4.9500   -8.9480   -1.0330 O.co2  54  ASP54      -0.2456
     42  N         -6.4340   -4.7530   -7.6400 N.3    56  LEU56      -0.1231
     43  CA        -7.3500   -4.5890   -8.7740 C.3    56  LEU56       0.1693
     44  C         -8.8280   -4.6950   -8.3570 C.2    56  LEU56       0.2591
     45  O         -9.6440   -3.9340   -8.8810 O.2    56  LEU56      -0.2718
     46  CB        -7.0200   -5.5540   -9.9250 C.3    56  LEU56       0.0284
     47  CG        -5.8240   -5.1540  -10.7720 C.3    56  LEU56       0.0019
     48  CD1       -5.2470   -6.3350  -11.4640 C.3    56  LEU56       0.0001
     49  CD2       -6.2000   -4.1050  -11.7880 C.3    56  LEU56       0.0001
     50  N         -9.1640   -5.6130   -7.4080 N.am   57  ARG57      -0.1980
     51  CA       -10.5100   -5.7840   -6.8440 C.3    57  ARG57       0.1597
     52  C        -10.9120   -4.4890   -6.1010 C.2    57  ARG57       0.2287
     53  O        -12.0760   -4.0970   -6.1330 O.2    57  ARG57      -0.2864
     54  CB       -10.5600   -6.9880   -5.9050 C.3    57  ARG57       0.0334
     55  CG       -12.0410   -7.2060   -5.4820 C.3    57  ARG57       0.0492
     56  CD       -12.2150   -8.5810   -4.8640 C.3    57  ARG57       0.2205
     57  NE       -11.3830   -8.6680   -3.6710 N.pl3  57  ARG57      -0.0865
     58  CZ       -10.2050   -9.2640   -3.5730 C.cat  57  ARG57       0.5346
     59  NH1       -9.6750   -9.9510   -4.5970 N.pl3  57  ARG57       0.1354
     60  NH2       -9.4680   -9.1160   -2.4730 N.pl3  57  ARG57       0.1354
     61  N        -13.5910   -7.4750  -16.1910 N.3    73  ILE73      -0.1231
     62  CA       -12.4640   -8.3110  -16.6050 C.3    73  ILE73       0.1692
     63  C        -12.2000   -9.3520  -15.5250 C.2    73  ILE73       0.2591
     64  O        -12.0590  -10.5350  -15.8530 O.2    73  ILE73      -0.2718
     65  CB       -11.2020   -7.4740  -16.9890 C.3    73  ILE73       0.0266
     66  CG1      -11.3120   -7.0100  -18.4520 C.3    73  ILE73       0.0019
     67  CG2       -9.8850   -8.2620  -16.7710 C.3    73  ILE73       0.0020
     68  CD1      -10.1940   -6.1350  -18.9470 C.3    73  ILE73       0.0001
     69  N        -12.1780   -8.9070  -14.2370 N.am   74  ILE74      -0.1980
     70  CA       -11.9500   -9.7460  -13.0500 C.3    74  ILE74       0.1595
     71  C        -13.0040  -10.8520  -12.9700 C.2    74  ILE74       0.2287
     72  O        -12.6400  -12.0360  -12.9360 O.2    74  ILE74      -0.2864
     73  CB       -11.8910   -8.9060  -11.7490 C.3    74  ILE74       0.0276
     74  CG1      -10.6020   -8.0090  -11.8110 C.3    74  ILE74       0.0022
     75  CG2      -11.8350   -9.8190  -10.5350 C.3    74  ILE74       0.0022
     76  CD1      -10.2190   -7.3830  -10.5220 C.3    74  ILE74       0.0001
     77  N        -12.7660  -13.6540  -15.3910 N.3    77  GLY77      -0.1210
     78  CA       -11.5820  -14.4710  -15.1590 C.3    77  GLY77       0.1956
     79  C        -10.4070  -14.1850  -16.0770 C.2    77  GLY77       0.2612
     80  O         -9.4470  -14.9620  -16.1000 O.2    77  GLY77      -0.2717
     81  N        -10.4680  -13.0650  -16.8340 N.am   78  LYS78      -0.1965
     82  CA        -9.4240  -12.6380  -17.7780 C.3    78  LYS78       0.1728
     83  C         -8.4230  -11.6580  -17.1340 C.2    78  LYS78       0.2616
     84  O         -8.6360  -11.2080  -16.0100 O.2    78  LYS78      -0.2715
     85  CB       -10.0490  -12.0320  -19.0480 C.3    78  LYS78       0.0311
     86  CG       -10.9640  -12.9860  -19.8030 C.3    78  LYS78       0.0038
     87  CD       -10.2490  -14.0470  -20.5650 C.3    78  LYS78       0.0206
     88  CE       -11.0430  -14.8670  -21.5940 C.3    78  LYS78       0.1093
     89  NZ       -11.8490  -15.8950  -20.8700 N.3    78  LYS78      -0.1314
     90  N         -7.3160  -11.3590  -17.8390 N.am   79  LEU79      -0.1963
     91  CA        -6.2670  -10.4710  -17.3400 C.3    79  LEU79       0.1728
     92  C         -6.4870   -9.0180  -17.7180 C.2    79  LEU79       0.2616
     93  O         -6.8010   -8.6990  -18.8660 O.2    79  LEU79      -0.2715
     94  CB        -4.8660  -10.9110  -17.8210 C.3    79  LEU79       0.0311
     95  CG        -4.3770  -12.3300  -17.4880 C.3    79  LEU79       0.0022
     96  CD1       -3.0360  -12.6220  -18.1530 C.3    79  LEU79       0.0001
     97  CD2       -4.2850  -12.5690  -15.9890 C.3    79  LEU79       0.0001
     98  N         -6.2800   -8.1370  -16.7400 N.am   80  VAL80      -0.1977
     99  CA        -6.3100   -6.6850  -16.8670 C.3    80  VAL80       0.1596
    100  C         -5.0610   -6.2950  -17.7020 C.2    80  VAL80       0.2287
    101  O         -4.0640   -7.0290  -17.7010 O.2    80  VAL80      -0.2864
    102  CB        -6.3070   -6.0690  -15.4380 C.3    80  VAL80       0.0276
    103  CG1       -5.5370   -4.7590  -15.3450 C.3    80  VAL80       0.0022
    104  CG2       -7.7220   -5.9240  -14.8930 C.3    80  VAL80       0.0022
    105  N         -1.5310   -2.7860  -14.5170 N.3    85  VAL85      -0.1245
    106  CA        -0.9660   -3.5290  -13.3890 C.3    85  VAL85       0.1561
    107  C          0.4070   -2.9840  -13.0060 C.2    85  VAL85       0.2260
    108  O          0.6810   -2.8090  -11.8180 O.2    85  VAL85      -0.2867
    109  CB        -0.9060   -5.0520  -13.6130 C.3    85  VAL85       0.0252
    110  CG1       -1.5660   -5.7820  -12.4570 C.3    85  VAL85       0.0019
    111  CG2       -1.5430   -5.4560  -14.9370 C.3    85  VAL85       0.0019
    112  N          2.4780  -11.5280   -5.4460 N.3   105  ASP105     -0.1225
    113  CA         1.4490  -12.5600   -5.5000 C.3   105  ASP105      0.1805
    114  C          0.4270  -12.1190   -6.5560 C.2   105  ASP105      0.2598
    115  O         -0.3140  -11.1590   -6.3330 O.2   105  ASP105     -0.2718
    116  CB         0.8660  -12.7100   -4.0800 C.3   105  ASP105      0.1424
    117  CG        -0.4210  -13.4600   -3.9250 C.2   105  ASP105      0.3668
    118  OD1       -0.7160  -14.3280   -4.7860 O.co2 105  ASP105     -0.2456
    119  OD2       -1.1100  -13.2300   -2.9140 O.co2 105  ASP105     -0.2456
    120  N          0.4580  -12.7660   -7.7220 N.am  106  GLY106     -0.1942
    121  CA        -0.4200  -12.4150   -8.8380 C.3   106  GLY106      0.2014
    122  C          0.2550  -11.6280   -9.9470 C.2   106  GLY106      0.2638
    123  O         -0.3200  -11.4260  -11.0150 O.2   106  GLY106     -0.2714
    124  N          1.4770  -11.1810   -9.6990 N.am  107  TYR107     -0.1973
    125  CA         2.2970  -10.4530  -10.6610 C.3   107  TYR107      0.1639
    126  C          3.6990  -11.0800  -10.6810 C.2   107  TYR107      0.2290
    127  O          4.2630  -11.3150   -9.6110 O.2   107  TYR107     -0.2864
    128  CB         2.3890   -8.9670  -10.2960 C.3   107  TYR107      0.0560
    129  CG         3.0070   -8.1180  -11.3800 C.ar  107  TYR107     -0.0198
    130  CD1        2.2460   -7.6570  -12.4490 C.ar  107  TYR107     -0.0009
    131  CD2        4.3450   -7.7400  -11.3210 C.ar  107  TYR107     -0.0009
    132  CE1        2.8100   -6.8750  -13.4540 C.ar  107  TYR107      0.0417
    133  CE2        4.9190   -6.9480  -12.3170 C.ar  107  TYR107      0.0417
    134  CZ         4.1470   -6.5180  -13.3830 C.ar  107  TYR107      0.1957
    135  OH         4.6830   -5.7310  -14.3710 O.3   107  TYR107     -0.2866
    136  N          1.9060  -12.0200  -14.5920 N.3   109  ARG109     -0.1245
    137  CA         1.0150  -13.0900  -15.0370 C.3   109  ARG109      0.1563
    138  C          1.2930  -13.5500  -16.4880 C.2   109  ARG109      0.2260
    139  O          0.5840  -14.4300  -16.9960 O.2   109  ARG109     -0.2867
    140  CB        -0.4580  -12.7160  -14.8100 C.3   109  ARG109      0.0307
    141  CG        -0.9030  -13.0480  -13.4150 C.3   109  ARG109      0.0489
    142  CD        -1.5210  -14.4260  -13.3850 C.3   109  ARG109      0.2205
    143  NE        -1.9900  -14.8860  -12.1030 N.pl3 109  ARG109     -0.0865
    144  CZ        -3.2060  -14.6130  -11.6510 C.cat 109  ARG109      0.5346
    145  NH1       -4.0190  -13.8600  -12.3640 N.pl3 109  ARG109      0.1354
    146  NH2       -3.5980  -15.0920  -10.4510 N.pl3 109  ARG109      0.1354
    147  N          4.7280   -9.0050  -18.7270 N.3   113  GLN113     -0.1245
    148  CA         4.7210   -8.5320  -17.3290 C.3   113  GLN113      0.1566
    149  C          6.0250   -8.8620  -16.6130 C.2   113  GLN113      0.2260
    150  O          6.4770   -8.0680  -15.7820 O.2   113  GLN113     -0.2867
    151  CB         3.5340   -9.1160  -16.5570 C.3   113  GLN113      0.0367
    152  CG         2.2220   -8.4250  -16.8830 C.3   113  GLN113      0.0905
    153  CD         1.0510   -8.9520  -16.1230 C.2   113  GLN113      0.2608
    154  OE1        1.1320   -9.2850  -14.9460 O.2   113  GLN113     -0.2717
    155  NE2       -0.0900   -8.9590  -16.7560 N.am  113  GLN113     -0.0878
    156  N        -15.5810  -14.9860   -2.9810 N.3   181  ARG181     -0.1245
    157  CA       -15.1000  -14.1970   -4.1090 C.3   181  ARG181      0.1563
    158  C        -15.9620  -14.4830   -5.3440 C.2   181  ARG181      0.2260
    159  O        -16.2130  -15.6560   -5.6340 O.2   181  ARG181     -0.2867
    160  CB       -13.6160  -14.4990   -4.3880 C.3   181  ARG181      0.0307
    161  CG       -12.6460  -13.8070   -3.4490 C.3   181  ARG181      0.0489
    162  CD       -11.4840  -13.2780   -4.2460 C.3   181  ARG181      0.2205
    163  NE       -10.2070  -13.9120   -3.8970 N.pl3 181  ARG181     -0.0865
    164  CZ        -9.4150  -14.5480   -4.7580 C.cat 181  ARG181      0.5346
    165  NH1       -9.7680  -14.6690   -6.0330 N.pl3 181  ARG181      0.1354
    166  NH2       -8.2620  -15.0660   -4.3510 N.pl3 181  ARG181      0.1354
    167  N        -15.2550  -14.2620   -8.4170 N.3   183  ASP183     -0.1239
    168  CA       -14.4270  -15.0040   -9.3680 C.3   183  ASP183      0.1674
    169  C        -14.1590  -16.4720   -8.9280 C.2   183  ASP183      0.2266
    170  O        -13.5410  -17.2230   -9.6870 O.2   183  ASP183     -0.2867
    171  CB       -13.1210  -14.2520   -9.7130 C.3   183  ASP183      0.1410
    172  CG       -12.2950  -13.7730   -8.5380 C.2   183  ASP183      0.3668
    173  OD1      -11.5460  -14.5800   -7.9770 O.co2 183  ASP183     -0.2456
    174  OD2      -12.3550  -12.5720   -8.2240 O.co2 183  ASP183     -0.2456
    175  N        -10.0800  -19.0170  -15.5040 N.3   192  ARG192     -0.1245
    176  CA        -8.9050  -18.5540  -14.7680 C.3   192  ARG192      0.1563
    177  C         -7.7470  -19.5630  -14.8820 C.2   192  ARG192      0.2260
    178  O         -6.5960  -19.1630  -15.1070 O.2   192  ARG192     -0.2867
    179  CB        -9.2680  -18.3260  -13.2910 C.3   192  ARG192      0.0307
    180  CG        -9.9890  -17.0180  -13.0240 C.3   192  ARG192      0.0489
    181  CD       -10.8620  -17.0600  -11.7810 C.3   192  ARG192      0.2205
    182  NE       -10.1260  -17.1690  -10.5200 N.pl3 192  ARG192     -0.0865
    183  CZ        -9.7100  -16.1340   -9.7990 C.cat 192  ARG192      0.5346
    184  NH1       -9.0720  -16.3280   -8.6510 N.pl3 192  ARG192      0.1354
    185  NH2       -9.9200  -14.8940  -10.2240 N.pl3 192  ARG192      0.1354
@<TRIPOS>BOND
     1    88    89    1
     2    88    87    1
     3    87    86    1
     4    86    85    1
     5    85    82    1
     6    68    66    1
     7    93    92    2
     8   147   148    1
     9    66    65    1
    10    96    95    1
    11    90    91    1
    12    90    83   am
    13    94    95    1
    14    94    91    1
    15    82    83    1
    16    82    81    1
    17    92    91    1
    18    92    98   am
    19   100   101    2
    20   100    99    1
    21    95    97    1
    22   148   149    1
    23   148   151    1
    24    83    84    2
    25   139   138    2
    26    65    67    1
    27    65    62    1
    28   152   151    1
    29   152   153    1
    30    99    98    1
    31    99   102    1
    32    81    79   am
    33   155   153   am
    34   149   150    2
    35    62    61    1
    36    62    63    1
    37   138   137    1
    38   153   154    2
    39    80    79    2
    40    79    78    1
    41    64    63    2
    42    63    69   am
    43   175   176    1
    44   102   103    1
    45   102   104    1
    46    77    78    1
    47   178   177    2
    48   137   140    1
    49   137   136    1
    50   111   109    1
    51   177   176    1
    52   140   141    1
    53   176   179    1
    54   105   106    1
    55   135   134    1
    56    69    70    1
    57   109   106    1
    58   109   110    1
    59   132   134   ar
    60   132   130   ar
    61   141   142    1
    62   106   107    1
    63   142   143    1
    64   134   133   ar
    65   179   180    1
    66    70    71    1
    67    70    73    1
    68   180   181    1
    69   107   108    2
    70    71    72    2
    71   130   129   ar
    72   145   144    1
    73   133   131   ar
    74   143   144    2
    75    74    73    1
    76    74    76    1
    77    49    47    1
    78   181   182    1
    79    73    75    1
    80   144   146    1
    81    48    47    1
    82   129   131   ar
    83   129   128    1
    84   123   122    2
    85    47    46    1
    86   126   125    1
    87   126   127    2
    88   125   128    1
    89   125   124    1
    90     7     6    1
    91     7     1    1
    92   182   183    2
    93     6     5    1
    94   185   183    1
    95   122   124   am
    96   122   121    1
    97    46    43    1
    98   183   184    1
    99   171   168    1
   100   171   172    1
   101   170   169    2
   102     1     2    1
   103   168   169    1
   104   168   167    1
   105    28    27    1
   106    29    27    1
   107    27    24    1
   108    45    44    2
   109     5     2    1
   110   121   120    1
   111    43    44    1
   112    43    42    1
   113   172   174   ar
   114   172   173   ar
   115    44    50   am
   116     2     3    1
   117    26    25    2
   118     4     3    2
   119    25    24    1
   120    25    30   am
   121    24    23    1
   122   120   114   am
   123    30    31    1
   124    50    51    1
   125    31    32    1
   126    16    15    1
   127    15    14    1
   128    51    52    1
   129    51    54    1
   130    23    19   am
   131    33    32    2
   132   114   115    2
   133   114   113    1
   134    14    13    1
   135    32    34   am
   136    53    52    2
   137   165   164    1
   138    54    55    1
   139   159   158    2
   140   113   112    1
   141   113   116    1
   142    55    56    1
   143    19    20    2
   144    19    18    1
   145   158   157    1
   146    34    35    1
   147    13    12    1
   148    56    57    1
   149   118   117   ar
   150   164   166    1
   151   164   163    2
   152    59    58    1
   153    36    37    2
   154    36    35    1
   155   160   157    1
   156   160   161    1
   157    18    17    1
   158    18    21    1
   159   162   163    1
   160   162   161    1
   161    22    21    1
   162   157   156    1
   163    35    38    1
   164   116   117    1
   165    12     9    1
   166   117   119   ar
   167    57    58    2
   168    58    60    1
   169    38    39    1
   170     9     8    1
   171     9    10    1
   172    40    39   ar
   173    39    41   ar
   174    10    11    2
