@<TRIPOS>MOLECULE
tmp/3tlxB00.pdb
 181 177 0 0 0
SMALL
GASTEIGER

@<TRIPOS>ATOM
      1  N         44.1620    2.2750   -3.9820 N.3    35  PRO35      -0.2102
      2  CA        44.4800    2.4130   -2.5560 C.3    35  PRO35       0.1504
      3  C         44.5980    3.8890   -2.2260 C.2    35  PRO35       0.2576
      4  O         45.1540    4.6450   -3.0100 O.2    35  PRO35      -0.2718
      5  CB        45.8090    1.6600   -2.4000 C.3    35  PRO35       0.0282
      6  CG        46.0450    0.9540   -3.7300 C.3    35  PRO35       0.0208
      7  CD        45.3280    1.7880   -4.7440 C.3    35  PRO35       0.0893
      8  N         44.0250    4.2730   -1.0980 N.am   36  GLY36      -0.1943
      9  CA        43.9920    5.6440   -0.6070 C.3    36  GLY36       0.2014
     10  C         42.6790    6.3230   -0.8840 C.2    36  GLY36       0.2640
     11  O         42.5140    7.4700   -0.5060 O.2    36  GLY36      -0.2714
     12  N         41.7290    5.6110   -1.5280 N.am   37  SER37      -0.1935
     13  CA        40.3900    6.0650   -1.9070 C.3    37  SER37       0.2055
     14  C         39.4700    6.2760   -0.7350 C.2    37  SER37       0.2644
     15  O         38.5020    7.0490   -0.8850 O.2    37  SER37      -0.2714
     16  CB        39.7330    5.0760   -2.8600 C.3    37  SER37       0.2130
     17  OG        40.2320    5.1970   -4.1800 O.3    37  SER37      -0.2179
     18  N         39.7430    5.5750    0.3890 N.am   38  GLY38      -0.1939
     19  CA        38.9390    5.6520    1.6060 C.3    38  GLY38       0.2014
     20  C         37.9780    4.4990    1.7800 C.2    38  GLY38       0.2639
     21  O         36.9700    4.6370    2.4670 O.2    38  GLY38      -0.2714
     22  N         38.3060    3.3340    1.1910 N.am   39  LYS39      -0.1963
     23  CA        37.5060    2.1320    1.2670 C.3    39  LYS39       0.1728
     24  C         37.4840    1.5840    2.6990 C.2    39  LYS39       0.2617
     25  O         36.4050    1.2520    3.1920 O.2    39  LYS39      -0.2715
     26  CB        38.0470    1.0650    0.3070 C.3    39  LYS39       0.0311
     27  CG        38.0370    1.4520   -1.1690 C.3    39  LYS39       0.0038
     28  CD        38.4550    0.2670   -2.0850 C.3    39  LYS39       0.0206
     29  CE        39.8450   -0.3120   -1.8430 C.3    39  LYS39       0.1093
     30  NZ        40.9040    0.7180   -1.8440 N.3    39  LYS39      -0.1314
     31  N         38.6670    1.4650    3.3360 N.am   40  GLY40      -0.1940
     32  CA        38.8140    0.9580    4.7000 C.3    40  GLY40       0.2014
     33  C         38.0390    1.8330    5.6490 C.2    40  GLY40       0.2640
     34  O         37.2000    1.3550    6.4160 O.2    40  GLY40      -0.2714
     35  N         38.2400    3.1500    5.5110 N.am   41  THR41      -0.1936
     36  CA        37.5450    4.1590    6.3070 C.3    41  THR41       0.2028
     37  C         36.0220    3.9640    6.2910 C.2    41  THR41       0.2642
     38  O         35.3980    3.8530    7.3540 O.2    41  THR41      -0.2714
     39  CB        37.9240    5.5490    5.8030 C.3    41  THR41       0.1808
     40  OG1       39.3250    5.7030    5.8980 O.3    41  THR41      -0.2208
     41  CG2       37.2370    6.6240    6.5550 C.3    41  THR41       0.0379
     42  N         35.4550    3.9150    5.0810 N.am   42  GLN42      -0.1976
     43  CA        34.0300    3.7780    4.8610 C.3    42  GLN42       0.1601
     44  C         33.4900    2.3780    5.2430 C.2    42  GLN42       0.2287
     45  O         32.3360    2.2790    5.6700 O.2    42  GLN42      -0.2864
     46  CB        33.6600    4.1700    3.4210 C.3    42  GLN42       0.0394
     47  CG        33.9110    5.6450    3.0650 C.3    42  GLN42       0.0908
     48  CD        33.3860    6.7150    4.0290 C.2    42  GLN42       0.2608
     49  OE1       32.3350    6.5870    4.6560 O.2    42  GLN42      -0.2717
     50  NE2       34.1040    7.8340    4.1320 N.am   42  GLN42      -0.0878
     51  N         36.2780   -5.1610    0.4400 N.3   110  ASP110     -0.1239
     52  CA        37.2730   -4.1010    0.3740 C.3   110  ASP110      0.1674
     53  C         38.6020   -4.7290   -0.0730 C.2   110  ASP110      0.2266
     54  O         39.2330   -5.4440    0.7090 O.2   110  ASP110     -0.2867
     55  CB        37.3440   -3.4250    1.7610 C.3   110  ASP110      0.1410
     56  CG        38.5110   -2.4970    2.0640 C.2   110  ASP110      0.3668
     57  OD1       39.0890   -1.9290    1.1080 O.co2 110  ASP110     -0.2456
     58  OD2       38.7970   -2.2770    3.2680 O.co2 110  ASP110     -0.2456
     59  N         47.1680   10.8380    0.0000 N.3   149  ARG149     -0.1245
     60  CA        46.3320   10.0060    0.8600 C.3   149  ARG149      0.1563
     61  C         47.1560    8.8670    1.4560 C.2   149  ARG149      0.2260
     62  O         47.0640    8.6000    2.6550 O.2   149  ARG149     -0.2867
     63  CB        45.1420    9.4130    0.0610 C.3   149  ARG149      0.0307
     64  CG        44.0510   10.3820   -0.3140 C.3   149  ARG149      0.0489
     65  CD        43.0790   10.5960    0.8110 C.3   149  ARG149      0.2205
     66  NE        41.9130   11.3850    0.4120 N.pl3 149  ARG149     -0.0865
     67  CZ        40.7510   10.8560    0.0740 C.cat 149  ARG149      0.5346
     68  NH1       39.7280   11.6350   -0.2360 N.pl3 149  ARG149      0.1354
     69  NH2       40.5910    9.5420    0.0690 N.pl3 149  ARG149      0.1354
     70  N         49.2700    8.2150    5.5420 N.3   153  ARG153     -0.1245
     71  CA        48.5610    7.1090    6.2030 C.3   153  ARG153      0.1563
     72  C         49.3850    6.4550    7.3030 C.2   153  ARG153      0.2260
     73  O         50.5550    6.1280    7.1290 O.2   153  ARG153     -0.2867
     74  CB        48.0290    6.0480    5.2280 C.3   153  ARG153      0.0307
     75  CG        46.9110    5.2340    5.8760 C.3   153  ARG153      0.0489
     76  CD        46.8510    3.7700    5.4970 C.3   153  ARG153      0.2205
     77  NE        46.0090    3.5970    4.3190 N.pl3 153  ARG153     -0.0865
     78  CZ        46.4040    3.0460    3.1800 C.cat 153  ARG153      0.5346
     79  NH1       47.6080    2.5050    3.0760 N.pl3 153  ARG153      0.1354
     80  NH2       45.5870    2.9940    2.1490 N.pl3 153  ARG153      0.1354
     81  N         42.6050    3.5520   11.2160 N.3   162  ILE162     -0.1231
     82  CA        43.2650    4.3430   10.1700 C.3   162  ILE162      0.1692
     83  C         43.3580    5.8110   10.5970 C.2   162  ILE162      0.2592
     84  O         42.4340    6.3470   11.2120 O.2   162  ILE162     -0.2718
     85  CB        42.5340    4.1390    8.8010 C.3   162  ILE162      0.0266
     86  CG1       42.3780    2.6210    8.4800 C.3   162  ILE162      0.0019
     87  CG2       43.2050    4.8790    7.6340 C.3   162  ILE162      0.0020
     88  CD1       41.0560    2.2540    7.9010 C.3   162  ILE162      0.0001
     89  N         44.5050    6.4400   10.2920 N.am  163  TYR163     -0.1962
     90  CA        44.8260    7.8360   10.5620 C.3   163  TYR163      0.1771
     91  C         45.4590    8.4220    9.3250 C.2   163  TYR163      0.2619
     92  O         45.9400    7.6890    8.4650 O.2   163  TYR163     -0.2715
     93  CB        45.8730    7.9150   11.6990 C.3   163  TYR163      0.0574
     94  CG        45.3650    7.4590   13.0440 C.ar  163  TYR163     -0.0198
     95  CD1       45.6200    6.1740   13.5090 C.ar  163  TYR163     -0.0009
     96  CD2       44.6300    8.3140   13.8580 C.ar  163  TYR163     -0.0009
     97  CE1       45.1340    5.7430   14.7400 C.ar  163  TYR163      0.0417
     98  CE2       44.1480    7.8970   15.0970 C.ar  163  TYR163      0.0417
     99  CZ        44.3950    6.6070   15.5320 C.ar  163  TYR163      0.1957
    100  OH        43.9030    6.1970   16.7510 O.3   163  TYR163     -0.2866
    101  N         45.5370    9.7540    9.2800 N.am  164  HIS164     -0.1973
    102  CA        46.2410   10.4990    8.2510 C.3   164  HIS164      0.1656
    103  C         46.8810   11.6780    8.9250 C.2   164  HIS164      0.2291
    104  O         46.2140   12.3990    9.6380 O.2   164  HIS164     -0.2864
    105  CB        45.3260   10.9530    7.1140 C.3   164  HIS164      0.0771
    106  CG        46.0990   11.3620    5.8980 C.ar  164  HIS164      0.0820
    107  ND1       46.6770   12.6210    5.7900 N.ar  164  HIS164     -0.2267
    108  CD2       46.3860   10.6480    4.7870 C.ar  164  HIS164      0.1154
    109  CE1       47.2860   12.6270    4.6180 C.ar  164  HIS164      0.1986
    110  NE2       47.1270   11.4600    3.9750 N.ar  164  HIS164     -0.2212
    111  N         44.6410   14.7410    7.1600 N.3   167  PHE167     -0.1227
    112  CA        43.1970   14.5830    7.0470 C.3   167  PHE167      0.1736
    113  C         42.5440   13.9420    8.2650 C.2   167  PHE167      0.2595
    114  O         41.3670   14.2070    8.5200 O.2   167  PHE167     -0.2718
    115  CB        42.8020   13.8350    5.7500 C.3   167  PHE167      0.0547
    116  CG        43.5070   14.3100    4.4950 C.ar  167  PHE167     -0.0202
    117  CD1       44.2330   13.4240    3.7030 C.ar  167  PHE167     -0.0042
    118  CD2       43.5000   15.6550    4.1380 C.ar  167  PHE167     -0.0042
    119  CE1       44.9530   13.8810    2.5800 C.ar  167  PHE167     -0.0003
    120  CE2       44.2180   16.1110    3.0210 C.ar  167  PHE167     -0.0003
    121  CZ        44.9310   15.2200    2.2440 C.ar  167  PHE167     -0.0000
    122  N         43.2530   13.0790    8.9910 N.am  168  ASN168     -0.1974
    123  CA        42.6860   12.4100   10.1750 C.3   168  ASN168      0.1688
    124  C         43.7850   12.2320   11.2260 C.2   168  ASN168      0.2292
    125  O         44.2460   11.1190   11.4620 O.2   168  ASN168     -0.2864
    126  CB        42.0150   11.0690    9.7980 C.3   168  ASN168      0.1181
    127  CG        41.2160   10.4600   10.9240 C.2   168  ASN168      0.2629
    128  OD1       40.6410   11.1560   11.7700 O.2   168  ASN168     -0.2716
    129  ND2       41.1940    9.1350   10.9820 N.am  168  ASN168     -0.0877
    130  N         52.8480    1.2890    6.8650 N.3   186  ARG186     -0.1245
    131  CA        52.8700    0.0160    6.1600 C.3   186  ARG186      0.1563
    132  C         53.9470    0.0920    5.0740 C.2   186  ARG186      0.2260
    133  O         54.0060    1.0880    4.3550 O.2   186  ARG186     -0.2867
    134  CB        51.5040   -0.2580    5.5250 C.3   186  ARG186      0.0307
    135  CG        50.4320   -0.6980    6.4910 C.3   186  ARG186      0.0489
    136  CD        49.4950   -1.6400    5.7890 C.3   186  ARG186      0.2205
    137  NE        48.1130   -1.1550    5.6810 N.pl3 186  ARG186     -0.0865
    138  CZ        47.1540   -1.4550    6.5490 C.cat 186  ARG186      0.5346
    139  NH1       45.9150   -1.0110    6.3580 N.pl3 186  ARG186      0.1354
    140  NH2       47.4230   -2.2060    7.6110 N.pl3 186  ARG186      0.1354
    141  N         34.7820   10.3280   -4.0080 N.3   223  ALA223     -0.1231
    142  CA        35.5690   10.0040   -2.8180 C.3   223  ALA223      0.1694
    143  C         36.5850   11.0940   -2.3950 C.2   223  ALA223      0.2593
    144  O         37.3370   10.8960   -1.4310 O.2   223  ALA223     -0.2718
    145  CB        36.2790    8.6840   -3.0170 C.3   223  ALA223      0.0304
    146  N         36.5790   12.2540   -3.0720 N.am  224  THR224     -0.1939
    147  CA        37.4450   13.3900   -2.7360 C.3   224  THR224      0.2028
    148  C         36.8000   14.2580   -1.6480 C.2   224  THR224      0.2642
    149  O         37.4970   15.0680   -1.0280 O.2   224  THR224     -0.2714
    150  CB        37.8080   14.2070   -3.9820 C.3   224  THR224      0.1808
    151  OG1       36.6250   14.6950   -4.5700 O.3   224  THR224     -0.2208
    152  CG2       38.5710   13.3950   -5.0100 C.3   224  THR224      0.0379
    153  N         35.4750   14.0760   -1.4100 N.am  225  GLN225     -0.1963
    154  CA        34.7120   14.8370   -0.4060 C.3   225  GLN225      0.1718
    155  C         35.0950   14.3730    1.0200 C.2   225  GLN225      0.2458
    156  O         35.6510   13.2760    1.1440 O.2   225  GLN225     -0.2730
    157  CB        33.1910   14.7370   -0.6660 C.3   225  GLN225      0.0407
    158  CG        32.5250   13.4250   -0.2240 C.3   225  GLN225      0.0908
    159  CD        31.1010   13.2970   -0.7250 C.2   225  GLN225      0.2608
    160  OE1       30.1820   13.9100   -0.2020 O.2   225  GLN225     -0.2717
    161  NE2       30.8850   12.4820   -1.7500 N.am  225  GLN225     -0.0878
    162  N         34.8400   15.1650    2.1050 N.am  226  PRO226     -0.2716
    163  CA        35.2130   14.6910    3.4550 C.3   226  PRO226      0.1536
    164  C         34.5520   13.3610    3.8290 C.2   226  PRO226      0.2598
    165  O         33.4260   13.0740    3.3970 O.2   226  PRO226     -0.2715
    166  CB        34.7500   15.8390    4.3690 C.3   226  PRO226      0.0310
    167  CG        34.7020   17.0400    3.4810 C.3   226  PRO226      0.0237
    168  CD        34.2140   16.5060    2.1740 C.3   226  PRO226      0.0939
    169  N         35.2740   12.5370    4.6130 N.am  227  ALA227     -0.1978
    170  CA        34.8250   11.2240    5.0850 C.3   227  ALA227      0.1597
    171  C         33.4140   11.2330    5.7050 C.2   227  ALA227      0.2287
    172  O         32.6240   10.3470    5.3780 O.2   227  ALA227     -0.2864
    173  CB        35.8190   10.6530    6.0680 C.3   227  ALA227      0.0319
    174  N         30.9590   11.6990    2.7960 N.3   230  LEU230     -0.1245
    175  CA        30.9470   10.4430    2.0170 C.3   230  LEU230      0.1561
    176  C         30.1820    9.3270    2.7240 C.2   230  LEU230      0.2260
    177  O         29.4860    8.5560    2.0610 O.2   230  LEU230     -0.2867
    178  CB        32.3720    9.9900    1.6670 C.3   230  LEU230      0.0270
    179  CG        32.5000    8.9340    0.5780 C.3   230  LEU230      0.0019
    180  CD1       31.7920    9.3580   -0.7230 C.3   230  LEU230      0.0001
    181  CD2       33.9540    8.6110    0.3130 C.3   230  LEU230      0.0001
@<TRIPOS>BOND
     1   152   150    1
     2     7     1    1
     3     7     6    1
     4   151   150    1
     5    17    16    1
     6   141   142    1
     7   150   147    1
     8     1     2    1
     9     6     5    1
    10   146   147    1
    11   146   143   am
    12   145   142    1
    13     4     3    2
    14    16    13    1
    15   142   143    1
    16   147   148    1
    17     2     5    1
    18     2     3    1
    19   143   144    2
    20     3     8   am
    21    28    29    1
    22    28    27    1
    23    13    12    1
    24    13    14    1
    25    30    29    1
    26   161   159   am
    27   148   153   am
    28   148   149    2
    29    12    10   am
    30   153   154    1
    31    27    26    1
    32     8     9    1
    33    15    14    2
    34    10     9    1
    35    10    11    2
    36    14    18   am
    37   159   158    1
    38   159   160    2
    39   180   179    1
    40   157   154    1
    41   157   158    1
    42   154   155    1
    43    64    63    1
    44    64    65    1
    45    68    67    1
    46    53    52    1
    47    53    54    2
    48    59    60    1
    49    63    60    1
    50    69    67    1
    51    67    66    2
    52    26    23    1
    53   181   179    1
    54    52    51    1
    55    52    55    1
    56    18    19    1
    57    66    65    1
    58   179   178    1
    59    60    61    1
    60   155   156    2
    61   155   162   am
    62    57    56   ar
    63    22    23    1
    64    22    20   am
    65    23    24    1
    66    61    62    2
    67    19    20    1
    68   178   175    1
    69    55    56    1
    70    20    21    2
    71   175   176    1
    72   175   174    1
    73   177   176    2
    74    56    58   ar
    75   162   168    1
    76   162   163    1
    77    80    78    1
    78   168   167    1
    79   121   119   ar
    80   121   120   ar
    81   119   117   ar
    82    24    25    2
    83    24    31   am
    84   120   118   ar
    85    47    46    1
    86    47    48    1
    87    79    78    1
    88    78    77    2
    89    31    32    1
    90   165   164    2
    91    46    43    1
    92   163   164    1
    93   163   166    1
    94   167   166    1
    95   117   116   ar
    96   164   169   am
    97   110   109   ar
    98   110   108   ar
    99    48    50   am
   100    48    49    2
   101   118   116   ar
   102    77    76    1
   103   133   132    2
   104   116   115    1
   105   169   170    1
   106   109   107   ar
   107    32    33    1
   108   108   106   ar
   109    43    42    1
   110    43    44    1
   111   132   131    1
   112    42    37   am
   113   170   171    1
   114   170   173    1
   115    74    75    1
   116    74    71    1
   117    44    45    2
   118   172   171    2
   119    76    75    1
   120    35    33   am
   121    35    36    1
   122   134   131    1
   123   134   135    1
   124    70    71    1
   125    33    34    2
   126   137   136    1
   127   137   138    2
   128   115   112    1
   129   136   135    1
   130   107   106   ar
   131    39    40    1
   132    39    36    1
   133    39    41    1
   134   106   105    1
   135   131   130    1
   136    71    72    1
   137    37    36    1
   138    37    38    2
   139   139   138    1
   140   138   140    1
   141   112   111    1
   142   112   113    1
   143   105   102    1
   144    73    72    2
   145    87    85    1
   146    88    86    1
   147   102   103    1
   148   102   101    1
   149   113   114    2
   150   113   122   am
   151    92    91    2
   152    86    85    1
   153    85    82    1
   154   103   104    2
   155   122   123    1
   156   101    91   am
   157    91    90    1
   158   126   123    1
   159   126   127    1
   160    82    83    1
   161    82    81    1
   162   123   124    1
   163    89    90    1
   164    89    83   am
   165    90    93    1
   166    83    84    2
   167   127   129   am
   168   127   128    2
   169   124   125    2
   170    93    94    1
   171    94    95   ar
   172    94    96   ar
   173    95    97   ar
   174    96    98   ar
   175    97    99   ar
   176    98    99   ar
   177    99   100    1
