@<TRIPOS>MOLECULE
tmp/3tlzB00.pdb
 120 116 0 0 0
SMALL
GASTEIGER

@<TRIPOS>ATOM
      1  N         -0.8630   18.9800  -16.9260 N.3    84  ILE84      -0.1231
      2  CA         0.3490   19.5610  -16.3550 C.3    84  ILE84       0.1692
      3  C          0.8290   18.6460  -15.2260 C.2    84  ILE84       0.2593
      4  O          0.0820   17.7800  -14.7640 O.2    84  ILE84      -0.2718
      5  CB         0.0990   21.0050  -15.8230 C.3    84  ILE84       0.0266
      6  CG1        1.4110   21.8000  -15.7420 C.3    84  ILE84       0.0019
      7  CG2       -0.6600   20.9810  -14.4850 C.3    84  ILE84       0.0020
      8  CD1        1.2250   23.3130  -15.7620 C.3    84  ILE84       0.0001
      9  N          2.0710   18.8410  -14.7920 N.am   85  GLY85      -0.1942
     10  CA         2.6240   18.0860  -13.6720 C.3    85  GLY85       0.2014
     11  C          2.3410   18.7470  -12.3410 C.2    85  GLY85       0.2639
     12  O          1.2050   19.1270  -12.0480 O.2    85  GLY85      -0.2714
     13  N          3.3890   18.8920  -11.5380 N.am   86  GLY86      -0.1954
     14  CA         3.2650   19.4080  -10.1840 C.3    86  GLY86       0.1869
     15  C          4.1820   18.6410   -9.2560 C.2    86  GLY86       0.2309
     16  O          5.4040   18.6580   -9.4300 O.2    86  GLY86      -0.2863
     17  N          4.9920   14.6190  -18.8920 N.3   111  TYR111     -0.1227
     18  CA         6.3640   14.7420  -18.4070 C.3   111  TYR111      0.1736
     19  C          6.4070   15.3010  -16.9930 C.2   111  TYR111      0.2596
     20  O          5.3610   15.4830  -16.3660 O.2   111  TYR111     -0.2718
     21  CB         7.2340   15.5570  -19.3830 C.3   111  TYR111      0.0548
     22  CG         6.9560   17.0440  -19.4650 C.ar  111  TYR111     -0.0200
     23  CD1        7.8340   17.9640  -18.8940 C.ar  111  TYR111     -0.0009
     24  CD2        5.8400   17.5310  -20.1430 C.ar  111  TYR111     -0.0009
     25  CE1        7.5990   19.3320  -18.9800 C.ar  111  TYR111      0.0417
     26  CE2        5.5950   18.8940  -20.2300 C.ar  111  TYR111      0.0417
     27  CZ         6.4750   19.7880  -19.6480 C.ar  111  TYR111      0.1957
     28  OH         6.2230   21.1350  -19.7440 O.3   111  TYR111     -0.2866
     29  N          7.6210   15.5390  -16.4930 N.am  112  SER112     -0.1952
     30  CA         7.8330   16.1240  -15.1690 C.3   112  SER112      0.1924
     31  C          7.2400   15.2120  -14.0910 C.2   112  SER112      0.2314
     32  O          7.5660   14.0270  -14.0480 O.2   112  SER112     -0.2863
     33  CB         7.2620   17.5450  -15.1060 C.3   112  SER112      0.2116
     34  OG         7.9130   18.3010  -14.1020 O.3   112  SER112     -0.2180
     35  N          1.3960   23.1880  -20.5770 N.3   137  PRO137     -0.2116
     36  CA         2.7010   23.8030  -20.8270 C.3   137  PRO137      0.1372
     37  C          3.2270   23.6090  -22.2540 C.2   137  PRO137      0.2244
     38  O          3.8890   24.5010  -22.7840 O.2   137  PRO137     -0.2868
     39  CB         3.6150   23.1130  -19.8080 C.3   137  PRO137      0.0268
     40  CG         2.9680   21.8010  -19.5540 C.3   137  PRO137      0.0207
     41  CD         1.4960   22.0580  -19.6320 C.3   137  PRO137      0.0892
     42  N         11.3420   32.3340  -19.0470 N.3   177  SER177     -0.1202
     43  CA        10.0940   32.3180  -18.2930 C.3   177  SER177      0.2020
     44  C          9.2630   33.5760  -18.5550 C.2   177  SER177      0.2618
     45  O          9.1320   34.4450  -17.6860 O.2   177  SER177     -0.2717
     46  CB        10.3790   32.1460  -16.7970 C.3   177  SER177      0.2103
     47  OG         9.1870   31.8920  -16.0750 O.3   177  SER177     -0.2182
     48  N          8.7270   33.6650  -19.7700 N.am  178  ILE178     -0.1979
     49  CA         7.8080   34.7380  -20.1670 C.3   178  ILE178      0.1595
     50  C          6.6450   34.1680  -20.9820 C.2   178  ILE178      0.2287
     51  O          6.7170   33.0350  -21.4650 O.2   178  ILE178     -0.2864
     52  CB         8.5090   35.8690  -20.9870 C.3   178  ILE178      0.0276
     53  CG1        9.1480   35.3140  -22.2690 C.3   178  ILE178      0.0022
     54  CG2        9.5230   36.6320  -20.1260 C.3   178  ILE178      0.0022
     55  CD1        9.4090   36.3660  -23.3390 C.3   178  ILE178      0.0001
     56  N          3.6180   32.9770  -20.3000 N.3   180  PHE180     -0.1227
     57  CA         3.0190   31.7080  -19.8900 C.3   180  PHE180      0.1736
     58  C          1.4930   31.7400  -19.9650 C.2   180  PHE180      0.2595
     59  O          0.9020   31.0720  -20.8140 O.2   180  PHE180     -0.2718
     60  CB         3.5010   31.2600  -18.5040 C.3   180  PHE180      0.0547
     61  CG         3.1340   29.8370  -18.1720 C.ar  180  PHE180     -0.0202
     62  CD1        3.8270   28.7720  -18.7460 C.ar  180  PHE180     -0.0042
     63  CD2        2.0880   29.5590  -17.2960 C.ar  180  PHE180     -0.0042
     64  CE1        3.4870   27.4540  -18.4490 C.ar  180  PHE180     -0.0003
     65  CE2        1.7400   28.2430  -16.9920 C.ar  180  PHE180     -0.0003
     66  CZ         2.4420   27.1890  -17.5700 C.ar  180  PHE180     -0.0000
     67  N          0.8650   32.5230  -19.0910 N.am  181  ASN181     -0.1974
     68  CA        -0.5940   32.5820  -19.0250 C.3   181  ASN181      0.1688
     69  C         -1.1970   33.8590  -19.6220 C.2   181  ASN181      0.2292
     70  O         -2.4170   34.0410  -19.6130 O.2   181  ASN181     -0.2864
     71  CB        -1.0770   32.3700  -17.5840 C.3   181  ASN181      0.1181
     72  CG        -2.5400   31.9630  -17.5110 C.2   181  ASN181      0.2629
     73  OD1       -3.0270   31.1880  -18.3370 O.2   181  ASN181     -0.2716
     74  ND2       -3.2480   32.4870  -16.5180 N.am  181  ASN181     -0.0877
     75  N         14.1930   20.4000  -13.8610 N.3   239  SER239     -0.1202
     76  CA        13.7860   21.7710  -14.1600 C.3   239  SER239      0.2020
     77  C         13.9400   22.6840  -12.9560 C.2   239  SER239      0.2618
     78  O         13.5430   22.3240  -11.8470 O.2   239  SER239     -0.2717
     79  CB        12.3240   21.7900  -14.6110 C.3   239  SER239      0.2103
     80  OG        11.7860   23.1070  -14.5850 O.3   239  SER239     -0.2182
     81  N         14.5030   23.8700  -13.1990 N.am  240  ARG240     -0.1979
     82  CA        14.5790   24.9580  -12.2100 C.3   240  ARG240      0.1597
     83  C         15.2030   24.5380  -10.8770 C.2   240  ARG240      0.2287
     84  O         14.8060   25.0190   -9.8120 O.2   240  ARG240     -0.2864
     85  CB        13.1940   25.5800  -11.9730 C.3   240  ARG240      0.0334
     86  CG        12.5510   26.2360  -13.1880 C.3   240  ARG240      0.0492
     87  CD        11.1340   26.6770  -12.8390 C.3   240  ARG240      0.2205
     88  NE        10.4430   27.3520  -13.9370 N.pl3 240  ARG240     -0.0865
     89  CZ        10.3880   28.6730  -14.1020 C.cat 240  ARG240      0.5346
     90  NH1        9.7240   29.1830  -15.1300 N.pl3 240  ARG240      0.1354
     91  NH2       10.9980   29.4880  -13.2480 N.pl3 240  ARG240      0.1354
     92  N         15.9570   23.3490  -17.6650 N.3   271  GLU271     -0.1245
     93  CA        15.3190   24.6680  -17.7140 C.3   271  GLU271      0.1567
     94  C         15.7740   25.5420  -16.5510 C.2   271  GLU271      0.2260
     95  O         15.5840   25.1870  -15.3870 O.2   271  GLU271     -0.2867
     96  CB        13.7930   24.5180  -17.6960 C.3   271  GLU271      0.0388
     97  CG        13.0150   25.8320  -17.6000 C.3   271  GLU271      0.1160
     98  CD        11.5500   25.6230  -17.2650 C.2   271  GLU271      0.3649
     99  OE1       11.2200   24.6500  -16.5530 O.co2 271  GLU271     -0.2457
    100  OE2       10.7150   26.4360  -17.7130 O.co2 271  GLU271     -0.2457
    101  N         11.8340   20.2450  -19.9690 N.3   305  HIS305     -0.1241
    102  CA        10.9750   21.4020  -19.7190 C.3   305  HIS305      0.1621
    103  C         11.2630   22.5700  -20.6630 C.2   305  HIS305      0.2264
    104  O         10.5430   23.5710  -20.6500 O.2   305  HIS305     -0.2867
    105  CB        11.1280   21.8780  -18.2740 C.3   305  HIS305      0.0745
    106  CG        10.4560   21.0020  -17.2650 C.ar  305  HIS305      0.0817
    107  ND1       10.9180   19.7440  -16.9420 N.ar  305  HIS305     -0.2268
    108  CD2        9.3750   21.2210  -16.4800 C.ar  305  HIS305      0.1154
    109  CE1       10.1390   19.2190  -16.0140 C.ar  305  HIS305      0.1986
    110  NE2        9.1990   20.0960  -15.7120 N.ar  305  HIS305     -0.2212
    111  N         11.5700   24.4230  -24.4370 N.3   307  HIS307     -0.1241
    112  CA        10.7860   24.4030  -25.6680 C.3   307  HIS307      0.1621
    113  C         11.7210   24.5570  -26.8630 C.2   307  HIS307      0.2264
    114  O         12.6580   25.3510  -26.8040 O.2   307  HIS307     -0.2867
    115  CB         9.7470   25.5260  -25.6650 C.3   307  HIS307      0.0745
    116  CG         8.7600   25.4340  -24.5440 C.ar  307  HIS307      0.0817
    117  ND1        7.5460   24.7950  -24.6710 N.ar  307  HIS307     -0.2268
    118  CD2        8.8120   25.8960  -23.2720 C.ar  307  HIS307      0.1154
    119  CE1        6.8910   24.8690  -23.5260 C.ar  307  HIS307      0.1986
    120  NE2        7.6360   25.5330  -22.6620 N.ar  307  HIS307     -0.2212
@<TRIPOS>BOND
     1   113   114    2
     2   113   112    1
     3   112   115    1
     4   112   111    1
     5   115   116    1
     6   117   116   ar
     7   117   119   ar
     8   116   118   ar
     9   119   120   ar
    10    55    53    1
    11   118   120   ar
    12    38    37    2
    13    53    52    1
    14    37    36    1
    15    51    50    2
    16    52    49    1
    17    52    54    1
    18    50    49    1
    19    36    35    1
    20    36    39    1
    21    59    58    2
    22   103   104    2
    23   103   102    1
    24    35    41    1
    25    56    57    1
    26    26    24   ar
    27    26    27   ar
    28    49    48    1
    29    24    22   ar
    30   101   102    1
    31    58    57    1
    32    58    67   am
    33    57    60    1
    34    39    40    1
    35    48    44   am
    36    28    27    1
    37   102   105    1
    38    27    25   ar
    39    41    40    1
    40    69    70    2
    41    69    68    1
    42    22    21    1
    43    22    23   ar
    44    21    18    1
    45    67    68    1
    46    42    43    1
    47    68    71    1
    48    25    23   ar
    49    17    18    1
    50    62    64   ar
    51    62    61   ar
    52    44    43    1
    53    44    45    2
    54    60    61    1
    55    64    66   ar
    56    18    19    1
    57    73    72    2
    58    43    46    1
    59   105   106    1
    60    61    63   ar
    61    93    96    1
    62    93    92    1
    63    93    94    1
    64   100    98   ar
    65    96    97    1
    66    97    98    1
    67    71    72    1
    68    66    65   ar
    69    72    74   am
    70    63    65   ar
    71   106   107   ar
    72   106   108   ar
    73    98    99   ar
    74    19    29   am
    75    19    20    2
    76   107   109   ar
    77     1     2    1
    78    46    47    1
    79    94    95    2
    80    29    30    1
    81   108   110   ar
    82     2     5    1
    83     2     3    1
    84   109   110   ar
    85     5     6    1
    86     5     7    1
    87     8     6    1
    88     3     9   am
    89     3     4    2
    90    30    33    1
    91    30    31    1
    92    90    89    1
    93    33    34    1
    94     9    10    1
    95    79    80    1
    96    79    76    1
    97    76    75    1
    98    76    77    1
    99    89    88    2
   100    89    91    1
   101    31    32    2
   102    88    87    1
   103    10    11    1
   104    81    77   am
   105    81    82    1
   106    86    87    1
   107    86    85    1
   108    77    78    2
   109    11    12    2
   110    11    13   am
   111    82    85    1
   112    82    83    1
   113    13    14    1
   114    83    84    2
   115    14    15    1
   116    16    15    2
