@<TRIPOS>MOLECULE
tmp/3tm0A01.pdb
 156 145 0 0 0
SMALL
GASTEIGER

@<TRIPOS>ATOM
      1  N         45.8750   39.3570   15.9520 N.3    25  MET25      -0.1230
      2  CA        45.2500   38.4210   16.8850 C.3    25  MET25       0.1702
      3  C         45.9360   38.3430   18.2540 C.2    25  MET25       0.2593
      4  O         45.8910   37.3100   18.9210 O.2    25  MET25      -0.2718
      5  CB        45.1550   37.0270   16.2490 C.3    25  MET25       0.0401
      6  CG        46.2980   36.7030   15.3040 C.3    25  MET25       0.0596
      7  SD        46.1490   35.0720   14.5300 S.3    25  MET25      -0.1393
      8  CE        47.5410   35.1190   13.4050 C.3    25  MET25       0.0692
      9  N         46.5560   39.4380   18.6750 N.am   26  SER26      -0.1952
     10  CA        47.1370   39.5250   20.0120 C.3    26  SER26       0.1924
     11  C         46.1030   40.1410   20.9690 C.2    26  SER26       0.2314
     12  O         45.0320   40.5530   20.5210 O.2    26  SER26      -0.2863
     13  CB        48.4150   40.3730   19.9780 C.3    26  SER26       0.2116
     14  OG        48.1310   41.7530   20.2130 O.3    26  SER26      -0.2180
     15  N         53.8830   41.2420   25.6960 N.3    54  TYR54      -0.1241
     16  CA        52.7370   41.8550   25.0140 C.3    54  TYR54       0.1605
     17  C         52.6060   43.3150   25.4590 C.2    54  TYR54       0.2264
     18  O         51.9440   44.1140   24.8020 O.2    54  TYR54      -0.2867
     19  CB        51.4270   41.1270   25.3440 C.3    54  TYR54       0.0534
     20  CG        51.3190   39.6890   24.8780 C.ar   54  TYR54      -0.0201
     21  CD1       51.4220   38.6400   25.7870 C.ar   54  TYR54      -0.0009
     22  CD2       51.0970   39.3760   23.5360 C.ar   54  TYR54      -0.0009
     23  CE1       51.3070   37.3240   25.3800 C.ar   54  TYR54       0.0417
     24  CE2       50.9870   38.0530   23.1190 C.ar   54  TYR54       0.0417
     25  CZ        51.0910   37.0340   24.0510 C.ar   54  TYR54       0.1957
     26  OH        50.9840   35.7180   23.6610 O.3    54  TYR54      -0.2866
     27  N         47.8990   31.8310   24.5060 N.3   152  ASP152     -0.1239
     28  CA        47.1440   31.4070   23.3230 C.3   152  ASP152      0.1674
     29  C         47.0520   29.8720   23.2680 C.2   152  ASP152      0.2266
     30  O         47.7080   29.2170   22.4540 O.2   152  ASP152     -0.2867
     31  CB        47.8220   31.9770   22.0710 C.3   152  ASP152      0.1410
     32  CG        47.0620   31.6830   20.7990 C.2   152  ASP152      0.3668
     33  OD1       45.9750   32.2610   20.5980 O.co2 152  ASP152     -0.2456
     34  OD2       47.5740   30.8840   19.9890 O.co2 152  ASP152     -0.2456
     35  N         44.4680   25.2470   17.5230 N.3   156  GLU156     -0.1245
     36  CA        45.3050   24.1890   16.9480 C.3   156  GLU156      0.1567
     37  C         45.9650   23.2980   18.0110 C.2   156  GLU156      0.2260
     38  O         46.4060   22.2010   17.7120 O.2   156  GLU156     -0.2867
     39  CB        46.3410   24.7490   15.9480 C.3   156  GLU156      0.0388
     40  CG        47.5960   25.3330   16.5750 C.3   156  GLU156      0.1160
     41  CD        48.2980   26.3250   15.6610 C.2   156  GLU156      0.3649
     42  OE1       47.9780   26.3670   14.4510 O.co2 156  GLU156     -0.2457
     43  OE2       49.1670   27.0710   16.1560 O.co2 156  GLU156     -0.2457
     44  N         59.1430   38.7820   16.9750 N.3   189  ASP189     -0.1239
     45  CA        58.0760   38.2390   16.1360 C.3   189  ASP189      0.1674
     46  C         58.3030   38.6210   14.6880 C.2   189  ASP189      0.2266
     47  O         57.4890   39.3250   14.0900 O.2   189  ASP189     -0.2867
     48  CB        56.7060   38.7340   16.6000 C.3   189  ASP189      0.1410
     49  CG        55.5580   38.0270   15.8890 C.2   189  ASP189      0.3668
     50  OD1       55.8090   36.9800   15.2530 O.co2 189  ASP189     -0.2456
     51  OD2       54.4080   38.5110   15.9800 O.co2 189  ASP189     -0.2456
     52  N         56.0840   38.5990    7.9930 N.3   192  ASP192     -0.1225
     53  CA        55.8180   39.5270    6.8930 C.3   192  ASP192      0.1805
     54  C         54.7730   40.6080    7.1830 C.2   192  ASP192      0.2598
     55  O         54.6540   41.5440    6.4190 O.2   192  ASP192     -0.2718
     56  CB        55.5310   38.7950    5.5610 C.3   192  ASP192      0.1424
     57  CG        54.3040   37.8990    5.6210 C.2   192  ASP192      0.3668
     58  OD1       54.0370   37.2080    4.6110 O.co2 192  ASP192     -0.2456
     59  OD2       53.5990   37.8780    6.6590 O.co2 192  ASP192     -0.2456
     60  N         54.0300   40.5090    8.2800 N.am  193  SER193     -0.1938
     61  CA        53.0990   41.5980    8.6050 C.3   193  SER193      0.2055
     62  C         53.5660   42.5400    9.7140 C.2   193  SER193      0.2643
     63  O         52.8210   43.4250   10.1350 O.2   193  SER193     -0.2714
     64  CB        51.7040   41.0610    8.9100 C.3   193  SER193      0.2130
     65  OG        51.1050   40.6020    7.7100 O.3   193  SER193     -0.2179
     66  N         54.7900   42.3390   10.1950 N.am  194  ASN194     -0.1971
     67  CA        55.3990   43.2630   11.1470 C.3   194  ASN194      0.1688
     68  C         56.5810   43.9890   10.5000 C.2   194  ASN194      0.2292
     69  O         57.3980   44.5990   11.1840 O.2   194  ASN194     -0.2864
     70  CB        55.8840   42.5240   12.3910 C.3   194  ASN194      0.1181
     71  CG        54.7430   41.9350   13.2110 C.2   194  ASN194      0.2629
     72  OD1       53.6200   42.4190   13.1660 O.2   194  ASN194     -0.2716
     73  ND2       55.0410   40.8870   13.9730 N.am  194  ASN194     -0.0877
     74  N         55.4830   46.1410   15.9480 N.3   207  ASP207     -0.1239
     75  CA        55.1580   45.0040   16.8110 C.3   207  ASP207      0.1674
     76  C         56.4020   44.5870   17.6010 C.2   207  ASP207      0.2266
     77  O         56.9840   43.5140   17.3830 O.2   207  ASP207     -0.2867
     78  CB        54.6110   43.8470   15.9610 C.3   207  ASP207      0.1410
     79  CG        53.7080   42.9010   16.7540 C.2   207  ASP207      0.3668
     80  OD1       53.7140   42.9720   18.0040 O.co2 207  ASP207     -0.2456
     81  OD2       53.0000   42.0720   16.1260 O.co2 207  ASP207     -0.2456
     82  N         58.1990   42.2400   21.9710 N.3   210  ARG210     -0.1245
     83  CA        59.0070   41.0500   22.2140 C.3   210  ARG210      0.1563
     84  C         60.4680   41.2350   21.7320 C.2   210  ARG210      0.2260
     85  O         61.2410   40.2840   21.7040 O.2   210  ARG210     -0.2867
     86  CB        58.3590   39.8560   21.4870 C.3   210  ARG210      0.0307
     87  CG        58.7850   38.4970   22.0110 C.3   210  ARG210      0.0489
     88  CD        57.5910   37.7870   22.6250 C.3   210  ARG210      0.2205
     89  NE        56.6460   37.4560   21.5840 N.pl3 210  ARG210     -0.0865
     90  CZ        55.3230   37.4890   21.7050 C.cat 210  ARG210      0.5346
     91  NH1       54.7350   37.8150   22.8480 N.pl3 210  ARG210      0.1354
     92  NH2       54.5930   37.1720   20.6540 N.pl3 210  ARG210      0.1354
     93  N         60.2220   29.2170    9.6660 N.3   225  ARG225     -0.1245
     94  CA        58.8110   28.8700    9.8200 C.3   225  ARG225      0.1563
     95  C         57.9970   29.5460    8.7360 C.2   225  ARG225      0.2260
     96  O         57.1740   28.9080    8.0760 O.2   225  ARG225     -0.2867
     97  CB        58.2890   29.2710   11.1990 C.3   225  ARG225      0.0307
     98  CG        56.8610   28.8250   11.4900 C.3   225  ARG225      0.0489
     99  CD        56.3520   29.4250   12.8050 C.3   225  ARG225      0.2205
    100  NE        56.1970   30.8730   12.6970 N.pl3 225  ARG225     -0.0865
    101  CZ        55.9200   31.6810   13.7170 C.cat 225  ARG225      0.5346
    102  NH1       55.8000   32.9900   13.5150 N.pl3 225  ARG225      0.1354
    103  NH2       55.7730   31.1850   14.9400 N.pl3 225  ARG225      0.1354
    104  N         55.8650   27.7540    5.7200 N.3   229  GLU229     -0.1231
    105  CA        54.4120   27.9270    5.7490 C.3   229  GLU229      0.1699
    106  C         53.9200   28.6830    4.5260 C.2   229  GLU229      0.2592
    107  O         52.9320   28.2930    3.9010 O.2   229  GLU229     -0.2718
    108  CB        53.9540   28.6500    7.0210 C.3   229  GLU229      0.0402
    109  CG        52.4410   28.6220    7.2400 C.3   229  GLU229      0.1161
    110  CD        51.9000   27.2100    7.4320 C.2   229  GLU229      0.3649
    111  OE1       52.1150   26.6230    8.5170 O.co2 229  GLU229     -0.2457
    112  OE2       51.2570   26.6870    6.4950 O.co2 229  GLU229     -0.2457
    113  N         54.6100   29.7680    4.1870 N.am  230  ASP230     -0.1974
    114  CA        54.1560   30.6370    3.1060 C.3   230  ASP230      0.1709
    115  C         54.5730   30.1430    1.7270 C.2   230  ASP230      0.2293
    116  O         53.8050   30.2470    0.7720 O.2   230  ASP230     -0.2864
    117  CB        54.6230   32.0820    3.3280 C.3   230  ASP230      0.1436
    118  CG        53.9800   32.7200    4.5530 C.2   230  ASP230      0.3671
    119  OD1       54.5220   33.7350    5.0510 O.co2 230  ASP230     -0.2456
    120  OD2       52.9360   32.1970    5.0190 O.co2 230  ASP230     -0.2456
    121  N         60.7080   27.5800   17.4150 N.3   257  ILE257     -0.1245
    122  CA        59.3950   27.5110   16.7810 C.3   257  ILE257      0.1561
    123  C         58.3820   26.9890   17.7890 C.2   257  ILE257      0.2260
    124  O         57.2580   27.4730   17.8630 O.2   257  ILE257     -0.2867
    125  CB        59.4130   26.6360   15.5070 C.3   257  ILE257      0.0252
    126  CG1       60.2160   27.3290   14.4110 C.3   257  ILE257      0.0019
    127  CG2       57.9940   26.3850   15.0030 C.3   257  ILE257      0.0019
    128  CD1       60.3020   26.5240   13.1260 C.3   257  ILE257      0.0001
    129  N         57.2640   29.6140   20.4120 N.3   260  ASP260     -0.1225
    130  CA        56.2770   30.6120   20.0080 C.3   260  ASP260      0.1805
    131  C         54.8830   30.0170   19.8940 C.2   260  ASP260      0.2597
    132  O         53.9190   30.7300   19.6470 O.2   260  ASP260     -0.2718
    133  CB        56.6540   31.2410   18.6690 C.3   260  ASP260      0.1424
    134  CG        55.8190   32.4800   18.3490 C.2   260  ASP260      0.3668
    135  OD1       55.7830   33.4190   19.1800 O.co2 260  ASP260     -0.2456
    136  OD2       55.1930   32.5150   17.2690 O.co2 260  ASP260     -0.2456
    137  N         54.7770   28.7100   20.0830 N.am  261  GLU261     -0.1979
    138  CA        53.5080   28.0270   19.8720 C.3   261  GLU261      0.1602
    139  C         52.3670   28.6260   20.6880 C.2   261  GLU261      0.2287
    140  O         51.2630   28.7940   20.1780 O.2   261  GLU261     -0.2864
    141  CB        53.6500   26.5460   20.1990 C.3   261  GLU261      0.0415
    142  CG        52.6620   25.6740   19.4750 C.3   261  GLU261      0.1163
    143  CD        52.9710   25.5500   17.9980 C.2   261  GLU261      0.3649
    144  OE1       52.0160   25.5060   17.1930 O.co2 261  GLU261     -0.2457
    145  OE2       54.1660   25.4870   17.6460 O.co2 261  GLU261     -0.2457
    146  N         52.1330   31.5990   22.1530 N.3   263  PHE263     -0.1241
    147  CA        52.0920   33.0610   22.2120 C.3   263  PHE263      0.1605
    148  C         51.2110   33.6870   21.1330 C.2   263  PHE263      0.2264
    149  O         50.8710   34.8590   21.2620 O.2   263  PHE263     -0.2867
    150  CB        53.4980   33.6690   22.1450 C.3   263  PHE263      0.0534
    151  CG        54.2720   33.5190   23.4170 C.ar  263  PHE263     -0.0203
    152  CD1       55.1300   32.4360   23.6040 C.ar  263  PHE263     -0.0042
    153  CD2       54.1210   34.4420   24.4360 C.ar  263  PHE263     -0.0042
    154  CE1       55.8310   32.2940   24.7830 C.ar  263  PHE263     -0.0003
    155  CE2       54.8160   34.3070   25.6150 C.ar  263  PHE263     -0.0003
    156  CZ        55.6700   33.2290   25.7920 C.ar  263  PHE263     -0.0000
@<TRIPOS>BOND
     1   116   115    2
     2   115   114    1
     3   114   117    1
     4   114   113    1
     5   117   118    1
     6   107   106    2
     7   113   106   am
     8   106   105    1
     9   118   120   ar
    10   118   119   ar
    11    58    57   ar
    12    56    57    1
    13    56    53    1
    14    57    59   ar
    15   104   105    1
    16   105   108    1
    17    55    54    2
    18   112   110   ar
    19    53    54    1
    20    53    52    1
    21   108   109    1
    22    54    60   am
    23   109   110    1
    24   110   111   ar
    25    65    64    1
    26    96    95    2
    27    60    61    1
    28    61    64    1
    29    61    62    1
    30    95    94    1
    31    93    94    1
    32    62    63    2
    33    62    66   am
    34    94    97    1
    35    66    67    1
    36    68    67    1
    37    68    69    2
    38    67    70    1
    39    97    98    1
    40    98    99    1
    41    70    71    1
    42   100    99    1
    43   100   101    2
    44   128   126    1
    45    72    71    2
    46    71    73   am
    47     8     7    1
    48   102   101    1
    49   101   103    1
    50    47    46    2
    51   126   125    1
    52    42    41   ar
    53     7     6    1
    54    46    45    1
    55   127   125    1
    56    50    49   ar
    57     6     5    1
    58   125   122    1
    59    41    43   ar
    60    41    40    1
    61    49    51   ar
    62    49    48    1
    63    74    75    1
    64    39    40    1
    65    39    36    1
    66     1     2    1
    67    78    79    1
    68    78    75    1
    69    81    79   ar
    70    45    48    1
    71    45    44    1
    72     5     2    1
    73    79    80   ar
    74   122   121    1
    75   122   123    1
    76    75    76    1
    77     2     3    1
    78    36    35    1
    79    36    37    1
    80   144   143   ar
    81   136   134   ar
    82    77    76    2
    83   145   143   ar
    84    38    37    2
    85   123   124    2
    86   143   142    1
    87     3     9   am
    88     3     4    2
    89   134   133    1
    90   134   135   ar
    91   133   130    1
    92     9    10    1
    93   142   141    1
    94   132   131    2
    95   138   137    1
    96   138   141    1
    97   138   139    1
    98   131   130    1
    99   131   137   am
   100    13    10    1
   101    13    14    1
   102    34    32   ar
   103   130   129    1
   104    10    11    1
   105   140   139    2
   106    12    11    2
   107    33    32   ar
   108    92    90    1
   109    32    31    1
   110   148   149    2
   111   148   147    1
   112    86    87    1
   113    86    83    1
   114    89    90    2
   115    89    88    1
   116    85    84    2
   117    90    91    1
   118    84    83    1
   119    82    83    1
   120    87    88    1
   121    31    28    1
   122   150   147    1
   123   150   151    1
   124   146   147    1
   125    30    29    2
   126    24    22   ar
   127    24    25   ar
   128    29    28    1
   129    28    27    1
   130   151   152   ar
   131   151   153   ar
   132    22    20   ar
   133   152   154   ar
   134    26    25    1
   135    25    23   ar
   136   153   155   ar
   137   154   156   ar
   138    18    17    2
   139    20    19    1
   140    20    21   ar
   141    16    19    1
   142    16    17    1
   143    16    15    1
   144    23    21   ar
   145   155   156   ar
