@<TRIPOS>MOLECULE
tmp/3tm2A00.pdb
 80 73 0 0 0
SMALL
GASTEIGER

@<TRIPOS>ATOM
      1  N         10.4870   40.6020   38.9320 N.3    54  GLY54      -0.1210
      2  CA         9.9910   41.0750   37.6230 C.3    54  GLY54       0.1940
      3  C          9.6180   39.9830   36.6660 C.2    54  GLY54       0.2454
      4  O         10.2720   39.8290   35.6170 O.2    54  GLY54      -0.2732
      5  N          8.5990   39.1740   37.0390 N.am   55  PRO55      -0.2717
      6  CA         8.3550   37.9480   36.2770 C.3    55  PRO55       0.1535
      7  C          7.5900   38.2320   34.9860 C.2    55  PRO55       0.2599
      8  O          6.8800   39.2510   34.8910 O.2    55  PRO55      -0.2715
      9  CB         7.4260   37.1390   37.1970 C.3    55  PRO55       0.0310
     10  CG         6.6650   38.2140   38.0530 C.3    55  PRO55       0.0237
     11  CD         7.7570   39.2790   38.2610 C.3    55  PRO55       0.0939
     12  N          7.6840   37.3040   34.0440 N.am   56  GLY56      -0.1955
     13  CA         6.7770   37.2370   32.8690 C.3    56  GLY56       0.1869
     14  C          6.3330   35.8000   32.8120 C.2    56  GLY56       0.2309
     15  O          7.1510   34.8930   32.5690 O.2    56  GLY56      -0.2863
     16  N         11.2000   38.1100   26.4880 N.3    81  SER81      -0.1202
     17  CA        10.4580   38.8300   27.5550 C.3    81  SER81       0.2020
     18  C          8.9930   38.4430   27.4700 C.2    81  SER81       0.2618
     19  O          8.6730   37.2770   27.0810 O.2    81  SER81      -0.2717
     20  CB        10.6910   40.3590   27.4260 C.3    81  SER81       0.2103
     21  OG        10.0860   41.1030   28.5000 O.3    81  SER81      -0.2182
     22  N          8.0890   39.3600   27.8330 N.am   82  ALA82      -0.1979
     23  CA         6.6640   39.0080   27.8810 C.3    82  ALA82       0.1597
     24  C          6.1390   38.6460   26.4840 C.2    82  ALA82       0.2287
     25  O          5.1990   37.8790   26.3630 O.2    82  ALA82      -0.2864
     26  CB         5.7970   40.1560   28.5050 C.3    82  ALA82       0.0319
     27  N          9.2750   33.6960   31.2140 N.3   119  ALA119     -0.1245
     28  CA        10.1340   34.3200   30.1880 C.3   119  ALA119      0.1562
     29  C         11.3420   35.0110   30.7760 C.2   119  ALA119      0.2260
     30  O         11.3520   35.4230   31.9500 O.2   119  ALA119     -0.2867
     31  CB         9.3340   35.3300   29.3520 C.3   119  ALA119      0.0290
     32  N         14.3590   38.0820   29.7280 N.3   121  PHE121     -0.1241
     33  CA        14.5630   39.2360   28.9160 C.3   121  PHE121      0.1605
     34  C         15.8410   39.1510   28.0990 C.2   121  PHE121      0.2264
     35  O         16.9420   39.2310   28.6460 O.2   121  PHE121     -0.2867
     36  CB        14.6260   40.4940   29.7910 C.3   121  PHE121      0.0534
     37  CG        14.7120   41.7440   28.9960 C.ar  121  PHE121     -0.0203
     38  CD1       13.5490   42.4790   28.6900 C.ar  121  PHE121     -0.0042
     39  CD2       15.9410   42.2070   28.5380 C.ar  121  PHE121     -0.0042
     40  CE1       13.6180   43.6670   27.9650 C.ar  121  PHE121     -0.0003
     41  CE2       16.0130   43.4010   27.7850 C.ar  121  PHE121     -0.0003
     42  CZ        14.8310   44.1160   27.4970 C.ar  121  PHE121     -0.0000
     43  N         19.9900   33.7230   33.1050 N.3   194  ASN194     -0.1240
     44  CA        19.9710   35.0460   32.5180 C.3   194  ASN194      0.1653
     45  C         20.0850   36.1580   33.5900 C.2   194  ASN194      0.2266
     46  O         19.5230   37.2530   33.4240 O.2   194  ASN194     -0.2867
     47  CB        18.6670   35.2560   31.7120 C.3   194  ASN194      0.1155
     48  CG        18.7080   36.5190   30.8350 C.2   194  ASN194      0.2627
     49  OD1       19.6340   36.6750   30.0300 O.2   194  ASN194     -0.2716
     50  ND2       17.6750   37.4150   30.9500 N.am  194  ASN194     -0.0877
     51  N         20.7090   39.2580   36.1370 N.3   196  ALA196     -0.1245
     52  CA        21.2920   40.6110   36.2320 C.3   196  ALA196      0.1562
     53  C         22.4700   40.6020   37.2050 C.2   196  ALA196      0.2260
     54  O         23.4610   41.2810   36.9870 O.2   196  ALA196     -0.2867
     55  CB        20.2210   41.6010   36.7520 C.3   196  ALA196      0.0290
     56  N         17.2950   36.8950   35.7770 N.3   252  THR252     -0.1218
     57  CA        16.2490   35.9120   35.5870 C.3   252  THR252      0.1862
     58  C         16.9680   34.5980   35.3560 C.2   252  THR252      0.2287
     59  O         17.7150   34.3680   34.4460 O.2   252  THR252     -0.2866
     60  CB        15.3910   36.1590   34.3860 C.3   252  THR252      0.1770
     61  OG1       14.4430   37.1000   34.7680 O.3   252  THR252     -0.2211
     62  CG2       14.5140   34.9080   34.1700 C.3   252  THR252      0.0375
     63  N         14.0720   43.1030   41.7690 N.3   289  LEU289     -0.1231
     64  CA        12.9470   43.5930   40.9510 C.3   289  LEU289      0.1693
     65  C         13.1870   43.3790   39.4560 C.2   289  LEU289      0.2592
     66  O         12.2360   43.2390   38.6770 O.2   289  LEU289     -0.2718
     67  CB        12.6420   45.0750   41.2460 C.3   289  LEU289      0.0284
     68  CG        12.2000   45.4320   42.6820 C.3   289  LEU289      0.0019
     69  CD1       12.0220   46.9000   42.8140 C.3   289  LEU289      0.0001
     70  CD2       10.8650   44.7320   43.0450 C.3   289  LEU289      0.0001
     71  N         14.4490   43.2820   39.0490 N.am  290  SER290     -0.1952
     72  CA        14.7440   43.0990   37.6190 C.3   290  SER290      0.1924
     73  C         14.9300   41.6550   37.2150 C.2   290  SER290      0.2314
     74  O         15.2660   41.3860   36.0510 O.2   290  SER290     -0.2863
     75  CB        15.9920   43.8830   37.2470 C.3   290  SER290      0.2116
     76  OG        16.9380   43.8110   38.2910 O.3   290  SER290     -0.2180
     77  N         13.2730   37.7990   37.0140 N.3   292  GLY292     -0.1225
     78  CA        11.9810   37.1470   36.8340 C.3   292  GLY292      0.1811
     79  C         12.0650   35.6990   37.2680 C.2   292  GLY292      0.2280
     80  O         11.3320   34.8780   36.7560 O.2   292  GLY292     -0.2866
@<TRIPOS>BOND
     1    25    24    2
     2    24    23    1
     3    16    17    1
     4    19    18    2
     5    20    17    1
     6    20    21    1
     7    18    17    1
     8    18    22   am
     9    42    41   ar
    10    42    40   ar
    11    41    39   ar
    12    22    23    1
    13    23    26    1
    14    40    38   ar
    15    34    35    2
    16    34    33    1
    17    39    37   ar
    18    38    37   ar
    19    33    32    1
    20    33    36    1
    21    37    36    1
    22    31    28    1
    23    49    48    2
    24    28    29    1
    25    28    27    1
    26    29    30    2
    27    48    50   am
    28    48    47    1
    29    47    44    1
    30    44    43    1
    31    44    45    1
    32    15    14    2
    33    14    13    1
    34    13    12    1
    35    46    45    2
    36    12     7   am
    37    62    60    1
    38    60    61    1
    39    60    57    1
    40    59    58    2
    41     8     7    2
    42     7     6    1
    43    58    57    1
    44    57    56    1
    45     4     3    2
    46    74    73    2
    47    51    52    1
    48    52    55    1
    49    52    53    1
    50     6     5    1
    51     6     9    1
    52     3     5   am
    53     3     2    1
    54    80    79    2
    55    78    77    1
    56    78    79    1
    57    54    53    2
    58     5    11    1
    59     9    10    1
    60    73    72    1
    61    75    72    1
    62    75    76    1
    63    72    71    1
    64     2     1    1
    65    10    11    1
    66    66    65    2
    67    71    65   am
    68    65    64    1
    69    64    67    1
    70    64    63    1
    71    67    68    1
    72    68    69    1
    73    68    70    1
