@<TRIPOS>MOLECULE
tmp/3tm4B00.pdb
 198 197 0 0 0
SMALL
GASTEIGER

@<TRIPOS>ATOM
      1  N         70.4240   32.2350   94.5400 N.3   198  HIS198     -0.1241
      2  CA        71.5680   31.3500   94.5570 C.3   198  HIS198      0.1621
      3  C         71.0420   29.9260   94.7500 C.2   198  HIS198      0.2264
      4  O         70.1720   29.6940   95.5960 O.2   198  HIS198     -0.2867
      5  CB        72.4870   31.8320   95.6810 C.3   198  HIS198      0.0745
      6  CG        73.7700   31.0880   95.8140 C.ar  198  HIS198      0.0817
      7  ND1       73.8180   29.7310   96.0390 N.ar  198  HIS198     -0.2268
      8  CD2       75.0450   31.5350   95.9190 C.ar  198  HIS198      0.1154
      9  CE1       75.0720   29.3670   96.2350 C.ar  198  HIS198      0.1986
     10  NE2       75.8410   30.4350   96.1240 N.ar  198  HIS198     -0.2212
     11  N         72.1130   27.3410   96.2380 N.3   200  ALA200     -0.1231
     12  CA        72.1500   26.7910   97.5900 C.3   200  ALA200      0.1694
     13  C         71.9970   27.9500   98.5880 C.2   200  ALA200      0.2592
     14  O         72.6490   27.9370   99.6420 O.2   200  ALA200     -0.2718
     15  CB        73.4890   26.0360   97.8220 C.3   200  ALA200      0.0304
     16  N         71.0840   28.8880   98.2940 N.am  201  HIS201     -0.1962
     17  CA        70.8370   30.0130   99.2370 C.3   201  HIS201      0.1787
     18  C         70.2860   29.5280  100.5860 C.2   201  HIS201      0.2620
     19  O         69.6010   28.4910  100.6620 O.2   201  HIS201     -0.2715
     20  CB        69.9870   31.1610   98.6470 C.3   201  HIS201      0.0785
     21  CG        68.5180   30.8680   98.5280 C.ar  201  HIS201      0.0821
     22  ND1       67.9160   30.5420   97.3330 N.ar  201  HIS201     -0.2267
     23  CD2       67.5190   30.9100   99.4510 C.ar  201  HIS201      0.1154
     24  CE1       66.6110   30.4130   97.5130 C.ar  201  HIS201      0.1986
     25  NE2       66.3410   30.6420   98.7890 N.ar  201  HIS201     -0.2212
     26  N         70.5500   30.3070  101.6280 N.am  202  LEU202     -0.1977
     27  CA        69.9600   30.0490  102.9670 C.3   202  LEU202      0.1596
     28  C         68.5950   30.6920  103.1130 C.2   202  LEU202      0.2287
     29  O         68.4430   31.9020  102.9400 O.2   202  LEU202     -0.2864
     30  CB        70.8750   30.6220  104.0630 C.3   202  LEU202      0.0297
     31  CG        70.6520   30.1730  105.5170 C.3   202  LEU202      0.0022
     32  CD1       70.5700   28.6220  105.6830 C.3   202  LEU202      0.0001
     33  CD2       71.7470   30.7670  106.4830 C.3   202  LEU202      0.0001
     34  N         80.8520   37.2650  106.7500 N.3   223  ASP223     -0.1225
     35  CA        80.4980   35.9910  106.1610 C.3   223  ASP223      0.1790
     36  C         81.4910   35.7500  105.0570 C.2   223  ASP223      0.2440
     37  O         81.4260   36.4230  104.0250 O.2   223  ASP223     -0.2733
     38  CB        79.0720   35.9700  105.5770 C.3   223  ASP223      0.1423
     39  CG        78.7080   34.6080  104.9410 C.2   223  ASP223      0.3668
     40  OD1       79.6090   33.7250  104.7840 O.co2 223  ASP223     -0.2456
     41  OD2       77.5100   34.3930  104.6470 O.co2 223  ASP223     -0.2456
     42  N         82.4330   34.8170  105.2910 N.am  224  PRO224     -0.2718
     43  CA        83.6110   34.6660  104.4300 C.3   224  PRO224      0.1535
     44  C         83.3100   33.8440  103.1890 C.2   224  PRO224      0.2598
     45  O         84.2040   33.6900  102.3630 O.2   224  PRO224     -0.2715
     46  CB        84.6490   33.9620  105.3300 C.3   224  PRO224      0.0310
     47  CG        83.7140   33.1100  106.3320 C.3   224  PRO224      0.0237
     48  CD        82.4860   33.9950  106.5210 C.3   224  PRO224      0.0939
     49  N         82.1350   33.2130  103.1300 N.am  225  MET225     -0.1964
     50  CA        81.6940   32.4380  101.9770 C.3   225  MET225      0.1736
     51  C         80.2360   32.7610  101.6810 C.2   225  MET225      0.2617
     52  O         79.3440   31.9090  101.8200 O.2   225  MET225     -0.2715
     53  CB        81.9030   30.9330  102.1950 C.3   225  MET225      0.0427
     54  CG        83.3920   30.5560  102.4880 C.3   225  MET225      0.0599
     55  SD        83.5570   28.7680  102.3990 S.3   225  MET225     -0.1393
     56  CE        85.1050   28.5760  103.2700 C.3   225  MET225      0.0692
     57  N         79.9940   34.0280  101.3590 N.am  226  CYS226     -0.1954
     58  CA        78.6930   34.6380  101.5570 C.3   226  CYS226      0.1843
     59  C         77.6250   34.3880  100.4630 C.2   226  CYS226      0.2626
     60  O         76.4390   34.7100  100.6510 O.2   226  CYS226     -0.2714
     61  CB        78.8690   36.1340  101.8600 C.3   226  CYS226      0.0997
     62  SG        79.2460   37.1270  100.3530 S.3   226  CYS226     -0.0797
     63  N         78.0150   33.7760   99.3400 N.am  227  GLY227     -0.1940
     64  CA        77.0350   33.5150   98.2870 C.3   227  GLY227      0.2014
     65  C         76.2790   34.7610   97.8690 C.2   227  GLY227      0.2640
     66  O         76.8650   35.8260   97.6850 O.2   227  GLY227     -0.2714
     67  N         74.9650   34.6580   97.8030 N.am  228  SER228     -0.1935
     68  CA        74.1070   35.8030   97.5040 C.3   228  SER228      0.2055
     69  C         73.7880   36.7440   98.6720 C.2   228  SER228      0.2644
     70  O         72.9720   37.6780   98.5390 O.2   228  SER228     -0.2714
     71  CB        72.7870   35.2820   96.9390 C.3   228  SER228      0.2130
     72  OG        72.0140   34.5920   97.8940 O.3   228  SER228     -0.2179
     73  N         74.4340   36.5200   99.8080 N.am  229  GLY229     -0.1939
     74  CA        74.5490   37.6060  100.8000 C.3   229  GLY229      0.2014
     75  C         73.4200   37.5910  101.8180 C.2   229  GLY229      0.2640
     76  O         73.3500   38.4620  102.6860 O.2   229  GLY229     -0.2714
     77  N         72.6620   36.5010  101.8390 N.am  230  THR230     -0.1936
     78  CA        71.4590   36.4210  102.6990 C.3   230  THR230      0.2028
     79  C         71.7490   36.7740  104.1740 C.2   230  THR230      0.2642
     80  O         71.0070   37.5800  104.7740 O.2   230  THR230     -0.2714
     81  CB        70.8380   35.0330  102.6690 C.3   230  THR230      0.1808
     82  OG1       70.5720   34.6240  101.3030 O.3   230  THR230     -0.2208
     83  CG2       69.5130   34.9900  103.4900 C.3   230  THR230      0.0379
     84  N         72.8190   36.2040  104.7460 N.am  231  ILE231     -0.1977
     85  CA        73.1030   36.4070  106.1980 C.3   231  ILE231      0.1596
     86  C         73.3900   37.8810  106.4720 C.2   231  ILE231      0.2287
     87  O         72.8160   38.4820  107.3640 O.2   231  ILE231     -0.2864
     88  CB        74.2520   35.5120  106.6950 C.3   231  ILE231      0.0276
     89  CG1       73.8250   34.0300  106.6830 C.3   231  ILE231      0.0022
     90  CG2       74.6860   35.9080  108.1580 C.3   231  ILE231      0.0022
     91  CD1       75.1110   33.0670  106.7040 C.3   231  ILE231      0.0001
     92  N         83.1990   36.3510   98.8600 N.3   248  GLU248     -0.1231
     93  CA        82.6860   35.2890   98.0170 C.3   248  GLU248      0.1699
     94  C         83.6900   35.0400   96.8530 C.2   248  GLU248      0.2592
     95  O         84.2610   35.9850   96.2830 O.2   248  GLU248     -0.2718
     96  CB        81.2740   35.6460   97.4950 C.3   248  GLU248      0.0402
     97  CG        80.7350   34.8120   96.2760 C.3   248  GLU248      0.1161
     98  CD        80.6690   33.3220   96.5380 C.2   248  GLU248      0.3649
     99  OE1       80.1320   32.8970   97.5880 O.co2 248  GLU248     -0.2457
    100  OE2       81.1950   32.5560   95.6830 O.co2 248  GLU248     -0.2457
    101  N         83.9200   33.7700   96.5510 N.am  249  LYS249     -0.1966
    102  CA        84.9920   33.3880   95.6230 C.3   249  LYS249      0.1728
    103  C         84.5750   33.6780   94.1840 C.2   249  LYS249      0.2616
    104  O         85.3770   34.1250   93.3850 O.2   249  LYS249     -0.2715
    105  CB        85.2640   31.8930   95.7360 C.3   249  LYS249      0.0311
    106  CG        86.4060   31.4240   94.8010 C.3   249  LYS249      0.0038
    107  CD        86.5450   29.9120   94.9540 C.3   249  LYS249      0.0206
    108  CE        87.8680   29.3770   94.3880 C.3   249  LYS249      0.1093
    109  NZ        87.7490   27.8950   94.3310 N.3   249  LYS249     -0.1314
    110  N         83.3330   33.3730   93.8440 N.am  250  TYR250     -0.1974
    111  CA        82.9060   33.4980   92.4540 C.3   250  TYR250      0.1639
    112  C         82.1950   34.8220   92.1700 C.2   250  TYR250      0.2290
    113  O         81.1950   35.1810   92.8360 O.2   250  TYR250     -0.2864
    114  CB        82.0410   32.2940   92.0600 C.3   250  TYR250      0.0560
    115  CG        82.8370   31.0300   92.1320 C.ar  250  TYR250     -0.0198
    116  CD1       83.8910   30.7980   91.2360 C.ar  250  TYR250     -0.0009
    117  CD2       82.6260   30.1070   93.1550 C.ar  250  TYR250     -0.0009
    118  CE1       84.6650   29.6750   91.3360 C.ar  250  TYR250      0.0417
    119  CE2       83.3810   28.9600   93.2390 C.ar  250  TYR250      0.0417
    120  CZ        84.4070   28.7560   92.3350 C.ar  250  TYR250      0.1957
    121  OH        85.1770   27.6240   92.4290 O.3   250  TYR250     -0.2866
    122  N         78.1380   35.2160   91.7930 N.3   253  HIS253     -0.1241
    123  CA        77.3950   35.1830   93.0750 C.3   253  HIS253      0.1621
    124  C         77.5510   36.5110   93.8000 C.2   253  HIS253      0.2264
    125  O         76.6390   36.9330   94.4700 O.2   253  HIS253     -0.2867
    126  CB        77.9600   34.0820   93.9590 C.3   253  HIS253      0.0745
    127  CG        77.5830   32.7140   93.5040 C.ar  253  HIS253      0.0817
    128  ND1       76.4360   32.4780   92.7800 N.ar  253  HIS253     -0.2268
    129  CD2       78.1390   31.5020   93.7510 C.ar  253  HIS253      0.1154
    130  CE1       76.3450   31.1780   92.5230 C.ar  253  HIS253      0.1986
    131  NE2       77.3280   30.5610   93.1570 N.ar  253  HIS253     -0.2212
    132  N         86.8810   37.0000   96.7490 N.3   275  GLY275     -0.1210
    133  CA        88.0490   36.4920   97.4580 C.3   275  GLY275      0.1956
    134  C         87.9200   35.0400   97.8170 C.2   275  GLY275      0.2612
    135  O         86.8100   34.4680   97.8370 O.2   275  GLY275     -0.2717
    136  N         89.0450   34.4990   98.2640 N.am  276  ASP276     -0.1959
    137  CA        89.1540   33.1050   98.6360 C.3   276  ASP276      0.1840
    138  C         89.3490   32.9670  100.1570 C.2   276  ASP276      0.2622
    139  O         90.3160   33.4960  100.7340 O.2   276  ASP276     -0.2715
    140  CB        90.3160   32.4610   97.8780 C.3   276  ASP276      0.1450
    141  CG        90.4060   30.9700   98.1000 C.2   276  ASP276      0.3671
    142  OD1       90.0050   30.4790   99.1830 O.co2 276  ASP276     -0.2456
    143  OD2       90.9060   30.2830   97.1890 O.co2 276  ASP276     -0.2456
    144  N         88.3930   32.3010  100.8010 N.am  277  ALA277     -0.1963
    145  CA        88.3660   32.2080  102.2570 C.3   277  ALA277      0.1728
    146  C         89.5060   31.3140  102.8030 C.2   277  ALA277      0.2616
    147  O         89.8440   31.3900  103.9890 O.2   277  ALA277     -0.2715
    148  CB        86.9880   31.6660  102.7270 C.3   277  ALA277      0.0334
    149  N         90.0640   30.4380  101.9620 N.am  278  THR278     -0.1951
    150  CA        91.3000   29.7530  102.3620 C.3   278  THR278      0.1897
    151  C         92.4910   30.7040  102.4830 C.2   278  THR278      0.2313
    152  O         93.5510   30.3060  102.9360 O.2   278  THR278     -0.2863
    153  CB        91.6460   28.5700  101.4300 C.3   278  THR278      0.1794
    154  OG1       91.9530   29.0530  100.1030 O.3   278  THR278     -0.2208
    155  CG2       90.4680   27.6220  101.3490 C.3   278  THR278      0.0378
    156  N         77.0860   29.9980  105.8790 N.3   293  ASN293     -0.1225
    157  CA        76.4600   28.7470  105.4220 C.3   293  ASN293      0.1785
    158  C         77.4400   28.0810  104.4090 C.2   293  ASN293      0.2597
    159  O         77.6360   28.5790  103.2940 O.2   293  ASN293     -0.2718
    160  CB        75.1000   29.1160  104.7960 C.3   293  ASN293      0.1169
    161  CG        74.4380   28.0040  103.9980 C.2   293  ASN293      0.2627
    162  OD1       73.7700   28.3180  103.0070 O.2   293  ASN293     -0.2716
    163  ND2       74.4310   26.7640  104.5120 N.am  293  ASN293     -0.0877
    164  N         78.2150   27.1260  104.9120 N.am  294  LEU294     -0.1966
    165  CA        79.4010   26.6180  104.1840 C.3   294  LEU294      0.1713
    166  C         78.9640   25.7300  103.0080 C.2   294  LEU294      0.2463
    167  O         77.8650   25.2090  103.0000 O.2   294  LEU294     -0.2730
    168  CB        80.3320   25.8500  105.1490 C.3   294  LEU294      0.0310
    169  CG        80.9120   26.6390  106.3320 C.3   294  LEU294      0.0022
    170  CD1       81.7600   25.7190  107.1720 C.3   294  LEU294      0.0001
    171  CD2       81.7540   27.8870  105.8590 C.3   294  LEU294      0.0001
    172  N         79.8030   25.6360  101.9670 N.am  295  PRO295     -0.2641
    173  CA        79.5130   24.7510  100.8470 C.3   295  PRO295      0.1762
    174  C         79.3920   23.3170  101.3580 C.2   295  PRO295      0.2641
    175  O         80.1840   22.9140  102.2220 O.2   295  PRO295     -0.2712
    176  CB        80.7570   24.8830   99.9390 C.2   295  PRO295     -0.0003
    177  CG        81.6940   25.7850  100.6060 C.2   295  PRO295     -0.0071
    178  CD        81.1400   26.2520  101.9050 C.3   295  PRO295      0.1204
    179  N         78.3410   22.6200  100.9390 N.am  296  TYR296     -0.1971
    180  CA        78.0840   21.2560  101.4100 C.3   296  TYR296      0.1640
    181  C         78.7930   20.2310  100.5290 C.2   296  TYR296      0.2290
    182  O         78.8770   19.0670  100.9040 O.2   296  TYR296     -0.2864
    183  CB        76.5870   20.9120  101.4350 C.3   296  TYR296      0.0560
    184  CG        75.6660   21.8590  102.2140 C.ar  296  TYR296     -0.0198
    185  CD1       76.1480   22.7210  103.2090 C.ar  296  TYR296     -0.0009
    186  CD2       74.2950   21.8200  101.9990 C.ar  296  TYR296     -0.0009
    187  CE1       75.2790   23.6130  103.8910 C.ar  296  TYR296      0.0417
    188  CE2       73.4310   22.6690  102.6770 C.ar  296  TYR296      0.0417
    189  CZ        73.9190   23.5640  103.6160 C.ar  296  TYR296      0.1957
    190  OH        73.0010   24.4150  104.2130 O.3   296  TYR296     -0.2866
    191  N         88.9520   21.9650  102.0650 N.3   303  LEU303     -0.1245
    192  CA        88.5110   23.3660  102.0780 C.3   303  LEU303      0.1561
    193  C         88.3320   23.8210  103.5400 C.2   303  LEU303      0.2260
    194  O         88.8780   24.8510  103.9580 O.2   303  LEU303     -0.2867
    195  CB        87.2240   23.5140  101.2790 C.3   303  LEU303      0.0270
    196  CG        86.4110   24.8000  101.5060 C.3   303  LEU303      0.0019
    197  CD1       87.2250   26.0330  101.0690 C.3   303  LEU303      0.0001
    198  CD2       85.1450   24.6980  100.7150 C.3   303  LEU303      0.0001
@<TRIPOS>BOND
     1   116   118   ar
     2   116   115   ar
     3   118   120   ar
     4   122   123    1
     5   114   115    1
     6   114   111    1
     7   115   117   ar
     8   112   111    1
     9   112   113    2
    10   120   121    1
    11   120   119   ar
    12   111   110    1
    13   130   128   ar
    14   130   131   ar
    15   128   127   ar
    16   123   124    1
    17   123   126    1
    18   117   119   ar
    19   131   129   ar
    20   104   103    2
    21   127   129   ar
    22   127   126    1
    23   124   125    2
    24   110   103   am
    25   103   102    1
    26   109   108    1
    27   108   107    1
    28     1     2    1
    29     2     3    1
    30     2     5    1
    31     3     4    2
    32   106   107    1
    33   106   105    1
    34   102   105    1
    35   102   101    1
    36     5     6    1
    37   100    98   ar
    38     6     8   ar
    39     6     7   ar
    40     8    10   ar
    41     7     9   ar
    42    10     9   ar
    43    11    12    1
    44    97    98    1
    45    97    96    1
    46    95    94    2
    47    98    99   ar
    48   101    94   am
    49   132   133    1
    50    94    93    1
    51    71    68    1
    52    71    72    1
    53   143   141   ar
    54    22    24   ar
    55    22    21   ar
    56   133   134    1
    57    96    93    1
    58    68    67    1
    59    68    69    1
    60    24    25   ar
    61    12    15    1
    62    12    13    1
    63    66    65    2
    64    67    65   am
    65   134   135    2
    66   134   136   am
    67    65    64    1
    68   140   141    1
    69   140   137    1
    70    93    92    1
    71   141   142   ar
    72   136   137    1
    73    64    63    1
    74    16    13   am
    75    16    17    1
    76    21    20    1
    77    21    23   ar
    78    70    69    2
    79    13    14    2
    80   137   138    1
    81    20    17    1
    82    69    73   am
    83    25    23   ar
    84    17    18    1
    85    63    59   am
    86    73    74    1
    87   176   177    2
    88   176   173    1
    89   154   153    1
    90   138   139    2
    91   138   144   am
    92    62    61    1
    93    59    60    2
    94    59    58    1
    95   181   182    2
    96   181   180    1
    97    18    19    2
    98    18    26   am
    99   177   178    1
   100   198   196    1
   101    74    75    1
   102   144   145    1
   103   173   174    1
   104   173   172    1
   105   179   174   am
   106   179   180    1
   107   197   196    1
   108   195   196    1
   109   195   192    1
   110    82    81    1
   111   155   153    1
   112   174   175    2
   113    57    58    1
   114    57    51   am
   115   180   183    1
   116   153   150    1
   117   183   184    1
   118    58    61    1
   119    26    27    1
   120    51    52    2
   121    51    50    1
   122    75    77   am
   123    75    76    2
   124    77    78    1
   125   178   172    1
   126   149   150    1
   127   149   146   am
   128   172   166   am
   129    50    53    1
   130    50    49    1
   131   186   184   ar
   132   186   188   ar
   133   191   192    1
   134   192   193    1
   135    53    54    1
   136   184   185   ar
   137   145   148    1
   138   145   146    1
   139   150   151    1
   140    45    44    2
   141    55    54    1
   142    55    56    1
   143   151   152    2
   144    81    78    1
   145    81    83    1
   146   188   189   ar
   147    78    79    1
   148   146   147    2
   149    29    28    2
   150    27    28    1
   151    27    30    1
   152   167   166    2
   153   162   161    2
   154   166   165    1
   155    49    44   am
   156    44    43    1
   157   185   187   ar
   158   159   158    2
   159   193   194    2
   160   189   187   ar
   161   189   190    1
   162   161   163   am
   163   161   160    1
   164    37    36    2
   165    30    31    1
   166    79    84   am
   167    79    80    2
   168   165   164    1
   169   165   168    1
   170   158   164   am
   171   158   157    1
   172    43    42    1
   173    43    46    1
   174    41    39   ar
   175    84    85    1
   176    40    39   ar
   177   160   157    1
   178    39    38    1
   179    36    42   am
   180    36    35    1
   181   168   169    1
   182    42    48    1
   183    46    47    1
   184   157   156    1
   185    31    32    1
   186    31    33    1
   187    38    35    1
   188   171   169    1
   189    35    34    1
   190    85    86    1
   191    85    88    1
   192    47    48    1
   193   169   170    1
   194    86    87    2
   195    89    88    1
   196    89    91    1
   197    88    90    1
