@<TRIPOS>MOLECULE
tmp/3tm5A00.pdb
 198 197 0 0 0
SMALL
GASTEIGER

@<TRIPOS>ATOM
      1  N         47.3210   35.6730   87.3720 N.3   198  HIS198     -0.1241
      2  CA        46.1710   34.8020   87.3070 C.3   198  HIS198      0.1621
      3  C         46.5920   33.3430   87.1830 C.2   198  HIS198      0.2264
      4  O         47.3800   33.0060   86.3090 O.2   198  HIS198     -0.2867
      5  CB        45.3410   35.2040   86.1180 C.3   198  HIS198      0.0745
      6  CG        43.9430   34.6930   86.1450 C.ar  198  HIS198      0.0817
      7  ND1       43.6430   33.3550   85.9920 N.ar  198  HIS198     -0.2268
      8  CD2       42.7610   35.3520   86.1080 C.ar  198  HIS198      0.1154
      9  CE1       42.3320   33.2030   85.9390 C.ar  198  HIS198      0.1986
     10  NE2       41.7740   34.4020   85.9930 N.ar  198  HIS198     -0.2212
     11  N         45.3790   30.8470   85.7940 N.3   200  ALA200     -0.1231
     12  CA        45.2880   30.3610   84.4130 C.3   200  ALA200      0.1694
     13  C         45.4600   31.4800   83.3480 C.2   200  ALA200      0.2592
     14  O         44.8140   31.4170   82.2920 O.2   200  ALA200     -0.2718
     15  CB        43.9230   29.6080   84.2060 C.3   200  ALA200      0.0304
     16  N         46.3270   32.4670   83.6010 N.am  201  HIS201     -0.1962
     17  CA        46.6140   33.5500   82.6280 C.3   201  HIS201      0.1787
     18  C         47.2080   33.1060   81.2980 C.2   201  HIS201      0.2620
     19  O         47.9540   32.1160   81.2290 O.2   201  HIS201     -0.2715
     20  CB        47.4690   34.6660   83.2430 C.3   201  HIS201      0.0785
     21  CG        48.9460   34.3700   83.2860 C.ar  201  HIS201      0.0821
     22  ND1       49.6300   34.1290   84.4630 N.ar  201  HIS201     -0.2267
     23  CD2       49.8800   34.3510   82.3040 C.ar  201  HIS201      0.1154
     24  CE1       50.9070   33.9250   84.1960 C.ar  201  HIS201      0.1986
     25  NE2       51.0900   34.1030   82.9000 N.ar  201  HIS201     -0.2212
     26  N         46.9290   33.8810   80.2530 N.am  202  LEU202     -0.1977
     27  CA        47.5040   33.6410   78.9220 C.3   202  LEU202      0.1596
     28  C         48.8760   34.2450   78.8110 C.2   202  LEU202      0.2287
     29  O         49.0760   35.4210   79.1000 O.2   202  LEU202     -0.2864
     30  CB        46.6600   34.2550   77.8010 C.3   202  LEU202      0.0297
     31  CG        47.0150   33.9610   76.3220 C.3   202  LEU202      0.0022
     32  CD1       47.0500   32.4850   76.0050 C.3   202  LEU202      0.0001
     33  CD2       45.9650   34.5960   75.4740 C.3   202  LEU202      0.0001
     34  N         36.8260   40.7100   75.1720 N.3   223  ASP223     -0.1225
     35  CA        37.1450   39.4550   75.8850 C.3   223  ASP223      0.1790
     36  C         36.0960   39.1510   76.9520 C.2   223  ASP223      0.2440
     37  O         36.1320   39.6850   78.0620 O.2   223  ASP223     -0.2733
     38  CB        38.5570   39.4540   76.4560 C.3   223  ASP223      0.1423
     39  CG        39.0510   38.0570   76.8130 C.2   223  ASP223      0.3668
     40  OD1       38.2170   37.1670   77.0960 O.co2 223  ASP223     -0.2456
     41  OD2       40.2900   37.8630   76.8480 O.co2 223  ASP223     -0.2456
     42  N         35.1270   38.3290   76.5590 N.am  224  PRO224     -0.2718
     43  CA        33.9690   38.0190   77.3990 C.3   224  PRO224      0.1535
     44  C         34.3790   37.3140   78.6770 C.2   224  PRO224      0.2598
     45  O         33.6860   37.4310   79.6880 O.2   224  PRO224     -0.2715
     46  CB        33.1490   37.0740   76.5180 C.3   224  PRO224      0.0310
     47  CG        34.1570   36.4130   75.6480 C.3   224  PRO224      0.0237
     48  CD        35.2120   37.4490   75.3810 C.3   224  PRO224      0.0939
     49  N         35.4920   36.5900   78.6390 N.am  225  MET225     -0.1964
     50  CA        35.9420   35.8880   79.8440 C.3   225  MET225      0.1736
     51  C         37.3720   36.3210   80.1110 C.2   225  MET225      0.2617
     52  O         38.3180   35.5140   80.0650 O.2   225  MET225     -0.2715
     53  CB        35.8330   34.3580   79.6740 C.3   225  MET225      0.0427
     54  CG        34.4470   33.8450   79.1710 C.3   225  MET225      0.0599
     55  SD        34.1290   32.0960   79.5270 S.3   225  MET225     -0.1393
     56  CE        35.7340   31.6170   80.1590 C.3   225  MET225      0.0692
     57  N         37.5110   37.6070   80.4300 N.am  226  CYS226     -0.1954
     58  CA        38.7970   38.3070   80.3640 C.3   226  CYS226      0.1843
     59  C         39.8530   37.8990   81.4140 C.2   226  CYS226      0.2626
     60  O         41.0110   37.8180   81.1070 O.2   226  CYS226     -0.2714
     61  CB        38.5790   39.8280   80.3460 C.3   226  CYS226      0.0997
     62  SG        38.1330   40.4990   81.8770 S.3   226  CYS226     -0.0797
     63  N         39.4440   37.5480   82.6280 N.am  227  GLY227     -0.1940
     64  CA        40.4130   37.2310   83.6880 C.3   227  GLY227      0.2014
     65  C         41.3250   38.4010   84.0720 C.2   227  GLY227      0.2640
     66  O         40.9010   39.5140   84.3660 O.2   227  GLY227     -0.2714
     67  N         42.6040   38.1060   84.0540 N.am  228  SER228     -0.1935
     68  CA        43.7100   38.9770   84.3490 C.3   228  SER228      0.2055
     69  C         43.8610   40.1440   83.2790 C.2   228  SER228      0.2644
     70  O         44.4120   41.2170   83.6040 O.2   228  SER228     -0.2714
     71  CB        45.0030   38.1710   84.4540 C.3   228  SER228      0.2130
     72  OG        46.1220   39.0280   84.5600 O.3   228  SER228     -0.2179
     73  N         43.3490   39.9610   82.0600 N.am  229  GLY229     -0.1939
     74  CA        43.2020   41.0910   81.1550 C.3   229  GLY229      0.2014
     75  C         44.2070   41.0650   80.0210 C.2   229  GLY229      0.2640
     76  O         44.2610   41.9610   79.2250 O.2   229  GLY229     -0.2714
     77  N         45.0250   40.0320   80.0020 N.am  230  THR230     -0.1936
     78  CA        46.1650   39.9000   79.1030 C.3   230  THR230      0.2028
     79  C         45.8590   40.2730   77.6420 C.2   230  THR230      0.2642
     80  O         46.6870   40.9340   76.9590 O.2   230  THR230     -0.2714
     81  CB        46.7620   38.4350   79.1830 C.3   230  THR230      0.1808
     82  OG1       47.0320   38.0840   80.5510 O.3   230  THR230     -0.2208
     83  CG2       48.0670   38.3230   78.3900 C.3   230  THR230      0.0379
     84  N         44.7610   39.7460   77.1060 N.am  231  ILE231     -0.1977
     85  CA        44.5170   39.8530   75.6740 C.3   231  ILE231      0.1596
     86  C         44.2060   41.3090   75.3820 C.2   231  ILE231      0.2287
     87  O         44.6650   41.8640   74.3970 O.2   231  ILE231     -0.2864
     88  CB        43.3530   38.9430   75.2310 C.3   231  ILE231      0.0276
     89  CG1       43.7860   37.4710   75.2120 C.3   231  ILE231      0.0022
     90  CG2       42.7890   39.3540   73.8520 C.3   231  ILE231      0.0022
     91  CD1       42.6130   36.4750   75.0230 C.3   231  ILE231      0.0001
     92  N         34.2840   39.8200   82.9500 N.3   248  GLU248     -0.1231
     93  CA        34.8800   38.7980   83.8210 C.3   248  GLU248      0.1699
     94  C         33.9840   38.4170   84.9870 C.2   248  GLU248      0.2592
     95  O         33.5870   39.2590   85.7810 O.2   248  GLU248     -0.2718
     96  CB        36.2550   39.2390   84.3370 C.3   248  GLU248      0.0402
     97  CG        36.7470   38.4650   85.6120 C.3   248  GLU248      0.1161
     98  CD        36.8260   36.9420   85.4380 C.2   248  GLU248      0.3649
     99  OE1       37.5230   36.4780   84.5280 O.co2 248  GLU248     -0.2457
    100  OE2       36.1780   36.1930   86.2200 O.co2 248  GLU248     -0.2457
    101  N         33.6880   37.1370   85.1200 N.am  249  LYS249     -0.1966
    102  CA        32.7660   36.7260   86.1660 C.3   249  LYS249      0.1728
    103  C         33.1570   37.1260   87.5840 C.2   249  LYS249      0.2616
    104  O         32.3240   37.6030   88.3510 O.2   249  LYS249     -0.2715
    105  CB        32.4570   35.2480   86.1000 C.3   249  LYS249      0.0311
    106  CG        31.0900   34.9300   86.7440 C.3   249  LYS249      0.0038
    107  CD        31.0310   33.5410   87.3020 C.3   249  LYS249      0.0206
    108  CE        29.6120   33.0060   87.2800 C.3   249  LYS249      0.1093
    109  NZ        29.6020   31.5930   87.7700 N.3   249  LYS249     -0.1314
    110  N         34.4260   36.9630   87.9210 N.am  250  TYR250     -0.1974
    111  CA        34.8600   37.1650   89.2910 C.3   250  TYR250      0.1639
    112  C         35.6180   38.4670   89.5370 C.2   250  TYR250      0.2290
    113  O         36.6340   38.7480   88.9010 O.2   250  TYR250     -0.2864
    114  CB        35.6550   35.9570   89.7720 C.3   250  TYR250      0.0560
    115  CG        34.8360   34.6990   89.7030 C.ar  250  TYR250     -0.0198
    116  CD1       34.8620   33.8850   88.5680 C.ar  250  TYR250     -0.0009
    117  CD2       33.9750   34.3550   90.7480 C.ar  250  TYR250     -0.0009
    118  CE1       34.0880   32.7360   88.4930 C.ar  250  TYR250      0.0417
    119  CE2       33.1910   33.2180   90.6800 C.ar  250  TYR250      0.0417
    120  CZ        33.2470   32.4240   89.5470 C.ar  250  TYR250      0.1957
    121  OH        32.4670   31.3100   89.4870 O.3   250  TYR250     -0.2866
    122  N         39.4030   38.8000   90.0530 N.3   253  HIS253     -0.1241
    123  CA        40.1560   38.7040   88.8060 C.3   253  HIS253      0.1621
    124  C         40.0640   39.9870   88.0010 C.2   253  HIS253      0.2264
    125  O         41.0520   40.4220   87.3590 O.2   253  HIS253     -0.2867
    126  CB        39.5890   37.5500   87.9810 C.3   253  HIS253      0.0745
    127  CG        40.0500   36.2060   88.4380 C.ar  253  HIS253      0.0817
    128  ND1       39.3190   35.0540   88.2270 N.ar  253  HIS253     -0.2268
    129  CD2       41.2250   35.8120   88.9960 C.ar  253  HIS253      0.1154
    130  CE1       40.0270   34.0060   88.6240 C.ar  253  HIS253      0.1986
    131  NE2       41.1790   34.4410   89.1150 N.ar  253  HIS253     -0.2212
    132  N         30.7410   40.4450   85.1630 N.3   275  GLY275     -0.1210
    133  CA        29.6110   39.9740   84.4190 C.3   275  GLY275      0.1956
    134  C         29.7780   38.5490   83.9760 C.2   275  GLY275      0.2612
    135  O         30.8880   37.9600   84.0340 O.2   275  GLY275     -0.2717
    136  N         28.6600   38.0020   83.5290 N.am  276  ASP276     -0.1959
    137  CA        28.5470   36.5860   83.3150 C.3   276  ASP276      0.1840
    138  C         28.2570   36.3940   81.8530 C.2   276  ASP276      0.2622
    139  O         27.2460   36.8820   81.3350 O.2   276  ASP276     -0.2715
    140  CB        27.4290   35.9850   84.1890 C.3   276  ASP276      0.1450
    141  CG        27.3060   34.5040   84.0260 C.2   276  ASP276      0.3671
    142  OD1       27.3680   34.0230   82.8740 O.co2 276  ASP276     -0.2456
    143  OD2       27.1350   33.8040   85.0490 O.co2 276  ASP276     -0.2456
    144  N         29.1610   35.6760   81.2050 N.am  277  ALA277     -0.1963
    145  CA        29.2450   35.6370   79.7510 C.3   277  ALA277      0.1728
    146  C         28.1160   34.8410   79.1070 C.2   277  ALA277      0.2616
    147  O         27.7490   35.1100   77.9700 O.2   277  ALA277     -0.2715
    148  CB        30.6260   35.0650   79.3180 C.3   277  ALA277      0.0334
    149  N         27.6140   33.8210   79.8060 N.am  278  THR278     -0.1951
    150  CA        26.3870   33.1400   79.3870 C.3   278  THR278      0.1897
    151  C         25.0940   34.0000   79.4210 C.2   278  THR278      0.2313
    152  O         24.0190   33.5230   79.0520 O.2   278  THR278     -0.2863
    153  CB        26.1840   31.8230   80.1640 C.3   278  THR278      0.1794
    154  OG1       25.9970   32.1080   81.5550 O.3   278  THR278     -0.2208
    155  CG2       27.3770   30.9190   79.9920 C.3   278  THR278      0.0378
    156  N         40.6510   33.3440   75.9800 N.3   293  ASN293     -0.1225
    157  CA        41.3110   32.1460   76.5020 C.3   293  ASN293      0.1785
    158  C         40.3330   31.4420   77.4870 C.2   293  ASN293      0.2597
    159  O         40.1420   31.8970   78.6420 O.2   293  ASN293     -0.2718
    160  CB        42.6370   32.5690   77.1790 C.3   293  ASN293      0.1169
    161  CG        43.3330   31.4250   77.9200 C.2   293  ASN293      0.2627
    162  OD1       43.9910   31.6270   78.9500 O.2   293  ASN293     -0.2716
    163  ND2       43.2400   30.2440   77.3760 N.am  293  ASN293     -0.0877
    164  N         39.5680   30.4900   76.9660 N.am  294  LEU294     -0.1966
    165  CA        38.4630   29.9460   77.7430 C.3   294  LEU294      0.1713
    166  C         38.9210   29.0840   78.9150 C.2   294  LEU294      0.2458
    167  O         40.0270   28.5650   78.9050 O.2   294  LEU294     -0.2730
    168  CB        37.4570   29.2040   76.8670 C.3   294  LEU294      0.0310
    169  CG        36.8100   30.1130   75.8110 C.3   294  LEU294      0.0022
    170  CD1       35.9020   29.2580   74.9490 C.3   294  LEU294      0.0001
    171  CD2       36.0730   31.2930   76.4350 C.3   294  LEU294      0.0001
    172  N         38.0940   29.0020   79.9650 N.am  295  PRO295     -0.2716
    173  CA        38.5640   28.1850   81.0660 C.3   295  PRO295      0.1536
    174  C         38.5900   26.7460   80.5890 C.2   295  PRO295      0.2598
    175  O         37.6680   26.3250   79.9120 O.2   295  PRO295     -0.2715
    176  CB        37.5230   28.4160   82.1800 C.3   295  PRO295      0.0310
    177  CG        36.3040   28.9910   81.5090 C.3   295  PRO295      0.0237
    178  CD        36.6740   29.4090   80.0900 C.3   295  PRO295      0.0939
    179  N         39.6840   26.0370   80.8470 N.am  296  TYR296     -0.1974
    180  CA        39.8360   24.6620   80.3700 C.3   296  TYR296      0.1639
    181  C         39.0430   23.6830   81.2350 C.2   296  TYR296      0.2290
    182  O         38.7710   22.5480   80.8210 O.2   296  TYR296     -0.2864
    183  CB        41.3120   24.2500   80.3340 C.3   296  TYR296      0.0560
    184  CG        42.2050   25.2330   79.6070 C.ar  296  TYR296     -0.0198
    185  CD1       41.7150   26.0090   78.5820 C.ar  296  TYR296     -0.0009
    186  CD2       43.5390   25.3730   79.9520 C.ar  296  TYR296     -0.0009
    187  CE1       42.5270   26.8580   77.8710 C.ar  296  TYR296      0.0417
    188  CE2       44.3710   26.2490   79.2720 C.ar  296  TYR296      0.0417
    189  CZ        43.8510   27.0040   78.2410 C.ar  296  TYR296      0.1957
    190  OH        44.6460   27.9190   77.5860 O.3   296  TYR296     -0.2866
    191  N         28.7810   25.4350   79.9990 N.3   308  LEU308     -0.1245
    192  CA        29.3390   26.7720   79.8790 C.3   308  LEU308      0.1561
    193  C         29.5200   27.2260   78.4220 C.2   308  LEU308      0.2260
    194  O         28.9640   28.2320   78.0370 O.2   308  LEU308     -0.2867
    195  CB        30.6650   26.8630   80.6520 C.3   308  LEU308      0.0270
    196  CG        31.3890   28.2260   80.6370 C.3   308  LEU308      0.0019
    197  CD1       30.5030   29.3560   81.0810 C.3   308  LEU308      0.0001
    198  CD2       32.6570   28.2340   81.4470 C.3   308  LEU308      0.0001
@<TRIPOS>BOND
     1    90    88    1
     2    87    86    2
     3   170   169    1
     4    91    89    1
     5    34    35    1
     6    89    88    1
     7    88    85    1
     8    48    47    1
     9    48    42    1
    10    86    85    1
    11    33    31    1
    12    47    46    1
    13    85    84    1
    14   169   171    1
    15   169   168    1
    16    35    38    1
    17    35    36    1
    18   156   157    1
    19    32    31    1
    20    31    30    1
    21    38    39    1
    22   157   160    1
    23   157   158    1
    24    46    43    1
    25    42    36   am
    26    42    43    1
    27    39    41   ar
    28    39    40   ar
    29   168   165    1
    30    36    37    2
    31    80    79    2
    32   164   158   am
    33   164   165    1
    34    84    79   am
    35   160   161    1
    36   163   161   am
    37    43    44    1
    38   158   159    2
    39   190   189    1
    40    79    78    1
    41   165   166    1
    42    30    27    1
    43   187   189   ar
    44   187   185   ar
    45   161   162    2
    46   147   146    2
    47   194   193    2
    48   189   188   ar
    49    83    81    1
    50   193   192    1
    51   185   184   ar
    52    49    44   am
    53    49    50    1
    54    44    45    2
    55    28    27    1
    56    28    29    2
    57   167   166    2
    58   166   172   am
    59    27    26    1
    60   152   151    2
    61    78    81    1
    62    78    77    1
    63   146   145    1
    64   146   149   am
    65    54    55    1
    66    54    53    1
    67    81    82    1
    68    76    75    2
    69   188   186   ar
    70   148   145    1
    71   150   151    1
    72   150   149    1
    73   150   153    1
    74    55    56    1
    75   184   186   ar
    76   184   183    1
    77    53    50    1
    78   145   144    1
    79    50    51    1
    80   192   191    1
    81   192   195    1
    82   175   174    2
    83   172   178    1
    84   172   173    1
    85   155   153    1
    86    77    75   am
    87    75    74    1
    88    52    51    2
    89   178   177    1
    90    51    57   am
    91   153   154    1
    92    26    18   am
    93   183   180    1
    94    61    58    1
    95    61    62    1
    96    58    57    1
    97    58    59    1
    98   180   179    1
    99   180   181    1
   100   174   179   am
   101   174   173    1
   102   196   195    1
   103   196   197    1
   104   196   198    1
   105   182   181    2
   106   173   176    1
   107    60    59    2
   108    74    73    1
   109   144   138   am
   110    19    18    2
   111    18    17    1
   112   139   138    2
   113    59    63   am
   114   177   176    1
   115   138   137    1
   116    73    69   am
   117    14    13    2
   118    23    25   ar
   119    23    21   ar
   120    63    64    1
   121    17    20    1
   122    17    16    1
   123   142   141   ar
   124    25    24   ar
   125    92    93    1
   126    20    21    1
   127    69    70    2
   128    69    68    1
   129    21    22   ar
   130   137   136    1
   131   137   140    1
   132    13    16   am
   133    13    12    1
   134   136   134   am
   135    64    65    1
   136    93    96    1
   137    93    94    1
   138   134   135    2
   139   134   133    1
   140   141   140    1
   141   141   143   ar
   142    67    65   am
   143    67    68    1
   144    65    66    2
   145    24    22   ar
   146    15    12    1
   147    96    97    1
   148    68    71    1
   149    12    11    1
   150   133   132    1
   151    71    72    1
   152    99    98   ar
   153    94   101   am
   154    94    95    2
   155   101   102    1
   156    98    97    1
   157    98   100   ar
   158     9     7   ar
   159     9    10   ar
   160     7     6   ar
   161    10     8   ar
   162   105   102    1
   163   105   106    1
   164     8     6   ar
   165     5     6    1
   166     5     2    1
   167   102   103    1
   168     4     3    2
   169   106   107    1
   170     3     2    1
   171   108   107    1
   172   108   109    1
   173     2     1    1
   174   125   124    2
   175   103   110   am
   176   103   104    2
   177   110   111    1
   178   126   127    1
   179   126   123    1
   180   124   123    1
   181   128   127   ar
   182   128   130   ar
   183   127   129   ar
   184   118   116   ar
   185   118   120   ar
   186   116   115   ar
   187   130   131   ar
   188   123   122    1
   189   113   112    2
   190   129   131   ar
   191   111   112    1
   192   111   114    1
   193   121   120    1
   194   120   119   ar
   195   115   114    1
   196   115   117   ar
   197   119   117   ar
