@<TRIPOS>MOLECULE
tmp/3tm9A00.pdb
 188 178 0 0 0
SMALL
GASTEIGER

@<TRIPOS>ATOM
      1  N        -23.4840  -11.4940   12.0980 N.3    32  LEU32      -0.1245
      2  CA       -23.0070  -10.6630   10.9930 C.3    32  LEU32       0.1561
      3  C        -24.0520   -9.6040   10.6310 C.2    32  LEU32       0.2260
      4  O        -23.7280   -8.4350   10.5200 O.2    32  LEU32      -0.2867
      5  CB       -22.6810  -11.5010    9.7400 C.3    32  LEU32       0.0270
      6  CG       -22.1120  -10.6840    8.5490 C.3    32  LEU32       0.0019
      7  CD1      -20.6790  -10.1900    8.8100 C.3    32  LEU32       0.0001
      8  CD2      -22.1740  -11.4620    7.2520 C.3    32  LEU32       0.0001
      9  N        -23.5260   -4.7330    5.5820 N.3    39  VAL39      -0.1245
     10  CA       -23.3500   -5.7660    4.5760 C.3    39  VAL39       0.1561
     11  C        -24.6740   -6.3600    4.0580 C.2    39  VAL39       0.2260
     12  O        -24.6910   -6.9660    2.9860 O.2    39  VAL39      -0.2867
     13  CB       -22.4670   -6.9310    5.0750 C.3    39  VAL39       0.0252
     14  CG1      -21.0980   -6.3890    5.5070 C.3    39  VAL39       0.0019
     15  CG2      -23.1450   -7.7330    6.1610 C.3    39  VAL39       0.0019
     16  N        -25.7950   -6.3210    0.2790 N.3    42  LEU42      -0.1231
     17  CA       -25.0390   -7.1030   -0.7010 C.3    42  LEU42       0.1693
     18  C        -25.6700   -8.4790   -0.9600 C.2    42  LEU42       0.2592
     19  O        -25.4670   -9.0790   -2.0130 O.2    42  LEU42      -0.2718
     20  CB       -23.5950   -7.2900   -0.2400 C.3    42  LEU42       0.0284
     21  CG       -22.8270   -5.9980    0.0530 C.3    42  LEU42       0.0019
     22  CD1      -21.4080   -6.3580    0.3990 C.3    42  LEU42       0.0001
     23  CD2      -22.8990   -5.0270   -1.1310 C.3    42  LEU42       0.0001
     24  N        -26.4150   -8.9810    0.0250 N.am   43  PHE43      -0.1976
     25  CA       -27.0720  -10.2830   -0.0410 C.3    43  PHE43       0.1639
     26  C        -28.5240  -10.1910   -0.5010 C.2    43  PHE43       0.2290
     27  O        -29.0800   -9.0990   -0.6100 O.2    43  PHE43      -0.2864
     28  CB       -27.0690  -10.9700    1.3410 C.3    43  PHE43       0.0560
     29  CG       -25.7060  -11.3030    1.8750 C.ar   43  PHE43      -0.0200
     30  CD1      -25.1540  -12.5430    1.6540 C.ar   43  PHE43      -0.0042
     31  CD2      -24.9700  -10.3700    2.5720 C.ar   43  PHE43      -0.0042
     32  CE1      -23.9030  -12.8600    2.1520 C.ar   43  PHE43      -0.0003
     33  CE2      -23.7050  -10.6850    3.0610 C.ar   43  PHE43      -0.0003
     34  CZ       -23.1890  -11.9330    2.8560 C.ar   43  PHE43      -0.0000
     35  N        -29.7280  -17.9940    4.5210 N.3    52  GLU52      -0.1231
     36  CA       -29.1480  -19.1410    3.8190 C.3    52  GLU52       0.1699
     37  C        -27.8090  -18.7830    3.1160 C.2    52  GLU52       0.2592
     38  O        -26.8680  -19.5930    3.1330 O.2    52  GLU52      -0.2718
     39  CB       -30.1610  -19.7440    2.8340 C.3    52  GLU52       0.0402
     40  CG       -31.3470  -20.4320    3.5350 C.3    52  GLU52       0.1161
     41  CD       -30.9380  -21.4990    4.5730 C.2    52  GLU52       0.3649
     42  OE1      -30.4680  -22.5940    4.1860 O.co2  52  GLU52      -0.2457
     43  OE2      -31.1080  -21.2460    5.7850 O.co2  52  GLU52      -0.2457
     44  N        -27.7010  -17.5970    2.5190 N.am   53  GLN53      -0.1979
     45  CA       -26.4450  -17.1810    1.8920 C.3    53  GLN53       0.1601
     46  C        -25.2900  -17.0170    2.9040 C.2    53  GLN53       0.2287
     47  O        -24.2230  -17.6160    2.7180 O.2    53  GLN53      -0.2864
     48  CB       -26.6810  -15.8940    1.0760 C.3    53  GLN53       0.0394
     49  CG       -27.4740  -16.1680   -0.2190 C.3    53  GLN53       0.0908
     50  CD       -27.7020  -14.9120   -1.0500 C.2    53  GLN53       0.2608
     51  OE1      -27.7920  -13.8150   -0.5100 O.2    53  GLN53      -0.2717
     52  NE2      -27.7710  -15.0680   -2.3690 N.am   53  GLN53      -0.0878
     53  N        -24.0830  -20.3420    4.1690 N.3    56  ALA56      -0.1231
     54  CA       -23.2880  -21.0770    3.1860 C.3    56  ALA56       0.1694
     55  C        -21.8740  -20.5170    3.0830 C.2    56  ALA56       0.2591
     56  O        -20.9200  -21.2480    2.7940 O.2    56  ALA56      -0.2718
     57  CB       -23.9840  -21.0510    1.7650 C.3    56  ALA56       0.0304
     58  N        -21.7590  -19.2030    3.2620 N.am   57  LEU57      -0.1980
     59  CA       -20.4750  -18.5180    3.3770 C.3    57  LEU57       0.1596
     60  C        -19.6370  -19.1860    4.4560 C.2    57  LEU57       0.2287
     61  O        -18.4970  -19.6130    4.2120 O.2    57  LEU57      -0.2864
     62  CB       -20.6900  -17.0360    3.7310 C.3    57  LEU57       0.0297
     63  CG       -19.5060  -16.0630    3.6530 C.3    57  LEU57       0.0022
     64  CD1      -20.0780  -14.6220    3.8170 C.3    57  LEU57       0.0001
     65  CD2      -18.4000  -16.3260    4.6370 C.3    57  LEU57       0.0001
     66  N        -18.6910  -22.8560    3.8390 N.3    60  THR60      -0.1203
     67  CA       -17.6310  -22.9970    2.8330 C.3    60  THR60       0.1994
     68  C        -16.2570  -22.6550    3.3920 C.2    60  THR60       0.2617
     69  O        -15.2690  -23.2940    3.0560 O.2    60  THR60      -0.2717
     70  CB       -17.9690  -22.1450    1.5890 C.3    60  THR60       0.1784
     71  OG1      -19.2370  -22.5940    1.1180 O.3    60  THR60      -0.2211
     72  CG2      -16.9110  -22.3530    0.5000 C.3    60  THR60       0.0376
     73  N        -16.1790  -21.7030    4.3180 N.am   61  VAL61      -0.1979
     74  CA       -14.9120  -21.4870    5.0190 C.3    61  VAL61       0.1595
     75  C        -14.4520  -22.7180    5.7420 C.2    61  VAL61       0.2287
     76  O        -13.2630  -23.0790    5.6890 O.2    61  VAL61      -0.2864
     77  CB       -14.9860  -20.3530    6.0680 C.3    61  VAL61       0.0276
     78  CG1      -13.7040  -20.3030    6.8580 C.3    61  VAL61       0.0022
     79  CG2      -15.2360  -19.0380    5.3870 C.3    61  VAL61       0.0022
     80  N        -13.2840  -25.2670    3.1380 N.3    64  ALA64      -0.1245
     81  CA       -11.9570  -24.9240    2.6540 C.3    64  ALA64       0.1562
     82  C        -10.9030  -25.2350    3.6990 C.2    64  ALA64       0.2260
     83  O         -9.8260  -25.6980    3.3730 O.2    64  ALA64      -0.2867
     84  CB       -11.8800  -23.4290    2.2600 C.3    64  ALA64       0.0290
     85  N        -16.9700  -18.6360   -7.0240 N.3    81  ILE81      -0.1245
     86  CA       -17.4190  -17.7440   -5.9710 C.3    81  ILE81       0.1561
     87  C        -16.8900  -16.3200   -6.1910 C.2    81  ILE81       0.2260
     88  O        -17.5930  -15.3250   -5.9520 O.2    81  ILE81      -0.2867
     89  CB       -16.9800  -18.2390   -4.5810 C.3    81  ILE81       0.0252
     90  CG1      -17.6140  -19.6120   -4.2530 C.3    81  ILE81       0.0019
     91  CG2      -17.3420  -17.2100   -3.5280 C.3    81  ILE81       0.0019
     92  CD1      -16.8910  -20.3970   -3.1640 C.3    81  ILE81       0.0001
     93  N        -18.9800  -14.1320   -8.3400 N.3    84  LYS84      -0.1231
     94  CA       -20.1580  -13.6640   -7.5950 C.3    84  LYS84       0.1693
     95  C        -19.7780  -12.5600   -6.6290 C.2    84  LYS84       0.2592
     96  O        -20.4960  -11.5730   -6.5150 O.2    84  LYS84      -0.2718
     97  CB       -20.8440  -14.7980   -6.8320 C.3    84  LYS84       0.0285
     98  CG       -21.5000  -15.8330   -7.7040 C.3    84  LYS84       0.0035
     99  CD       -23.0030  -15.9230   -7.4420 C.3    84  LYS84       0.0206
    100  CE       -23.7300  -14.6670   -7.8860 C.3    84  LYS84       0.1093
    101  NZ       -25.2220  -14.8070   -7.7930 N.3    84  LYS84      -0.1314
    102  N        -18.6620  -12.7290   -5.9240 N.am   85  HIS85      -0.1976
    103  CA       -18.1390  -11.6960   -5.0200 C.3    85  HIS85       0.1656
    104  C        -17.8940  -10.3900   -5.7720 C.2    85  HIS85       0.2291
    105  O        -18.2980   -9.3100   -5.3130 O.2    85  HIS85      -0.2864
    106  CB       -16.8200  -12.1370   -4.3610 C.3    85  HIS85       0.0771
    107  CG       -17.0120  -13.0660   -3.2080 C.ar   85  HIS85       0.0820
    108  ND1      -15.9540  -13.7130   -2.6060 N.ar   85  HIS85      -0.2267
    109  CD2      -18.1210  -13.4330   -2.5250 C.ar   85  HIS85       0.1154
    110  CE1      -16.4140  -14.4510   -1.6000 C.ar   85  HIS85       0.1986
    111  NE2      -17.7300  -14.3150   -1.5640 N.ar   85  HIS85      -0.2212
    112  N        -21.0210   -8.7000   -6.6660 N.3    88  ALA88      -0.1245
    113  CA       -21.6970   -8.1190   -5.5020 C.3    88  ALA88       0.1562
    114  C        -20.9210   -6.9280   -4.9380 C.2    88  ALA88       0.2260
    115  O        -21.4160   -6.2310   -4.0410 O.2    88  ALA88      -0.2867
    116  CB       -21.8930   -9.1810   -4.3900 C.3    88  ALA88       0.0290
    117  N        -17.8680   -7.1910   -3.2980 N.3    90  VAL90      -0.1245
    118  CA       -17.0570   -7.5700   -2.1330 C.3    90  VAL90       0.1561
    119  C        -15.6270   -7.0280   -2.2670 C.2    90  VAL90       0.2260
    120  O        -14.9610   -7.1990   -3.2950 O.2    90  VAL90      -0.2867
    121  CB       -17.0390   -9.1270   -1.9450 C.3    90  VAL90       0.0252
    122  CG1      -16.1780   -9.5560   -0.7600 C.3    90  VAL90       0.0019
    123  CG2      -18.4260   -9.6260   -1.7510 C.3    90  VAL90       0.0019
    124  N        -13.6570   -6.1650    3.4820 N.3    94  HIS94      -0.1226
    125  CA       -14.7370   -6.9400    4.0940 C.3    94  HIS94       0.1752
    126  C        -14.1950   -8.1900    4.7910 C.2    94  HIS94       0.2596
    127  O        -14.8350   -8.7100    5.7030 O.2    94  HIS94      -0.2718
    128  CB       -15.7700   -7.3930    3.0630 C.3    94  HIS94       0.0759
    129  CG       -16.7470   -6.3360    2.6570 C.ar   94  HIS94       0.0818
    130  ND1      -16.9800   -6.0130    1.3370 N.ar   94  HIS94      -0.2268
    131  CD2      -17.5650   -5.5440    3.3890 C.ar   94  HIS94       0.1154
    132  CE1      -17.8930   -5.0580    1.2750 C.ar   94  HIS94       0.1986
    133  NE2      -18.2620   -4.7530    2.5080 N.ar   94  HIS94      -0.2212
    134  N        -13.0610   -8.7210    4.3270 N.am   95  TYR95      -0.1976
    135  CA       -12.6510  -10.0550    4.8000 C.3    95  TYR95       0.1639
    136  C        -12.2810  -10.1080    6.3190 C.2    95  TYR95       0.2290
    137  O        -12.5940  -11.0960    6.9820 O.2    95  TYR95      -0.2864
    138  CB       -11.4940  -10.6020    3.9170 C.3    95  TYR95       0.0560
    139  CG       -11.9880  -11.1550    2.6030 C.ar   95  TYR95      -0.0198
    140  CD1      -12.1540  -10.3180    1.4900 C.ar   95  TYR95      -0.0009
    141  CD2      -12.2980  -12.4830    2.4550 C.ar   95  TYR95      -0.0009
    142  CE1      -12.6310  -10.8040    0.2800 C.ar   95  TYR95       0.0417
    143  CE2      -12.7610  -12.9780    1.2530 C.ar   95  TYR95       0.0417
    144  CZ       -12.9270  -12.1300    0.1610 C.ar   95  TYR95       0.1957
    145  OH       -13.4240  -12.6430   -1.0050 O.3    95  TYR95      -0.2866
    146  N        -15.6750  -10.4750    8.3130 N.3    98  VAL98      -0.1245
    147  CA       -16.2400  -11.7980    8.2140 C.3    98  VAL98       0.1561
    148  C        -15.4040  -12.7280    9.1120 C.2    98  VAL98       0.2260
    149  O        -15.9720  -13.5390    9.8420 O.2    98  VAL98      -0.2867
    150  CB       -16.3070  -12.2530    6.7430 C.3    98  VAL98       0.0252
    151  CG1      -16.4270  -13.7540    6.6130 C.3    98  VAL98       0.0019
    152  CG2      -17.4880  -11.5580    6.0240 C.3    98  VAL98       0.0019
    153  N         -8.2210  -19.0100    8.3460 N.3   126  TYR126     -0.1241
    154  CA        -9.0930  -18.0520    7.6610 C.3   126  TYR126      0.1605
    155  C         -8.2700  -17.0600    6.8230 C.2   126  TYR126      0.2264
    156  O         -8.6010  -16.8110    5.6720 O.2   126  TYR126     -0.2867
    157  CB        -9.9990  -17.3000    8.6500 C.3   126  TYR126      0.0534
    158  CG       -10.8330  -16.2600    7.9350 C.ar  126  TYR126     -0.0201
    159  CD1      -11.9890  -16.6220    7.2650 C.ar  126  TYR126     -0.0009
    160  CD2      -10.4220  -14.9280    7.8790 C.ar  126  TYR126     -0.0009
    161  CE1      -12.7510  -15.6820    6.5980 C.ar  126  TYR126      0.0417
    162  CE2      -11.1630  -13.9740    7.2040 C.ar  126  TYR126      0.0417
    163  CZ       -12.3120  -14.3650    6.5430 C.ar  126  TYR126      0.1957
    164  OH       -13.0440  -13.4180    5.8520 O.3   126  TYR126     -0.2866
    165  N         -7.0130  -18.6420    3.5500 N.3   129  ILE129     -0.1231
    166  CA        -8.1350  -18.8400    2.6330 C.3   129  ILE129      0.1692
    167  C         -8.5690  -17.4830    2.0210 C.2   129  ILE129      0.2591
    168  O         -8.7080  -17.2990    0.7850 O.2   129  ILE129     -0.2718
    169  CB        -9.3020  -19.5440    3.3880 C.3   129  ILE129      0.0266
    170  CG1       -8.9130  -20.9770    3.7530 C.3   129  ILE129      0.0019
    171  CG2      -10.5960  -19.5190    2.5330 C.3   129  ILE129      0.0020
    172  CD1       -9.7960  -21.6220    4.8870 C.3   129  ILE129      0.0001
    173  N         -8.7830  -16.5120    2.8870 N.am  130  ALA130     -0.1980
    174  CA        -9.1590  -15.1740    2.4200 C.3   130  ALA130      0.1597
    175  C         -8.1510  -14.5790    1.4300 C.2   130  ALA130      0.2287
    176  O         -8.5140  -13.9230    0.4840 O.2   130  ALA130     -0.2864
    177  CB        -9.3210  -14.2210    3.5860 C.3   130  ALA130      0.0319
    178  N         -8.8870  -15.7810   -2.1240 N.3   133  PHE133     -0.1241
    179  CA       -10.0470  -15.0470   -2.6640 C.3   133  PHE133      0.1605
    180  C         -9.6860  -13.6140   -3.0360 C.2   133  PHE133      0.2264
    181  O        -10.0200  -13.1240   -4.1390 O.2   133  PHE133     -0.2867
    182  CB       -11.1910  -15.0520   -1.6630 C.3   133  PHE133      0.0534
    183  CG       -11.9850  -16.3170   -1.6600 C.ar  133  PHE133     -0.0203
    184  CD1      -11.6280  -17.3680   -0.8250 C.ar  133  PHE133     -0.0042
    185  CD2      -13.1020  -16.4530   -2.4640 C.ar  133  PHE133     -0.0042
    186  CE1      -12.3500  -18.5330   -0.7900 C.ar  133  PHE133     -0.0003
    187  CE2      -13.8490  -17.6400   -2.4460 C.ar  133  PHE133     -0.0003
    188  CZ       -13.4680  -18.6790   -1.5820 C.ar  133  PHE133     -0.0000
@<TRIPOS>BOND
     1    93    94    1
     2   100   101    1
     3   100    99    1
     4    98    99    1
     5    98    97    1
     6    94    97    1
     7    94    95    1
     8    85    86    1
     9   112   113    1
    10    95    96    2
    11    95   102   am
    12    87    86    1
    13    87    88    2
    14    86    89    1
    15   102   103    1
    16   104   105    2
    17   104   103    1
    18   113   114    1
    19   113   116    1
    20   103   106    1
    21   114   115    2
    22    89    90    1
    23    89    91    1
    24   106   107    1
    25    90    92    1
    26   181   180    2
    27   117   118    1
    28   120   119    2
    29   107   108   ar
    30   107   109   ar
    31   180   179    1
    32   179   178    1
    33   179   182    1
    34   108   110   ar
    35   109   111   ar
    36   185   187   ar
    37   185   183   ar
    38   187   188   ar
    39    52    50   am
    40   119   118    1
    41   118   121    1
    42    19    18    2
    43   121   123    1
    44   121   122    1
    45   182   183    1
    46   183   184   ar
    47   110   111   ar
    48   188   186   ar
    49    23    21    1
    50    50    51    2
    51    50    49    1
    52   145   144    1
    53    18    17    1
    54    18    24   am
    55   184   186   ar
    56    17    20    1
    57    17    16    1
    58    27    26    2
    59    26    25    1
    60    20    21    1
    61    49    48    1
    62    25    24    1
    63    25    28    1
    64    21    22    1
    65   144   142   ar
    66   144   143   ar
    67   142   140   ar
    68   176   175    2
    69    72    70    1
    70   168   167    2
    71    48    45    1
    72    71    70    1
    73   143   141   ar
    74   132   130   ar
    75   132   133   ar
    76   130   129   ar
    77    28    29    1
    78   175   174    1
    79   140   139   ar
    80    70    67    1
    81    30    29   ar
    82    30    32   ar
    83    57    54    1
    84    29    31   ar
    85    45    44    1
    86    45    46    1
    87   167   166    1
    88   167   173   am
    89    32    34   ar
    90    84    81    1
    91   174   173    1
    92   174   177    1
    93   141   139   ar
    94   133   131   ar
    95    44    37   am
    96   171   169    1
    97    31    33   ar
    98   139   138    1
    99   166   169    1
   100   166   165    1
   101    81    80    1
   102    81    82    1
   103   129   128    1
   104   129   131   ar
   105    47    46    2
   106    56    55    2
   107    67    68    1
   108    67    66    1
   109    39    40    1
   110    39    36    1
   111    34    33   ar
   112    12    11    2
   113    69    68    2
   114   128   125    1
   115    55    54    1
   116    55    58   am
   117    37    38    2
   118    37    36    1
   119    54    53    1
   120    58    59    1
   121    83    82    2
   122    59    62    1
   123    59    60    1
   124   169   170    1
   125    68    73   am
   126   124   125    1
   127    40    41    1
   128    63    62    1
   129    63    64    1
   130    63    65    1
   131   170   172    1
   132    36    35    1
   133   138   135    1
   134    11    10    1
   135   125   126    1
   136    42    41   ar
   137    61    60    2
   138    73    74    1
   139   134   126   am
   140   134   135    1
   141    41    43   ar
   142    10    13    1
   143    10     9    1
   144   126   127    2
   145   135   136    1
   146    74    75    1
   147    74    77    1
   148    13    14    1
   149    13    15    1
   150    79    77    1
   151   156   155    2
   152    76    75    2
   153   164   163    1
   154   152   150    1
   155    77    78    1
   156   136   137    2
   157   163   161   ar
   158   163   162   ar
   159   161   159   ar
   160   151   150    1
   161   150   147    1
   162   155   154    1
   163   162   160   ar
   164     8     6    1
   165   159   158   ar
   166   154   153    1
   167   154   157    1
   168   160   158   ar
   169   158   157    1
   170   147   146    1
   171   147   148    1
   172     6     7    1
   173     6     5    1
   174   148   149    2
   175     5     2    1
   176     4     3    2
   177     3     2    1
   178     2     1    1
