@<TRIPOS>MOLECULE
tmp/3tmeA01.pdb
 97 89 0 0 0
SMALL
GASTEIGER

@<TRIPOS>ATOM
      1  N         13.5130  -26.4620  -12.7050 N.3     8  LEU8       -0.1245
      2  CA        14.3530  -25.6260  -11.8340 C.3     8  LEU8        0.1561
      3  C         15.6810  -26.2570  -11.4710 C.2     8  LEU8        0.2260
      4  O         15.6840  -27.4510  -11.1140 O.2     8  LEU8       -0.2867
      5  CB        13.5820  -25.3360  -10.5330 C.3     8  LEU8        0.0270
      6  CG        14.3110  -24.4930   -9.4820 C.3     8  LEU8        0.0019
      7  CD1       14.5830  -23.1330   -9.9800 C.3     8  LEU8        0.0001
      8  CD2       13.4080  -24.4640   -8.2090 C.3     8  LEU8        0.0001
      9  N         20.4310  -19.7800   -9.0160 N.3    17  GLU17      -0.1231
     10  CA        19.2420  -20.4260   -9.5610 C.3    17  GLU17       0.1699
     11  C         19.2070  -20.3320  -11.0840 C.2    17  GLU17       0.2592
     12  O         19.3790  -19.2520  -11.6370 O.2    17  GLU17      -0.2718
     13  CB        18.0480  -19.6820   -9.0150 C.3    17  GLU17       0.0402
     14  CG        16.7840  -20.4170   -9.1120 C.3    17  GLU17       0.1161
     15  CD        15.8010  -19.9170   -8.0830 C.2    17  GLU17       0.3649
     16  OE1       14.9540  -19.0680   -8.4590 O.co2  17  GLU17      -0.2457
     17  OE2       15.9420  -20.3480   -6.8750 O.co2  17  GLU17      -0.2457
     18  N         18.8030  -21.4020  -11.7510 N.am   18  LYS18      -0.1966
     19  CA        18.6490  -21.3730  -13.2140 C.3    18  LYS18       0.1728
     20  C         17.4630  -22.2430  -13.5970 C.2    18  LYS18       0.2616
     21  O         16.8900  -22.9160  -12.7580 O.2    18  LYS18      -0.2715
     22  CB        19.9240  -21.9160  -13.8900 C.3    18  LYS18       0.0311
     23  CG        21.1630  -21.0350  -13.6470 C.3    18  LYS18       0.0038
     24  CD        22.4140  -21.6170  -14.2960 C.3    18  LYS18       0.0206
     25  CE        23.5970  -20.6460  -14.1260 C.3    18  LYS18       0.1093
     26  NZ        24.8690  -21.2370  -14.6410 N.3    18  LYS18      -0.1314
     27  N         17.0900  -22.2190  -14.8770 N.am   19  LEU19      -0.1977
     28  CA        16.1900  -23.2160  -15.4540 C.3    19  LEU19       0.1596
     29  C         16.9240  -24.0690  -16.4470 C.2    19  LEU19       0.2287
     30  O         17.8360  -23.5960  -17.1600 O.2    19  LEU19      -0.2864
     31  CB        14.9800  -22.5610  -16.1440 C.3    19  LEU19       0.0297
     32  CG        14.0610  -21.7350  -15.2750 C.3    19  LEU19       0.0022
     33  CD1       12.9010  -21.1390  -16.1130 C.3    19  LEU19       0.0001
     34  CD2       13.5700  -22.4700  -14.0510 C.3    19  LEU19       0.0001
     35  N         20.1290  -18.8970  -17.2340 N.3    27  VAL27      -0.1231
     36  CA        19.5080  -17.8320  -16.4630 C.3    27  VAL27       0.1692
     37  C         18.3430  -17.3400  -17.2800 C.2    27  VAL27       0.2592
     38  O         18.4870  -17.0570  -18.4560 O.2    27  VAL27      -0.2718
     39  CB        20.5410  -16.7120  -16.2010 C.3    27  VAL27       0.0266
     40  CG1       19.8660  -15.5490  -15.4570 C.3    27  VAL27       0.0020
     41  CG2       21.7260  -17.2670  -15.3420 C.3    27  VAL27       0.0020
     42  N         17.1730  -17.1830  -16.6540 N.am   28  PHE28      -0.1976
     43  CA        16.0560  -16.5160  -17.2690 C.3    28  PHE28       0.1639
     44  C         15.7470  -15.2100  -16.5810 C.2    28  PHE28       0.2290
     45  O         15.9590  -15.0750  -15.3700 O.2    28  PHE28      -0.2864
     46  CB        14.8100  -17.4260  -17.2340 C.3    28  PHE28       0.0560
     47  CG        14.7670  -18.3900  -18.3880 C.ar   28  PHE28      -0.0200
     48  CD1       15.5080  -19.5510  -18.4130 C.ar   28  PHE28      -0.0042
     49  CD2       13.9640  -18.0910  -19.4480 C.ar   28  PHE28      -0.0042
     50  CE1       15.3760  -20.4540  -19.4950 C.ar   28  PHE28      -0.0003
     51  CE2       13.8820  -18.9120  -20.5670 C.ar   28  PHE28      -0.0003
     52  CZ        14.5980  -20.1230  -20.5710 C.ar   28  PHE28      -0.0000
     53  N         12.5040  -12.5360  -16.3490 N.3    30  LEU30      -0.1245
     54  CA        11.0670  -12.4190  -16.6150 C.3    30  LEU30       0.1561
     55  C         10.7800  -11.2630  -17.5220 C.2    30  LEU30       0.2260
     56  O         11.2070  -10.1320  -17.2520 O.2    30  LEU30      -0.2867
     57  CB        10.3680  -12.2030  -15.2830 C.3    30  LEU30       0.0270
     58  CG        10.3420  -13.3980  -14.3360 C.3    30  LEU30       0.0019
     59  CD1        9.8040  -12.9550  -12.9100 C.3    30  LEU30       0.0001
     60  CD2        9.4410  -14.5390  -14.9640 C.3    30  LEU30       0.0001
     61  N         11.8450   -5.6400  -11.0390 N.3    35  ILE35      -0.1245
     62  CA        11.6860   -6.2690   -9.7140 C.3    35  ILE35       0.1561
     63  C         12.6610   -5.5700   -8.7840 C.2    35  ILE35       0.2260
     64  O         13.8190   -5.3720   -9.1210 O.2    35  ILE35      -0.2867
     65  CB        12.0440   -7.7850   -9.8000 C.3    35  ILE35       0.0252
     66  CG1       11.1720   -8.4630  -10.8830 C.3    35  ILE35       0.0019
     67  CG2       11.8010   -8.4430   -8.4230 C.3    35  ILE35       0.0019
     68  CD1       11.5360   -9.9480  -11.2060 C.3    35  ILE35       0.0001
     69  N          8.8770  -15.3250   -5.6210 N.3    50  THR50      -0.1218
     70  CA         9.2360  -16.0010   -6.8520 C.3    50  THR50       0.1862
     71  C          9.7530  -17.3830   -6.4800 C.2    50  THR50       0.2287
     72  O          9.3980  -18.3970   -7.1040 O.2    50  THR50      -0.2866
     73  CB        10.3000  -15.1950   -7.5580 C.3    50  THR50       0.1770
     74  OG1        9.7680  -13.8990   -7.8460 O.3    50  THR50      -0.2211
     75  CG2       10.6770  -15.8430   -8.8850 C.3    50  THR50       0.0375
     76  N          8.2460  -21.0770   -7.8180 N.3    54  VAL54      -0.1245
     77  CA         8.9430  -21.9830   -8.7090 C.3    54  VAL54       0.1561
     78  C          9.3670  -23.2830   -8.0270 C.2    54  VAL54       0.2260
     79  O          9.3160  -24.3740   -8.6050 O.2    54  VAL54      -0.2867
     80  CB        10.1570  -21.2880   -9.3780 C.3    54  VAL54       0.0252
     81  CG1        9.7180  -20.1520  -10.3300 C.3    54  VAL54       0.0019
     82  CG2       11.2700  -20.8980   -8.3500 C.3    54  VAL54       0.0019
     83  N          7.1170  -17.0610  -17.4890 N.3    80  ILE80      -0.1245
     84  CA         7.3790  -18.3230  -16.7670 C.3    80  ILE80       0.1561
     85  C          6.1410  -18.6940  -16.0490 C.2    80  ILE80       0.2260
     86  O          5.5240  -17.8470  -15.3930 O.2    80  ILE80      -0.2867
     87  CB         8.5810  -18.1550  -15.8370 C.3    80  ILE80       0.0252
     88  CG1        9.7960  -17.7160  -16.6300 C.3    80  ILE80       0.0019
     89  CG2        8.8140  -19.4750  -15.0350 C.3    80  ILE80       0.0019
     90  CD1       10.4600  -18.7720  -17.4820 C.3    80  ILE80       0.0001
     91  N          4.2350  -16.4510  -13.4380 N.3    87  VAL87      -0.1245
     92  CA         4.9950  -15.8130  -12.3780 C.3    87  VAL87       0.1561
     93  C          5.0520  -14.2980  -12.6540 C.2    87  VAL87       0.2260
     94  O          4.8910  -13.4980  -11.7090 O.2    87  VAL87      -0.2867
     95  CB         6.4320  -16.3920  -12.3190 C.3    87  VAL87       0.0252
     96  CG1        7.2790  -15.6190  -11.3120 C.3    87  VAL87       0.0019
     97  CG2        6.3890  -17.8550  -12.0010 C.3    87  VAL87       0.0019
@<TRIPOS>BOND
     1    52    51   ar
     2    52    50   ar
     3    51    49   ar
     4    50    48   ar
     5    49    47   ar
     6    38    37    2
     7    48    47   ar
     8    47    46    1
     9    55    56    2
    10    55    54    1
    11    83    84    1
    12    90    88    1
    13    37    42   am
    14    37    36    1
    15    43    46    1
    16    43    42    1
    17    43    44    1
    18    35    36    1
    19    30    29    2
    20    84    85    1
    21    84    87    1
    22    88    87    1
    23    54    53    1
    24    54    57    1
    25    44    45    2
    26    36    39    1
    27    29    28    1
    28    39    40    1
    29    39    41    1
    30    31    28    1
    31    31    32    1
    32    33    32    1
    33    85    86    2
    34    87    89    1
    35    28    27    1
    36    57    58    1
    37    32    34    1
    38    60    58    1
    39    27    20   am
    40    26    25    1
    41    58    59    1
    42    24    25    1
    43    24    23    1
    44    22    23    1
    45    22    19    1
    46    20    19    1
    47    20    21    2
    48    91    92    1
    49    19    18    1
    50     1     2    1
    51    93    92    1
    52    93    94    2
    53    92    95    1
    54    95    97    1
    55    95    96    1
    56     2     3    1
    57     2     5    1
    58    18    11   am
    59    12    11    2
    60     3     4    2
    61    68    66    1
    62    11    10    1
    63    61    62    1
    64    66    65    1
    65     5     6    1
    66    81    80    1
    67     7     6    1
    68    65    62    1
    69    65    67    1
    70    62    63    1
    71    10     9    1
    72    10    13    1
    73     6     8    1
    74    80    77    1
    75    80    82    1
    76    64    63    2
    77    14    13    1
    78    14    15    1
    79    75    73    1
    80    77    78    1
    81    77    76    1
    82    79    78    2
    83    16    15   ar
    84    15    17   ar
    85    74    73    1
    86    73    70    1
    87    72    71    2
    88    70    71    1
    89    70    69    1
