@<TRIPOS>MOLECULE
tmp/3tmgA00.pdb
 88 87 0 0 0
SMALL
GASTEIGER

@<TRIPOS>ATOM
      1  N          0.2350    9.1710  -44.8250 N.3    11  TRP11      -0.1241
      2  CA         0.3150    8.3560  -43.5920 C.3    11  TRP11       0.1605
      3  C         -1.0980    8.2940  -43.0540 C.2    11  TRP11       0.2264
      4  O         -1.8980    9.2060  -43.2930 O.2    11  TRP11      -0.2867
      5  CB         1.1930    9.0110  -42.5310 C.3    11  TRP11       0.0550
      6  CG         2.5510    9.4490  -43.0460 C.ar   11  TRP11       0.0003
      7  CD1        3.4900    8.6730  -43.6750 C.ar   11  TRP11       0.0946
      8  CD2        3.1380   10.8200  -43.0290 C.ar   11  TRP11       0.0152
      9  NE1        4.6090    9.4210  -44.0270 N.ar   11  TRP11      -0.2442
     10  CE2        4.4510   10.7100  -43.6650 C.ar   11  TRP11       0.0810
     11  CE3        2.7260   12.0540  -42.5350 C.ar   11  TRP11       0.0012
     12  CZ2        5.3040   11.8040  -43.8130 C.ar   11  TRP11       0.0191
     13  CZ3        3.5740   13.1720  -42.7010 C.ar   11  TRP11       0.0001
     14  CH2        4.8540   13.0470  -43.3170 C.ar   11  TRP11       0.0015
     15  N         -2.4690   11.5210  -40.9270 N.3    14  GLU14      -0.1245
     16  CA        -2.5300   12.7340  -41.7450 C.3    14  GLU14       0.1567
     17  C         -3.5580   12.6360  -42.8780 C.2    14  GLU14       0.2260
     18  O         -4.2100   13.6120  -43.2090 O.2    14  GLU14      -0.2867
     19  CB        -1.1200   13.0610  -42.3100 C.3    14  GLU14       0.0388
     20  CG        -0.2660   13.6800  -41.1740 C.3    14  GLU14       0.1160
     21  CD        -0.0420   12.8010  -39.9200 C.2    14  GLU14       0.3649
     22  OE1        0.3300   11.5790  -40.0860 O.co2  14  GLU14      -0.2457
     23  OE2       -0.1470   13.3440  -38.7390 O.co2  14  GLU14      -0.2457
     24  N          5.0930   17.6730  -38.3130 N.3    58  TRP58      -0.1241
     25  CA         5.5240   16.9870  -37.0570 C.3    58  TRP58       0.1605
     26  C          6.7140   17.7010  -36.5280 C.2    58  TRP58       0.2264
     27  O          7.8200   17.5940  -37.0840 O.2    58  TRP58      -0.2867
     28  CB         5.8510   15.5160  -37.3030 C.3    58  TRP58       0.0550
     29  CG         4.6180   14.6520  -37.2600 C.ar   58  TRP58       0.0003
     30  CD1        3.4690   14.7390  -38.0610 C.ar   58  TRP58       0.0946
     31  CD2        4.4270   13.4700  -36.4280 C.ar   58  TRP58       0.0152
     32  NE1        2.5640   13.7470  -37.7040 N.ar   58  TRP58      -0.2442
     33  CE2        3.0960   12.9620  -36.7210 C.ar   58  TRP58       0.0810
     34  CE3        5.2190   12.8120  -35.4600 C.ar   58  TRP58       0.0012
     35  CZ2        2.5970   11.8250  -36.0980 C.ar   58  TRP58       0.0191
     36  CZ3        4.6950   11.6840  -34.8320 C.ar   58  TRP58       0.0001
     37  CH2        3.4100   11.2050  -35.1530 C.ar   58  TRP58       0.0015
     38  N         10.7380   15.7000  -35.8610 N.3    62  ALA62      -0.1231
     39  CA        10.6030   14.8790  -37.0680 C.3    62  ALA62       0.1694
     40  C         10.8730   15.7090  -38.3030 C.2    62  ALA62       0.2592
     41  O         11.6330   15.2810  -39.1820 O.2    62  ALA62      -0.2718
     42  CB         9.2330   14.2160  -37.1400 C.3    62  ALA62       0.0304
     43  N         10.2650   16.8970  -38.3900 N.am   63  ASP63      -0.1974
     44  CA        10.3560   17.6800  -39.6230 C.3    63  ASP63       0.1709
     45  C         11.3860   18.7980  -39.6230 C.2    63  ASP63       0.2293
     46  O         11.3360   19.6550  -40.4980 O.2    63  ASP63      -0.2864
     47  CB         8.9890   18.2680  -40.0370 C.3    63  ASP63       0.1436
     48  CG         7.9790   17.2070  -40.4280 C.2    63  ASP63       0.3671
     49  OD1        8.2920   15.9700  -40.4130 O.co2  63  ASP63      -0.2456
     50  OD2        6.8370   17.6280  -40.7070 O.co2  63  ASP63      -0.2456
     51  N          9.9950    3.5240  -43.4300 N.3   116  ILE116     -0.1245
     52  CA         8.8330    4.0140  -44.1900 C.3   116  ILE116      0.1561
     53  C          9.3360    4.7960  -45.4330 C.2   116  ILE116      0.2260
     54  O         10.4350    4.5000  -45.9180 O.2   116  ILE116     -0.2867
     55  CB         7.8470    4.8190  -43.2950 C.3   116  ILE116      0.0252
     56  CG1        8.5390    6.0620  -42.6880 C.3   116  ILE116      0.0019
     57  CG2        7.2690    3.9470  -42.1710 C.3   116  ILE116      0.0019
     58  CD1        7.5800    7.0380  -42.0120 C.3   116  ILE116      0.0001
     59  N         10.5550   11.0400  -45.3810 N.3   120  ALA120     -0.1231
     60  CA         9.6660   11.3210  -44.2700 C.3   120  ALA120      0.1694
     61  C         10.5210   11.8230  -43.1100 C.2   120  ALA120      0.2593
     62  O         11.6180   11.3360  -42.9000 O.2   120  ALA120     -0.2718
     63  CB         8.8900   10.0440  -43.8350 C.3   120  ALA120      0.0304
     64  N         10.0080   12.7670  -42.3320 N.am  121  GLY121     -0.1942
     65  CA        10.7820   13.2690  -41.2020 C.3   121  GLY121      0.2014
     66  C         11.2480   12.1310  -40.3010 C.2   121  GLY121      0.2639
     67  O         12.4310   12.0400  -39.9440 O.2   121  GLY121     -0.2714
     68  N         10.3250   11.2430  -39.9590 N.am  122  THR122     -0.1950
     69  CA        10.6820   10.1320  -39.0880 C.3   122  THR122      0.1897
     70  C         11.8090    9.2610  -39.7000 C.2   122  THR122      0.2313
     71  O         12.6990    8.7780  -38.9980 O.2   122  THR122     -0.2863
     72  CB         9.4560    9.2800  -38.7310 C.3   122  THR122      0.1794
     73  OG1        8.6090   10.0520  -37.8590 O.3   122  THR122     -0.2208
     74  CG2        9.9000    8.0240  -37.9510 C.3   122  THR122      0.0378
     75  N          5.4210    5.2300  -34.3350 N.3   168  TRP168     -0.1241
     76  CA         5.0980    6.4840  -33.7070 C.3   168  TRP168      0.1605
     77  C          3.7630    6.3160  -33.0850 C.2   168  TRP168      0.2264
     78  O          3.0230    5.3410  -33.4050 O.2   168  TRP168     -0.2867
     79  CB         5.0960    7.6470  -34.7360 C.3   168  TRP168      0.0550
     80  CG         4.1730    7.3900  -35.9190 C.ar  168  TRP168      0.0003
     81  CD1        2.8040    7.6690  -36.0440 C.ar  168  TRP168      0.0946
     82  CD2        4.5500    6.7140  -37.1460 C.ar  168  TRP168      0.0152
     83  NE1        2.3310    7.2590  -37.2810 N.ar  168  TRP168     -0.2442
     84  CE2        3.3370    6.6470  -37.9770 C.ar  168  TRP168      0.0810
     85  CE3        5.7590    6.1920  -37.6390 C.ar  168  TRP168      0.0012
     86  CZ2        3.3500    6.0820  -39.2470 C.ar  168  TRP168      0.0191
     87  CZ3        5.7610    5.6050  -38.9130 C.ar  168  TRP168      0.0001
     88  CH2        4.5870    5.5590  -39.7060 C.ar  168  TRP168      0.0015
@<TRIPOS>BOND
     1    54    53    2
     2    53    52    1
     3    59    60    1
     4     1     2    1
     5    60    63    1
     6    60    61    1
     7    52    51    1
     8    52    55    1
     9     9     7   ar
    10     9    10   ar
    11    12    10   ar
    12    12    14   ar
    13     7     6   ar
    14    10     8   ar
    15     2     3    1
    16     2     5    1
    17    14    13   ar
    18    55    56    1
    19    55    57    1
    20     4     3    2
    21    18    17    2
    22    61    62    2
    23    61    64   am
    24     6     8   ar
    25     6     5    1
    26     8    11   ar
    27    17    16    1
    28    13    11   ar
    29    56    58    1
    30    64    65    1
    31    19    16    1
    32    19    20    1
    33    16    15    1
    34    65    66    1
    35    20    21    1
    36    50    48   ar
    37    46    45    2
    38    48    49   ar
    39    48    47    1
    40    66    68   am
    41    66    67    2
    42    22    21   ar
    43    47    44    1
    44    68    69    1
    45    21    23   ar
    46    88    86   ar
    47    88    87   ar
    48    70    69    1
    49    70    71    2
    50    45    44    1
    51    44    43    1
    52    86    84   ar
    53    41    40    2
    54    69    72    1
    55    87    85   ar
    56    72    74    1
    57    72    73    1
    58    43    40   am
    59    24    25    1
    60    40    39    1
    61    30    32   ar
    62    30    29   ar
    63    84    83   ar
    64    84    82   ar
    65    32    33   ar
    66    85    82   ar
    67    28    29    1
    68    28    25    1
    69    83    81   ar
    70    29    31   ar
    71    82    80   ar
    72    42    39    1
    73    27    26    2
    74    39    38    1
    75    25    26    1
    76    33    31   ar
    77    33    35   ar
    78    31    34   ar
    79    35    37   ar
    80    81    80   ar
    81    80    79    1
    82    34    36   ar
    83    37    36   ar
    84    79    76    1
    85    75    76    1
    86    76    77    1
    87    78    77    2
