@<TRIPOS>MOLECULE
tmp/3tmnA01.pdb
 103 99 0 0 0
SMALL
GASTEIGER

@<TRIPOS>ATOM
      1  N         45.2540   13.3690    1.3960 N.3   111  ASN111     -0.1225
      2  CA        46.6730   13.4940    1.7250 C.3   111  ASN111      0.1785
      3  C         47.4730   14.2680    0.6860 C.2   111  ASN111      0.2597
      4  O         48.5470   13.8290    0.3520 O.2   111  ASN111     -0.2718
      5  CB        47.3230   12.0660    1.9000 C.3   111  ASN111      0.1169
      6  CG        46.9130   11.3250    3.1390 C.2   111  ASN111      0.2627
      7  OD1       46.8260   11.8690    4.2400 O.2   111  ASN111     -0.2716
      8  ND2       46.7150   10.0270    2.9660 N.am  111  ASN111     -0.0877
      9  N         47.0030   15.3660    0.1080 N.am  112  ASN112     -0.1960
     10  CA        47.7760   16.1140   -0.8510 C.3   112  ASN112      0.1819
     11  C         47.3150   17.5910   -0.8040 C.2   112  ASN112      0.2621
     12  O         46.4000   17.9530    0.0060 O.2   112  ASN112     -0.2715
     13  CB        47.7200   15.5160   -2.2660 C.3   112  ASN112      0.1195
     14  CG        49.0400   15.5660   -3.0440 C.2   112  ASN112      0.2630
     15  OD1       49.8490   16.4780   -2.9070 O.2   112  ASN112     -0.2716
     16  ND2       49.2580   14.5970   -3.9260 N.am  112  ASN112     -0.0877
     17  N         47.9700   18.4010   -1.6350 N.am  113  ALA113     -0.1977
     18  CA        47.7210   19.8150   -1.7980 C.3   113  ALA113      0.1597
     19  C         48.1400   19.9730   -3.2340 C.2   113  ALA113      0.2287
     20  O         48.9360   19.1590   -3.6870 O.2   113  ALA113     -0.2864
     21  CB        48.5370   20.7290   -0.8990 C.3   113  ALA113      0.0319
     22  N         49.3870    9.7280    7.8030 N.3   129  THR129     -0.1203
     23  CA        50.4250    9.9210    6.8280 C.3   129  THR129      0.1994
     24  C         50.6550   11.4570    6.8640 C.2   129  THR129      0.2617
     25  O         51.7570   11.9470    6.6490 O.2   129  THR129     -0.2717
     26  CB        49.9690    9.5140    5.3900 C.3   129  THR129      0.1784
     27  OG1       49.2850    8.2700    5.3610 O.3   129  THR129     -0.2211
     28  CG2       51.0880    9.6880    4.3440 C.3   129  THR129      0.0376
     29  N         49.5830   12.2420    7.0790 N.am  130  PHE130     -0.1975
     30  CA        49.6990   13.7050    7.0550 C.3   130  PHE130      0.1639
     31  C         48.6890   14.3040    7.9960 C.2   130  PHE130      0.2290
     32  O         47.6800   13.6970    8.3360 O.2   130  PHE130     -0.2864
     33  CB        49.2960   14.2510    5.6620 C.3   130  PHE130      0.0560
     34  CG        50.3520   14.2800    4.5960 C.ar  130  PHE130     -0.0200
     35  CD1       50.4030   13.3490    3.5590 C.ar  130  PHE130     -0.0042
     36  CD2       51.3490   15.2820    4.6020 C.ar  130  PHE130     -0.0042
     37  CE1       51.3700   13.3690    2.5520 C.ar  130  PHE130     -0.0003
     38  CE2       52.3250   15.3070    3.6210 C.ar  130  PHE130     -0.0003
     39  CZ        52.3290   14.3710    2.5860 C.ar  130  PHE130     -0.0000
     40  N         47.6390   19.8450    5.2480 N.3   133  LEU133     -0.1245
     41  CA        48.8030   20.2930    4.4980 C.3   133  LEU133      0.1561
     42  C         49.2320   21.7560    4.5300 C.2   133  LEU133      0.2260
     43  O         50.4090   22.0520    4.2680 O.2   133  LEU133     -0.2867
     44  CB        48.7960   19.6710    3.0910 C.3   133  LEU133      0.0270
     45  CG        49.0710   18.1630    3.2090 C.3   133  LEU133      0.0019
     46  CD1       47.8560   17.2950    3.5050 C.3   133  LEU133      0.0001
     47  CD2       49.7880   17.8310    1.9470 C.3   133  LEU133      0.0001
     48  N         55.4850   25.9370   -2.1750 N.3   142  HIS142     -0.1226
     49  CA        55.7190   25.0060   -3.3170 C.3   142  HIS142      0.1752
     50  C         54.5700   25.1970   -4.3060 C.2   142  HIS142      0.2595
     51  O         54.7350   25.3360   -5.5220 O.2   142  HIS142     -0.2718
     52  CB        55.8480   23.5560   -2.7370 C.3   142  HIS142      0.0759
     53  CG        55.8890   22.4800   -3.7960 C.ar  142  HIS142      0.0818
     54  ND1       57.0060   21.7030   -4.0800 N.ar  142  HIS142     -0.2268
     55  CD2       54.9010   22.1060   -4.6310 C.ar  142  HIS142      0.1154
     56  CE1       56.7150   20.9880   -5.1580 C.ar  142  HIS142      0.1986
     57  NE2       55.4360   21.1670   -5.4920 N.ar  142  HIS142     -0.2212
     58  N         53.3490   25.1390   -3.7560 N.am  143  GLU143     -0.1979
     59  CA        52.1260   25.2720   -4.5310 C.3   143  GLU143      0.1602
     60  C         51.9100   26.6080   -5.2510 C.2   143  GLU143      0.2287
     61  O         51.6030   26.6200   -6.4710 O.2   143  GLU143     -0.2864
     62  CB        50.9050   24.9190   -3.7000 C.3   143  GLU143      0.0415
     63  CG        50.7350   23.4260   -3.1990 C.3   143  GLU143      0.1163
     64  CD        51.1310   22.3320   -4.1560 C.2   143  GLU143      0.3649
     65  OE1       51.1320   22.3610   -5.4020 O.co2 143  GLU143     -0.2457
     66  OE2       51.2860   21.2570   -3.4490 O.co2 143  GLU143     -0.2457
     67  N         59.0780   14.3400    3.1330 N.3   202  LEU202     -0.1231
     68  CA        58.6310   13.7750    1.8620 C.3   202  LEU202      0.1693
     69  C         59.7410   13.5530    0.8240 C.2   202  LEU202      0.2591
     70  O         59.7320   12.5990    0.0250 O.2   202  LEU202     -0.2718
     71  CB        57.6140   14.8240    1.3260 C.3   202  LEU202      0.0284
     72  CG        56.4980   14.4390    0.4380 C.3   202  LEU202      0.0019
     73  CD1       55.7930   13.3000    1.1210 C.3   202  LEU202      0.0001
     74  CD2       55.4930   15.5890    0.5150 C.3   202  LEU202      0.0001
     75  N         60.6380   14.5380    0.7590 N.am  203  ARG203     -0.1980
     76  CA        61.7680   14.5890   -0.1310 C.3   203  ARG203      0.1597
     77  C         62.8740   15.3470    0.5620 C.2   203  ARG203      0.2287
     78  O         62.5680   16.1540    1.4620 O.2   203  ARG203     -0.2864
     79  CB        61.4850   15.4480   -1.3220 C.3   203  ARG203      0.0334
     80  CG        60.5840   14.7460   -2.2840 C.3   203  ARG203      0.0492
     81  CD        60.4800   15.5430   -3.5910 C.3   203  ARG203      0.2205
     82  NE        59.6330   16.7590   -3.5600 N.pl3 203  ARG203     -0.0865
     83  CZ        58.2670   16.8310   -3.5040 C.cat 203  ARG203      0.5346
     84  NH1       57.4890   15.7660   -3.4000 N.pl3 203  ARG203      0.1354
     85  NH2       57.6410   18.0110   -3.5660 N.pl3 203  ARG203      0.1354
     86  N         54.0650    8.6950  -12.3970 N.3   226  ASP226     -0.1239
     87  CA        54.2290   10.0530  -11.9050 C.3   226  ASP226      0.1674
     88  C         54.5910   10.9800  -13.0120 C.2   226  ASP226      0.2266
     89  O         55.5090   11.7850  -12.9110 O.2   226  ASP226     -0.2867
     90  CB        55.4090   10.0390  -10.9430 C.3   226  ASP226      0.1410
     91  CG        55.5360   11.3620  -10.2440 C.2   226  ASP226      0.3668
     92  OD1       54.6060   12.0960  -10.0380 O.co2 226  ASP226     -0.2456
     93  OD2       56.7370   11.6180   -9.8500 O.co2 226  ASP226     -0.2456
     94  N         58.1140   14.0090   -9.8660 N.3   231  HIS231     -0.1241
     95  CA        58.4560   14.1250   -8.4470 C.3   231  HIS231      0.1621
     96  C         59.6890   13.2500   -8.0860 C.2   231  HIS231      0.2264
     97  O         60.1970   13.3160   -6.9570 O.2   231  HIS231     -0.2867
     98  CB        57.3540   13.7700   -7.4250 C.3   231  HIS231      0.0745
     99  CG        56.1610   14.6470   -7.5420 C.ar  231  HIS231      0.0817
    100  ND1       55.1380   14.3030   -8.3990 N.ar  231  HIS231     -0.2268
    101  CD2       55.8530   15.7980   -6.9110 C.ar  231  HIS231      0.1154
    102  CE1       54.2080   15.2420   -8.3050 C.ar  231  HIS231      0.1986
    103  NE2       54.5880   16.1190   -7.3910 N.ar  231  HIS231     -0.2212
@<TRIPOS>BOND
     1    88    89    2
     2    88    87    1
     3    86    87    1
     4    87    90    1
     5    90    91    1
     6    91    92   ar
     7    91    93   ar
     8    94    95    1
     9    95    96    1
    10    95    98    1
    11   100   102   ar
    12   100    99   ar
    13   102   103   ar
    14    96    97    2
    15    99    98    1
    16    99   101   ar
    17   103   101   ar
    18    61    60    2
    19    51    50    2
    20    57    56   ar
    21    57    55   ar
    22    65    64   ar
    23    60    59    1
    24    56    54   ar
    25    55    53   ar
    26    59    58    1
    27    59    62    1
    28    50    58   am
    29    50    49    1
    30    64    66   ar
    31    64    63    1
    32    54    53   ar
    33    16    14   am
    34    53    52    1
    35    62    63    1
    36    20    19    2
    37    81    82    1
    38    81    80    1
    39    85    83    1
    40    82    83    2
    41    83    84    1
    42    49    52    1
    43    49    48    1
    44    19    18    1
    45    14    15    2
    46    14    13    1
    47    80    79    1
    48    13    10    1
    49    18    17    1
    50    18    21    1
    51    17    11   am
    52    79    76    1
    53    10    11    1
    54    10     9    1
    55    11    12    2
    56    76    77    1
    57    76    75    1
    58    70    69    2
    59     9     3   am
    60     4     3    2
    61    72    74    1
    62    72    73    1
    63    72    71    1
    64    77    78    2
    65     3     2    1
    66    75    69   am
    67    69    68    1
    68    71    68    1
    69     1     2    1
    70     2     5    1
    71    68    67    1
    72     5     6    1
    73    47    45    1
    74    37    39   ar
    75    37    35   ar
    76    39    38   ar
    77     8     6   am
    78    44    45    1
    79    44    41    1
    80     6     7    2
    81    45    46    1
    82    35    34   ar
    83    38    36   ar
    84    43    42    2
    85    28    26    1
    86    41    42    1
    87    41    40    1
    88    34    36   ar
    89    34    33    1
    90    27    26    1
    91    26    23    1
    92    33    30    1
    93    25    24    2
    94    23    24    1
    95    23    22    1
    96    24    29   am
    97    30    29    1
    98    30    31    1
    99    31    32    2
