@<TRIPOS>MOLECULE
tmp/3tmzA03.pdb
 177 164 0 0 0
SMALL
GASTEIGER

@<TRIPOS>ATOM
      1  N         19.8470    7.4570   -5.1000 N.3    16  LEU16      -0.1245
      2  CA        20.0140    6.0810   -5.6270 C.3    16  LEU16       0.1561
      3  C         19.6160    5.9050   -7.0860 C.2    16  LEU16       0.2260
      4  O         20.3110    5.2310   -7.8420 O.2    16  LEU16      -0.2867
      5  CB        19.2730    5.0530   -4.7770 C.3    16  LEU16       0.0270
      6  CG        19.8000    4.8900   -3.3510 C.3    16  LEU16       0.0019
      7  CD1       18.8600    4.0450   -2.5370 C.3    16  LEU16       0.0001
      8  CD2       21.2240    4.3240   -3.3230 C.3    16  LEU16       0.0001
      9  N         22.4170    6.7200   -9.0660 N.3    19  MET19      -0.1230
     10  CA        23.6280    5.9530   -8.7970 C.3    19  MET19       0.1702
     11  C         23.5960    4.6060   -9.5100 C.2    19  MET19       0.2592
     12  O         22.5780    4.2200  -10.0850 O.2    19  MET19      -0.2718
     13  CB        23.8090    5.7470   -7.2920 C.3    19  MET19       0.0401
     14  CG        24.0020    7.0350   -6.5080 C.3    19  MET19       0.0596
     15  SD        25.5160    7.9030   -6.9590 S.3    19  MET19      -0.1393
     16  CE        25.4250    9.3270   -5.8770 C.3    19  MET19       0.0692
     17  N         24.7180    3.8940   -9.4690 N.am   20  ASP20      -0.1974
     18  CA        24.8210    2.5880  -10.1100 C.3    20  ASP20       0.1709
     19  C         24.8540    1.4680   -9.0760 C.2    20  ASP20       0.2293
     20  O         24.5190    0.3220   -9.3770 O.2    20  ASP20      -0.2864
     21  CB        26.0660    2.5230  -10.9960 C.3    20  ASP20       0.1436
     22  CG        25.7430    2.6920  -12.4680 C.2    20  ASP20       0.3671
     23  OD1       24.6150    2.3440  -12.8750 O.co2  20  ASP20      -0.2456
     24  OD2       26.6180    3.1750  -13.2180 O.co2  20  ASP20      -0.2456
     25  N         29.3790    1.6210   -7.6120 N.3    23  LEU23      -0.1245
     26  CA        29.3730    2.8340   -6.8050 C.3    23  LEU23       0.1561
     27  C         30.6800    3.6230   -6.9410 C.2    23  LEU23       0.2260
     28  O         30.6660    4.8530   -6.9260 O.2    23  LEU23      -0.2867
     29  CB        29.1160    2.4950   -5.3350 C.3    23  LEU23       0.0270
     30  CG        27.8000    3.0050   -4.7420 C.3    23  LEU23       0.0019
     31  CD1       27.9350    3.2190   -3.2410 C.3    23  LEU23       0.0001
     32  CD2       27.3600    4.2860   -5.4330 C.3    23  LEU23       0.0001
     33  N         22.2400    8.2040    0.3870 N.3    42  LEU42      -0.1245
     34  CA        22.1120    6.7650    0.0760 C.3    42  LEU42       0.1561
     35  C         20.9570    6.2460    0.9360 C.2    42  LEU42       0.2260
     36  O         21.1510    5.8220    2.0850 O.2    42  LEU42      -0.2867
     37  CB        23.4460    5.9670    0.2100 C.3    42  LEU42       0.0270
     38  CG        24.6050    6.3660   -0.7610 C.3    42  LEU42       0.0019
     39  CD1       25.9950    5.8190   -0.3720 C.3    42  LEU42       0.0001
     40  CD2       24.3420    6.1360   -2.2970 C.3    42  LEU42       0.0001
     41  N         19.2260    9.2310    4.5520 N.3    45  ARG45      -0.1245
     42  CA        20.3280    9.8860    5.2530 C.3    45  ARG45       0.1563
     43  C         21.4450   10.3640    4.3210 C.2    45  ARG45       0.2260
     44  O         21.6720    9.7960    3.2530 O.2    45  ARG45      -0.2867
     45  CB        20.9050    8.9550    6.3230 C.3    45  ARG45       0.0307
     46  CG        19.8910    8.4810    7.3910 C.3    45  ARG45       0.0489
     47  CD        19.0570    9.6330    8.0250 C.3    45  ARG45       0.2205
     48  NE        19.8970   10.7080    8.5610 N.pl3  45  ARG45      -0.0865
     49  CZ        20.4830   10.7000    9.7610 C.cat  45  ARG45       0.5346
     50  NH1       20.3160    9.6770   10.6000 N.pl3  45  ARG45       0.1354
     51  NH2       21.3210   11.6780   10.0900 N.pl3  45  ARG45       0.1354
     52  N         25.4600   11.1920    3.4250 N.3    47  VAL47      -0.1245
     53  CA        26.7550   10.6410    3.6840 C.3    47  VAL47       0.1561
     54  C         27.7760   11.5430    3.0790 C.2    47  VAL47       0.2260
     55  O         27.6680   11.9120    1.9520 O.2    47  VAL47      -0.2867
     56  CB        26.8950    9.2740    3.0760 C.3    47  VAL47       0.0252
     57  CG1       28.2550    8.7510    3.3110 C.3    47  VAL47       0.0019
     58  CG2       25.8820    8.3560    3.6300 C.3    47  VAL47       0.0019
     59  N         27.4320    2.3460   11.6880 N.3    72  LYS72      -0.1231
     60  CA        26.6210    1.1310   11.6850 C.3    72  LYS72       0.1693
     61  C         26.4950    0.4230   10.2900 C.2    72  LYS72       0.2591
     62  O         26.2530    1.0720    9.2620 O.2    72  LYS72      -0.2718
     63  CB        25.2440    1.5050   12.1800 C.3    72  LYS72       0.0285
     64  CG        24.5260    0.3940   12.8190 C.3    72  LYS72       0.0035
     65  CD        23.0910    0.8140   13.1450 C.3    72  LYS72       0.0206
     66  CE        22.9920    1.5560   14.4650 C.3    72  LYS72       0.1093
     67  NZ        21.5540    1.6560   14.9260 N.3    72  LYS72      -0.1314
     68  N         26.6280   -0.8950   10.2750 N.am   73  ILE73      -0.1980
     69  CA        26.3250   -1.7220    9.1250 C.3    73  ILE73       0.1595
     70  C         25.1550   -2.5900    9.5270 C.2    73  ILE73       0.2287
     71  O         25.3260   -3.5280   10.2230 O.2    73  ILE73      -0.2864
     72  CB        27.5000   -2.6200    8.8000 C.3    73  ILE73       0.0276
     73  CG1       28.7690   -1.8090    8.5970 C.3    73  ILE73       0.0022
     74  CG2       27.1040   -3.4660    7.6160 C.3    73  ILE73       0.0022
     75  CD1       28.9040   -1.2170    7.2990 C.3    73  ILE73       0.0001
     76  N         23.2650   -4.9200    8.4640 N.3    75  VAL75      -0.1245
     77  CA        23.1940   -6.3360    8.1330 C.3    75  VAL75       0.1561
     78  C         23.8000   -7.1860    9.2420 C.2    75  VAL75       0.2260
     79  O         23.4010   -8.3340    9.4420 O.2    75  VAL75      -0.2867
     80  CB        23.9200   -6.6430    6.8100 C.3    75  VAL75       0.0252
     81  CG1       25.4130   -6.3860    6.9520 C.3    75  VAL75       0.0019
     82  CG2       23.6580   -8.0790    6.3820 C.3    75  VAL75       0.0019
     83  N         27.0340  -10.7400    2.9830 N.3   180  ILE180     -0.1231
     84  CA        26.9830   -9.3390    3.4150 C.3   180  ILE180      0.1692
     85  C         27.2610   -8.4280    2.1970 C.2   180  ILE180      0.2592
     86  O         26.8300   -7.2900    2.1710 O.2   180  ILE180     -0.2718
     87  CB        27.9930   -9.0500    4.5890 C.3   180  ILE180      0.0266
     88  CG1       27.4610   -9.5450    5.9300 C.3   180  ILE180      0.0019
     89  CG2       28.3590   -7.5850    4.6740 C.3   180  ILE180      0.0020
     90  CD1       28.5440  -10.1200    6.8180 C.3   180  ILE180      0.0001
     91  N         27.9250   -8.9690    1.1970 N.am  181  SER181     -0.1952
     92  CA        28.3300   -8.2130    0.0390 C.3   181  SER181      0.1924
     93  C         27.4950   -8.5130   -1.1770 C.2   181  SER181      0.2314
     94  O         27.9170   -8.3040   -2.2900 O.2   181  SER181     -0.2863
     95  CB        29.7710   -8.5300   -0.2780 C.3   181  SER181      0.2116
     96  OG        30.1520   -9.5510   -1.0700 O.3   181  SER181     -0.2180
     97  N         21.7600   -7.7410    0.4490 N.3   185  SER185     -0.1202
     98  CA        22.1750   -7.1140    1.7170 C.3   185  SER185      0.2020
     99  C         22.4340   -5.6190    1.5550 C.2   185  SER185      0.2618
    100  O         22.1260   -4.8270    2.4610 O.2   185  SER185     -0.2717
    101  CB        23.3750   -7.8360    2.3320 C.3   185  SER185      0.2103
    102  OG        22.9420   -8.9110    3.1610 O.3   185  SER185     -0.2182
    103  N         22.9270   -5.1220    0.4890 N.am  186  GLN186     -0.1979
    104  CA        23.0520   -3.7420    0.0880 C.3   186  GLN186      0.1601
    105  C         21.7330   -3.0350    0.2700 C.2   186  GLN186      0.2287
    106  O         21.6650   -2.0480    0.9440 O.2   186  GLN186     -0.2864
    107  CB        23.5490   -3.6370   -1.3460 C.3   186  GLN186      0.0394
    108  CG        24.9850   -4.0140   -1.5020 C.3   186  GLN186      0.0908
    109  CD        25.4220   -4.0960   -2.9280 C.2   186  GLN186      0.2608
    110  OE1       24.9560   -3.3620   -3.7550 O.2   186  GLN186     -0.2717
    111  NE2       26.3270   -4.9950   -3.2190 N.am  186  GLN186     -0.0878
    112  N         20.7960   -2.8140    3.7370 N.3   189  GLU189     -0.1231
    113  CA        21.4950   -1.7060    4.3710 C.3   189  GLU189      0.1699
    114  C         20.7340   -0.4000    4.1840 C.2   189  GLU189      0.2592
    115  O         20.8980    0.5390    4.9620 O.2   189  GLU189     -0.2718
    116  CB        22.9120   -1.5740    3.8080 C.3   189  GLU189      0.0402
    117  CG        23.9100   -2.5530    4.4040 C.3   189  GLU189      0.1161
    118  CD        24.0930   -2.3630    5.8960 C.2   189  GLU189      0.3649
    119  OE1       24.3260   -1.2140    6.3270 O.co2 189  GLU189     -0.2457
    120  OE2       24.0020   -3.3620    6.6400 O.co2 189  GLU189     -0.2457
    121  N         19.9010   -0.3420    3.1490 N.am  190  LEU190     -0.1980
    122  CA        19.1220    0.8640    2.8840 C.3   190  LEU190      0.1596
    123  C         17.7310    0.7870    3.4660 C.2   190  LEU190      0.2287
    124  O         17.1680    1.7990    3.8150 O.2   190  LEU190     -0.2864
    125  CB        19.0100    1.1230    1.3780 C.3   190  LEU190      0.0297
    126  CG        20.3260    1.2090    0.5930 C.3   190  LEU190      0.0022
    127  CD1       20.1470    0.7550   -0.8840 C.3   190  LEU190      0.0001
    128  CD2       20.9690    2.6300    0.7080 C.3   190  LEU190      0.0001
    129  N         36.1420    1.8440   -0.5600 N.3   336  PHE336     -0.1241
    130  CA        35.4150    2.9810   -0.0150 C.3   336  PHE336      0.1605
    131  C         35.7520    3.1300    1.4380 C.2   336  PHE336      0.2264
    132  O         35.0650    3.8690    2.1520 O.2   336  PHE336     -0.2867
    133  CB        33.8690    2.8470   -0.1100 C.3   336  PHE336      0.0534
    134  CG        33.3830    2.4340   -1.4680 C.ar  336  PHE336     -0.0203
    135  CD1       33.1510    3.4000   -2.4590 C.ar  336  PHE336     -0.0042
    136  CD2       33.2140    1.0870   -1.7820 C.ar  336  PHE336     -0.0042
    137  CE1       32.7310    3.0120   -3.7530 C.ar  336  PHE336     -0.0003
    138  CE2       32.8370    0.6960   -3.0340 C.ar  336  PHE336     -0.0003
    139  CZ        32.5810    1.6490   -4.0400 C.ar  336  PHE336     -0.0000
    140  N         32.9930    2.5850    6.8290 N.3   339  PRO339     -0.2116
    141  CA        32.2990    3.8570    7.1480 C.3   339  PRO339      0.1372
    142  C         32.6360    4.4150    8.5120 C.2   339  PRO339      0.2244
    143  O         32.7380    3.6610    9.4760 O.2   339  PRO339     -0.2868
    144  CB        30.8130    3.4770    7.1240 C.3   339  PRO339      0.0268
    145  CG        30.7430    2.2300    6.2290 C.3   339  PRO339      0.0207
    146  CD        32.0320    1.5020    6.5050 C.3   339  PRO339      0.0892
    147  N         27.3140   10.0830    8.6710 N.3   358  GLU358     -0.1245
    148  CA        28.2040    9.0690    8.1910 C.3   358  GLU358      0.1567
    149  C         29.1660    9.6090    7.1860 C.2   358  GLU358      0.2260
    150  O         28.8480   10.4500    6.4030 O.2   358  GLU358     -0.2867
    151  CB        27.4070    7.9500    7.5810 C.3   358  GLU358      0.0388
    152  CG        27.0450    6.9220    8.5710 C.3   358  GLU358      0.1160
    153  CD        26.2420    5.8160    7.9850 C.2   358  GLU358      0.3649
    154  OE1       25.0450    6.0150    7.7490 O.co2 358  GLU358     -0.2457
    155  OE2       26.8180    4.7470    7.7670 O.co2 358  GLU358     -0.2457
    156  N         32.3410    8.5130    4.3790 N.3   360  PHE360     -0.1241
    157  CA        33.1010    7.4550    3.6790 C.3   360  PHE360      0.1605
    158  C         34.4520    7.9430    3.2330 C.2   360  PHE360      0.2264
    159  O         34.5410    8.8180    2.3500 O.2   360  PHE360     -0.2867
    160  CB        32.4000    7.0010    2.3840 C.3   360  PHE360      0.0534
    161  CG        31.1480    6.2040    2.5840 C.ar  360  PHE360     -0.0203
    162  CD1       30.4640    5.7160    1.4820 C.ar  360  PHE360     -0.0042
    163  CD2       30.6380    5.9410    3.8410 C.ar  360  PHE360     -0.0042
    164  CE1       29.2820    4.9530    1.6370 C.ar  360  PHE360     -0.0003
    165  CE2       29.4530    5.1920    4.0010 C.ar  360  PHE360     -0.0003
    166  CZ        28.7780    4.6970    2.8960 C.ar  360  PHE360     -0.0000
    167  N         32.4870   -4.4380   -4.8670 N.3   447  GLY447     -0.1210
    168  CA        31.7030   -3.7990   -3.8480 C.3   447  GLY447      0.1956
    169  C         32.6090   -3.4240   -2.7180 C.2   447  GLY447      0.2611
    170  O         33.7730   -3.1680   -2.9000 O.2   447  GLY447     -0.2717
    171  N         32.0680   -3.3380   -1.5060 N.am  448  VAL448     -0.1979
    172  CA        32.8580   -2.8610   -0.3780 C.3   448  VAL448      0.1595
    173  C         34.1200   -3.6270   -0.2340 C.2   448  VAL448      0.2287
    174  O         34.9650   -3.2500    0.5190 O.2   448  VAL448     -0.2864
    175  CB        32.1530   -2.9450    0.9710 C.3   448  VAL448      0.0276
    176  CG1       31.1570   -1.8630    1.1340 C.3   448  VAL448      0.0022
    177  CG2       31.5580   -4.2830    1.2050 C.3   448  VAL448      0.0022
@<TRIPOS>BOND
     1    24    22   ar
     2    23    22   ar
     3    22    21    1
     4    21    18    1
     5    18    17    1
     6    18    19    1
     7    12    11    2
     8    11    17   am
     9    11    10    1
    10    20    19    2
    11     9    10    1
    12    10    13    1
    13     4     3    2
    14    25    26    1
    15    13    14    1
    16     3     2    1
    17    15    14    1
    18    15    16    1
    19    27    28    2
    20    27    26    1
    21    26    29    1
    22     2     1    1
    23     2     5    1
    24    32    30    1
    25    29    30    1
    26   167   168    1
    27     5     6    1
    28    30    31    1
    29   139   137   ar
    30   139   138   ar
    31   168   169    1
    32   110   109    2
    33   137   135   ar
    34     6     8    1
    35     6     7    1
    36   111   109   am
    37   138   136   ar
    38   109   108    1
    39   170   169    2
    40   169   171   am
    41   135   134   ar
    42    40    38    1
    43    94    93    2
    44   136   134   ar
    45   171   172    1
    46   108   107    1
    47   134   133    1
    48   107   104    1
    49    93    92    1
    50    96    95    1
    51   127   126    1
    52    38    39    1
    53    38    37    1
    54   129   130    1
    55   172   173    1
    56   172   175    1
    57    95    92    1
    58   173   174    2
    59   133   130    1
    60   130   131    1
    61    92    91    1
    62    34    37    1
    63    34    33    1
    64    34    35    1
    65   104   105    1
    66   104   103    1
    67   105   106    2
    68    97    98    1
    69   103    99   am
    70   126   128    1
    71   126   125    1
    72    35    36    2
    73   175   176    1
    74   175   177    1
    75    91    85   am
    76   125   122    1
    77   131   132    2
    78   162   164   ar
    79   162   161   ar
    80    99    98    1
    81    99   100    2
    82   164   166   ar
    83    98   101    1
    84    55    54    2
    85    86    85    2
    86    85    84    1
    87   101   102    1
    88   159   158    2
    89   160   161    1
    90   160   157    1
    91   161   163   ar
    92   122   121    1
    93   122   123    1
    94   166   165   ar
    95    83    84    1
    96    56    57    1
    97    56    58    1
    98    56    53    1
    99    54    53    1
   100   121   114   am
   101   158   157    1
   102    44    43    2
   103    84    87    1
   104    52    53    1
   105   123   124    2
   106   157   156    1
   107   112   113    1
   108   116   113    1
   109   116   117    1
   110   163   165   ar
   111   114   113    1
   112   114   115    2
   113    43    42    1
   114   117   118    1
   115    41    42    1
   116    87    89    1
   117    87    88    1
   118    42    45    1
   119   118   119   ar
   120   118   120   ar
   121    88    90    1
   122   145   146    1
   123   145   144    1
   124    45    46    1
   125    82    80    1
   126   150   149    2
   127   146   140    1
   128    80    81    1
   129    80    77    1
   130   140   141    1
   131   144   141    1
   132   141   142    1
   133   149   148    1
   134    75    73    1
   135    46    47    1
   136   151   148    1
   137   151   152    1
   138    74    72    1
   139   154   153   ar
   140   155   153   ar
   141   153   152    1
   142    47    48    1
   143    77    76    1
   144    77    78    1
   145   148   147    1
   146   142   143    2
   147    48    49    2
   148    73    72    1
   149    72    69    1
   150    69    70    1
   151    69    68    1
   152    78    79    2
   153    62    61    2
   154    70    71    2
   155    49    51    1
   156    49    50    1
   157    68    61   am
   158    61    60    1
   159    60    59    1
   160    60    63    1
   161    63    64    1
   162    64    65    1
   163    65    66    1
   164    66    67    1
