@<TRIPOS>MOLECULE
tmp/3tmzA02.pdb
 160 152 0 0 0
SMALL
GASTEIGER

@<TRIPOS>ATOM
      1  N         32.3260    5.2700   14.4550 N.3    70  ARG70      -0.1245
      2  CA        32.0750    4.1360   13.5470 C.3    70  ARG70       0.1563
      3  C         30.6410    4.0840   13.0740 C.2    70  ARG70       0.2260
      4  O         29.7020    4.0540   13.8860 O.2    70  ARG70      -0.2867
      5  CB        32.4610    2.7910   14.1660 C.3    70  ARG70       0.0307
      6  CG        32.0750    1.5830   13.2980 C.3    70  ARG70       0.0489
      7  CD        32.8880    1.5260   12.0020 C.3    70  ARG70       0.2205
      8  NE        34.2600    1.1460   12.2830 N.pl3  70  ARG70      -0.0865
      9  CZ        35.3340    1.6460   11.6720 C.cat  70  ARG70       0.5346
     10  NH1       35.2050    2.5710   10.7340 N.pl3  70  ARG70       0.1354
     11  NH2       36.5330    1.1920   12.0030 N.pl3  70  ARG70       0.1354
     12  N         26.6280   -0.8950   10.2750 N.3    73  ILE73      -0.1245
     13  CA        26.3250   -1.7220    9.1250 C.3    73  ILE73       0.1561
     14  C         25.1550   -2.5900    9.5270 C.2    73  ILE73       0.2260
     15  O         25.3260   -3.5280   10.2230 O.2    73  ILE73      -0.2867
     16  CB        27.5000   -2.6200    8.8000 C.3    73  ILE73       0.0252
     17  CG1       28.7690   -1.8090    8.5970 C.3    73  ILE73       0.0019
     18  CG2       27.1040   -3.4660    7.6160 C.3    73  ILE73       0.0019
     19  CD1       28.9040   -1.2170    7.2990 C.3    73  ILE73       0.0001
     20  N         23.2650   -4.9200    8.4640 N.3    75  VAL75      -0.1231
     21  CA        23.1940   -6.3360    8.1330 C.3    75  VAL75       0.1692
     22  C         23.8000   -7.1860    9.2420 C.2    75  VAL75       0.2591
     23  O         23.4010   -8.3340    9.4420 O.2    75  VAL75      -0.2718
     24  CB        23.9200   -6.6430    6.8100 C.3    75  VAL75       0.0266
     25  CG1       25.4130   -6.3860    6.9520 C.3    75  VAL75       0.0020
     26  CG2       23.6580   -8.0790    6.3820 C.3    75  VAL75       0.0020
     27  N         24.7630   -6.6220    9.9640 N.am   76  VAL76      -0.1980
     28  CA        25.3940   -7.3390   11.0400 C.3    76  VAL76       0.1595
     29  C         25.2080   -6.7020   12.3700 C.2    76  VAL76       0.2287
     30  O         25.6700   -7.2060   13.3410 O.2    76  VAL76      -0.2864
     31  CB        26.8550   -7.4950   10.8190 C.3    76  VAL76       0.0276
     32  CG1       27.1030   -8.3430    9.6670 C.3    76  VAL76       0.0022
     33  CG2       27.4910   -6.1720   10.6500 C.3    76  VAL76       0.0022
     34  N         35.9750   -3.1500   16.1030 N.3    86  ILE86      -0.1231
     35  CA        35.5390   -2.6310   14.8210 C.3    86  ILE86       0.1692
     36  C         34.1250   -2.1010   14.7910 C.2    86  ILE86       0.2592
     37  O         33.7550   -1.4600   13.8610 O.2    86  ILE86      -0.2718
     38  CB        35.8090   -3.6000   13.6360 C.3    86  ILE86       0.0266
     39  CG1       35.6830   -2.8520   12.3110 C.3    86  ILE86       0.0019
     40  CG2       34.8890   -4.7910   13.6390 C.3    86  ILE86       0.0020
     41  CD1       36.6640   -3.2420   11.2620 C.3    86  ILE86       0.0001
     42  N         33.3370   -2.3690   15.8030 N.am   87  PHE87      -0.1976
     43  CA        31.9550   -1.8390   15.8970 C.3    87  PHE87       0.1639
     44  C         31.6700   -0.8170   17.0080 C.2    87  PHE87       0.2290
     45  O         30.5980   -0.2280   17.0350 O.2    87  PHE87      -0.2864
     46  CB        30.9460   -3.0110   16.0840 C.3    87  PHE87       0.0560
     47  CG        30.9320   -4.0260   14.9400 C.ar   87  PHE87      -0.0200
     48  CD1       30.1220   -3.8200   13.8270 C.ar   87  PHE87      -0.0042
     49  CD2       31.7520   -5.1680   14.9810 C.ar   87  PHE87      -0.0042
     50  CE1       30.1370   -4.6950   12.7330 C.ar   87  PHE87      -0.0003
     51  CE2       31.7620   -6.1180   13.8810 C.ar   87  PHE87      -0.0003
     52  CZ        30.9440   -5.8790   12.7710 C.ar   87  PHE87      -0.0000
     53  N         30.4520  -13.4630    4.7640 N.3   177  PHE177     -0.1241
     54  CA        31.0020  -12.3780    3.9150 C.3   177  PHE177      0.1605
     55  C         30.4430  -12.3700    2.4900 C.2   177  PHE177      0.2264
     56  O         30.0370  -11.3040    1.9840 O.2   177  PHE177     -0.2867
     57  CB        32.5230  -12.4230    3.7860 C.3   177  PHE177      0.0534
     58  CG        33.2620  -11.9630    5.0090 C.ar  177  PHE177     -0.0203
     59  CD1       33.7750  -12.8930    5.9030 C.ar  177  PHE177     -0.0042
     60  CD2       33.4650  -10.6160    5.2600 C.ar  177  PHE177     -0.0042
     61  CE1       34.4920  -12.4760    7.0420 C.ar  177  PHE177     -0.0003
     62  CE2       34.1710  -10.1930    6.3580 C.ar  177  PHE177     -0.0003
     63  CZ        34.7060  -11.1380    7.2730 C.ar  177  PHE177     -0.0000
     64  N         27.0340  -10.7400    2.9830 N.3   180  ILE180     -0.1231
     65  CA        26.9830   -9.3390    3.4150 C.3   180  ILE180      0.1692
     66  C         27.2610   -8.4280    2.1970 C.2   180  ILE180      0.2592
     67  O         26.8300   -7.2900    2.1710 O.2   180  ILE180     -0.2718
     68  CB        27.9930   -9.0500    4.5890 C.3   180  ILE180      0.0266
     69  CG1       27.4610   -9.5450    5.9300 C.3   180  ILE180      0.0019
     70  CG2       28.3590   -7.5850    4.6740 C.3   180  ILE180      0.0020
     71  CD1       28.5440  -10.1200    6.8180 C.3   180  ILE180      0.0001
     72  N         27.9250   -8.9690    1.1970 N.am  181  SER181     -0.1952
     73  CA        28.3300   -8.2130    0.0390 C.3   181  SER181      0.1924
     74  C         27.4950   -8.5130   -1.1770 C.2   181  SER181      0.2314
     75  O         27.9170   -8.3040   -2.2900 O.2   181  SER181     -0.2863
     76  CB        29.7710   -8.5300   -0.2780 C.3   181  SER181      0.2116
     77  OG        30.1520   -9.5510   -1.0700 O.3   181  SER181     -0.2180
     78  N         36.2950  -11.2560   12.1470 N.3   268  PHE268     -0.1227
     79  CA        35.7010  -10.5270   11.0980 C.3   268  PHE268      0.1736
     80  C         36.6600   -9.4860   10.4250 C.2   268  PHE268      0.2595
     81  O         36.5800   -9.4390    9.2190 O.2   268  PHE268     -0.2718
     82  CB        34.5090   -9.7950   11.6970 C.3   268  PHE268      0.0547
     83  CG        33.2960   -9.9190   10.8840 C.ar  268  PHE268     -0.0202
     84  CD1       33.0020   -8.9820    9.9310 C.ar  268  PHE268     -0.0042
     85  CD2       32.4680  -11.0090   11.0560 C.ar  268  PHE268     -0.0042
     86  CE1       31.8720   -9.1470    9.1300 C.ar  268  PHE268     -0.0003
     87  CE2       31.3480  -11.1890   10.2860 C.ar  268  PHE268     -0.0003
     88  CZ        31.0440  -10.2600    9.3250 C.ar  268  PHE268     -0.0000
     89  N         37.5350   -8.7130   11.2550 N.am  269  ALA269     -0.1980
     90  CA        38.4830   -7.7090   10.7870 C.3   269  ALA269      0.1597
     91  C         39.7020   -8.4090   10.2620 C.2   269  ALA269      0.2287
     92  O         40.3140   -7.9500    9.3050 O.2   269  ALA269     -0.2864
     93  CB        38.9060   -6.8550   11.9440 C.3   269  ALA269      0.0319
     94  N         39.3050  -12.0010    6.2890 N.3   272  GLU272     -0.1231
     95  CA        38.9250  -11.9450    4.9050 C.3   272  GLU272      0.1699
     96  C         39.8120  -11.0700    4.0530 C.2   272  GLU272      0.2592
     97  O         40.2380  -11.4730    3.0090 O.2   272  GLU272     -0.2718
     98  CB        37.4760  -11.5410    4.7630 C.3   272  GLU272      0.0402
     99  CG        37.0840  -11.1180    3.3980 C.3   272  GLU272      0.1161
    100  CD        36.8790  -12.2520    2.4550 C.2   272  GLU272      0.3649
    101  OE1       36.6720  -12.0090    1.2780 O.co2 272  GLU272     -0.2457
    102  OE2       36.9330  -13.3890    2.8720 O.co2 272  GLU272     -0.2457
    103  N         40.0450   -9.8720    4.5440 N.am  273  THR273     -0.1953
    104  CA        40.8760   -8.9370    3.8340 C.3   273  THR273      0.1897
    105  C         42.2920   -9.4400    3.6300 C.2   273  THR273      0.2313
    106  O         42.7940   -9.3850    2.5690 O.2   273  THR273     -0.2863
    107  CB        40.8720   -7.5600    4.4720 C.3   273  THR273      0.1794
    108  OG1       39.4930   -7.0380    4.5290 O.3   273  THR273     -0.2208
    109  CG2       41.6500   -6.6100    3.6580 C.3   273  THR273      0.0378
    110  N         41.6410   -3.5330   -1.7770 N.3   333  LEU333     -0.1231
    111  CA        40.5650   -4.3930   -1.2810 C.3   333  LEU333      0.1693
    112  C         39.4680   -3.7680   -0.4070 C.2   333  LEU333      0.2591
    113  O         38.4200   -4.4050   -0.2150 O.2   333  LEU333     -0.2718
    114  CB        41.1280   -5.6200   -0.5920 C.3   333  LEU333      0.0284
    115  CG        42.0160   -6.4210   -1.5170 C.3   333  LEU333      0.0019
    116  CD1       42.6840   -7.3700   -0.6520 C.3   333  LEU333      0.0001
    117  CD2       41.1490   -7.1190   -2.6360 C.3   333  LEU333      0.0001
    118  N         39.6810   -2.5590    0.1270 N.am  334  ILE334     -0.1980
    119  CA        38.5850   -1.8330    0.7900 C.3   334  ILE334      0.1595
    120  C         38.4250   -0.4610    0.0950 C.2   334  ILE334      0.2287
    121  O         38.8890    0.5820    0.6210 O.2   334  ILE334     -0.2864
    122  CB        38.9160   -1.6200    2.2400 C.3   334  ILE334      0.0276
    123  CG1       39.4170   -2.9160    2.8700 C.3   334  ILE334      0.0022
    124  CG2       37.7290   -0.9700    3.0120 C.3   334  ILE334      0.0022
    125  CD1       38.3950   -3.4750    3.6500 C.3   334  ILE334      0.0001
    126  N         36.7860    2.4620    1.9220 N.3   337  GLY337     -0.1210
    127  CA        37.0240    2.5570    3.3480 C.3   337  GLY337      0.1956
    128  C         35.9590    1.7890    4.1150 C.2   337  GLY337      0.2612
    129  O         35.0290    1.2240    3.5050 O.2   337  GLY337     -0.2717
    130  N         36.1430    1.6870    5.4350 N.am  338  VAL338     -0.1966
    131  CA        35.0710    1.2530    6.3160 C.3   338  VAL338      0.1712
    132  C         34.3410    2.5450    6.8220 C.2   338  VAL338      0.2458
    133  O         35.0010    3.5020    7.2090 O.2   338  VAL338     -0.2730
    134  CB        35.6790    0.4530    7.4650 C.3   338  VAL338      0.0289
    135  CG1       34.6310   -0.0530    8.3620 C.3   338  VAL338      0.0023
    136  CG2       36.5510   -0.7300    6.9420 C.3   338  VAL338      0.0023
    137  N         32.9930    2.5850    6.8290 N.am  339  PRO339     -0.2727
    138  CA        32.2990    3.8570    7.1480 C.3   339  PRO339      0.1402
    139  C         32.6360    4.4150    8.5120 C.2   339  PRO339      0.2269
    140  O         32.7380    3.6610    9.4760 O.2   339  PRO339     -0.2865
    141  CB        30.8130    3.4770    7.1240 C.3   339  PRO339      0.0296
    142  CG        30.7430    2.2300    6.2290 C.3   339  PRO339      0.0237
    143  CD        32.0320    1.5020    6.5050 C.3   339  PRO339      0.0939
    144  N         43.6760    0.6920   10.9800 N.3   407  CYS407     -0.1235
    145  CA        43.7060   -0.7330   11.2360 C.3   407  CYS407      0.1677
    146  C         44.4890   -1.1510   12.4750 C.2   407  CYS407      0.2270
    147  O         45.6560   -0.9400   12.5760 O.2   407  CYS407     -0.2867
    148  CB        44.2270   -1.4840   10.0240 C.3   407  CYS407      0.0956
    149  SG        44.3440   -3.1890   10.2660 S.3   407  CYS407     -0.0801
    150  N         32.0680   -3.3380   -1.5060 N.3   448  VAL448     -0.1231
    151  CA        32.8580   -2.8610   -0.3780 C.3   448  VAL448      0.1692
    152  C         34.1200   -3.6270   -0.2340 C.2   448  VAL448      0.2592
    153  O         34.9650   -3.2500    0.5190 O.2   448  VAL448     -0.2718
    154  CB        32.1530   -2.9450    0.9710 C.3   448  VAL448      0.0266
    155  CG1       31.1570   -1.8630    1.1340 C.3   448  VAL448      0.0020
    156  CG2       31.5580   -4.2830    1.2050 C.3   448  VAL448      0.0020
    157  N         34.2520   -4.7060   -0.9770 N.am  449  GLY449     -0.1957
    158  CA        35.3980   -5.5740   -0.8500 C.3   449  GLY449      0.1869
    159  C         36.2120   -5.8850   -2.0890 C.2   449  GLY449      0.2309
    160  O         37.2130   -6.5480   -1.9880 O.2   449  GLY449     -0.2863
@<TRIPOS>BOND
     1   117   115    1
     2    75    74    2
     3   159   160    2
     4   159   158    1
     5   110   111    1
     6   115   116    1
     7   115   114    1
     8   150   151    1
     9   111   114    1
    10   111   112    1
    11    74    73    1
    12    77    76    1
    13   157   158    1
    14   157   152   am
    15   112   113    2
    16   112   118   am
    17   151   152    1
    18   151   154    1
    19    76    73    1
    20   152   153    2
    21    73    72    1
    22   120   121    2
    23   120   119    1
    24   118   119    1
    25   119   122    1
    26   154   155    1
    27   154   156    1
    28    72    66   am
    29   101   100   ar
    30   126   127    1
    31    56    55    2
    32    67    66    2
    33    66    65    1
    34   122   123    1
    35   122   124    1
    36   100   102   ar
    37   100    99    1
    38    55    54    1
    39   106   105    2
    40   123   125    1
    41    64    65    1
    42    97    96    2
    43   127   128    1
    44    99    98    1
    45    65    68    1
    46   129   128    2
    47   105   104    1
    48   109   107    1
    49    57    54    1
    50    57    58    1
    51   104   107    1
    52   104   103    1
    53    54    53    1
    54    96   103   am
    55    96    95    1
    56   128   130   am
    57   107   108    1
    58    68    70    1
    59    68    69    1
    60    98    95    1
    61    95    94    1
    62    58    60   ar
    63    58    59   ar
    64    60    62   ar
    65   130   131    1
    66    59    61   ar
    67    69    71    1
    68   142   143    1
    69   142   141    1
    70   131   132    1
    71   131   134    1
    72    62    63   ar
    73    26    24    1
    74   143   137    1
    75    24    25    1
    76    24    21    1
    77   132   137   am
    78   132   133    2
    79   137   138    1
    80   136   134    1
    81    61    63   ar
    82   141   138    1
    83   138   139    1
    84    19    17    1
    85   134   135    1
    86    18    16    1
    87    21    20    1
    88    21    22    1
    89   139   140    2
    90    17    16    1
    91    16    13    1
    92    13    14    1
    93    13    12    1
    94    86    88   ar
    95    86    84   ar
    96    81    80    2
    97    22    23    2
    98    22    27   am
    99    92    91    2
   100    88    87   ar
   101    14    15    2
   102    32    31    1
   103    84    83   ar
   104    27    28    1
   105   148   149    1
   106   148   145    1
   107    91    90    1
   108    87    85   ar
   109    80    79    1
   110    80    89   am
   111    33    31    1
   112    10     9    1
   113    90    89    1
   114    90    93    1
   115    31    28    1
   116    83    85   ar
   117    83    82    1
   118   144   145    1
   119    28    29    1
   120    79    82    1
   121    79    78    1
   122   145   146    1
   123    41    39    1
   124     9    11    1
   125     9     8    2
   126     7     8    1
   127     7     6    1
   128    39    38    1
   129    29    30    2
   130   146   147    2
   131    50    52   ar
   132    50    48   ar
   133    52    51   ar
   134     3     2    1
   135     3     4    2
   136     6     5    1
   137     2     5    1
   138     2     1    1
   139    38    40    1
   140    38    35    1
   141    48    47   ar
   142    37    36    2
   143    51    49   ar
   144    36    35    1
   145    36    42   am
   146    35    34    1
   147    47    49   ar
   148    47    46    1
   149    42    43    1
   150    43    46    1
   151    43    44    1
   152    44    45    2
