@<TRIPOS>MOLECULE
tmp/3tneA00.pdb
 215 203 0 0 0
SMALL
GASTEIGER

@<TRIPOS>ATOM
      1  N         12.8910  -10.2730  -22.5300 N.3    12  PRO12      -0.2102
      2  CA        12.5320  -11.4030  -23.4200 C.3    12  PRO12       0.1504
      3  C         11.1290  -11.9640  -23.2960 C.2    12  PRO12       0.2576
      4  O         10.6230  -12.5550  -24.2430 O.2    12  PRO12      -0.2718
      5  CB        13.4840  -12.5220  -22.9670 C.3    12  PRO12       0.0282
      6  CG        13.7160  -12.2360  -21.5280 C.3    12  PRO12       0.0208
      7  CD        13.8440  -10.7210  -21.4960 C.3    12  PRO12       0.0893
      8  N         10.5340  -11.8310  -22.1230 N.am   13  SER13      -0.1953
      9  CA         9.1700  -12.2750  -21.9000 C.3    13  SER13       0.1924
     10  C          8.3520  -11.2460  -21.0960 C.2    13  SER13       0.2314
     11  O          8.8980  -10.3840  -20.4110 O.2    13  SER13      -0.2863
     12  CB         9.2020  -13.6130  -21.1770 C.3    13  SER13       0.2116
     13  OG         8.0250  -14.3520  -21.4350 O.3    13  SER13      -0.2180
     14  N          5.2570  -16.3480  -17.0090 N.3    30  ILE30      -0.1245
     15  CA         5.1170  -15.8290  -18.3410 C.3    30  ILE30       0.1561
     16  C          3.7030  -16.0210  -18.8690 C.2    30  ILE30       0.2260
     17  O          3.1730  -17.1300  -18.7280 O.2    30  ILE30      -0.2867
     18  CB         5.9720  -16.5260  -19.2900 C.3    30  ILE30       0.0252
     19  CG1        7.4430  -16.2410  -18.9700 C.3    30  ILE30       0.0019
     20  CG2        5.5900  -16.0920  -20.6580 C.3    30  ILE30       0.0019
     21  CD1        8.3980  -17.2770  -19.5390 C.3    30  ILE30       0.0001
     22  N          1.5470  -16.5980  -22.0750 N.3    32  ASP32      -0.1239
     23  CA         1.9960  -17.3120  -23.2720 C.3    32  ASP32       0.1674
     24  C          0.8090  -17.6260  -24.1730 C.2    32  ASP32       0.2266
     25  O          0.0410  -18.5370  -23.8840 O.2    32  ASP32      -0.2867
     26  CB         2.7390  -18.5980  -22.8290 C.3    32  ASP32       0.1410
     27  CG         3.3800  -19.3890  -24.0070 C.2    32  ASP32       0.3668
     28  OD1        3.2610  -18.9950  -25.1580 O.co2  32  ASP32      -0.2456
     29  OD2        4.0360  -20.4250  -23.7900 O.co2  32  ASP32      -0.2456
     30  N          1.4740  -18.7640  -27.0870 N.3    34  GLY34      -0.1210
     31  CA         1.9730  -19.9320  -27.8130 C.3    34  GLY34       0.1956
     32  C          1.7140  -21.3340  -27.2070 C.2    34  GLY34       0.2612
     33  O          1.7910  -22.3450  -27.9240 O.2    34  GLY34      -0.2717
     34  N          1.4590  -21.4160  -25.8960 N.am   35  SER35      -0.1952
     35  CA         1.1700  -22.6800  -25.2560 C.3    35  SER35       0.1924
     36  C         -0.1630  -22.5690  -24.5830 C.2    35  SER35       0.2314
     37  O         -0.7200  -21.4560  -24.4060 O.2    35  SER35      -0.2863
     38  CB         2.2310  -23.0310  -24.2470 C.3    35  SER35       0.2116
     39  OG         2.3350  -22.0340  -23.2560 O.3    35  SER35      -0.2180
     40  N          6.7920  -31.0570  -21.5590 N.3    76  ILE76      -0.1231
     41  CA         6.5890  -30.0580  -22.5720 C.3    76  ILE76       0.1692
     42  C          7.9610  -29.6590  -23.0480 C.2    76  ILE76       0.2592
     43  O          8.9320  -29.6940  -22.2770 O.2    76  ILE76      -0.2718
     44  CB         5.8280  -28.8340  -21.9890 C.3    76  ILE76       0.0266
     45  CG1        5.3210  -27.9130  -23.0960 C.3    76  ILE76       0.0019
     46  CG2        6.7050  -28.0380  -21.0310 C.3    76  ILE76       0.0020
     47  CD1        4.0140  -27.2130  -22.7120 C.3    76  ILE76       0.0001
     48  N          8.0520  -29.3140  -24.3250 N.am   77  ARG77      -0.1966
     49  CA         9.2960  -28.7930  -24.8580 C.3    77  ARG77       0.1729
     50  C          9.0170  -27.5460  -25.6470 C.2    77  ARG77       0.2616
     51  O          8.1350  -27.5490  -26.4800 O.2    77  ARG77      -0.2715
     52  CB         9.9530  -29.8040  -25.7790 C.3    77  ARG77       0.0348
     53  CG        11.0750  -29.1760  -26.6130 C.3    77  ARG77       0.0492
     54  CD        11.8990  -30.2350  -27.2700 C.3    77  ARG77       0.2205
     55  NE        11.0650  -31.1860  -27.9960 N.pl3  77  ARG77      -0.0865
     56  CZ        10.7150  -31.0720  -29.2750 C.cat  77  ARG77       0.5346
     57  NH1       11.1180  -30.0300  -30.0160 N.pl3  77  ARG77       0.1354
     58  NH2        9.9480  -32.0150  -29.8200 N.pl3  77  ARG77       0.1354
     59  N          9.8000  -26.5010  -25.4130 N.am   78  TYR78      -0.1960
     60  CA         9.5850  -25.2180  -26.0590 C.3    78  TYR78       0.1771
     61  C         10.4860  -25.0320  -27.2690 C.2    78  TYR78       0.2620
     62  O         11.4950  -25.7310  -27.4300 O.2    78  TYR78      -0.2715
     63  CB         9.7570  -24.1080  -25.0370 C.3    78  TYR78       0.0574
     64  CG         8.6360  -24.1350  -24.0340 C.ar   78  TYR78      -0.0198
     65  CD1        7.3360  -23.8660  -24.4270 C.ar   78  TYR78      -0.0009
     66  CD2        8.8610  -24.4570  -22.7020 C.ar   78  TYR78      -0.0009
     67  CE1        6.2750  -23.9180  -23.5210 C.ar   78  TYR78       0.0417
     68  CE2        7.7950  -24.4880  -21.7710 C.ar   78  TYR78       0.0417
     69  CZ         6.5050  -24.2300  -22.1930 C.ar   78  TYR78       0.1957
     70  OH         5.4360  -24.2630  -21.3050 O.3    78  TYR78      -0.2866
     71  N         10.0960  -24.1000  -28.1380 N.am   79  GLY79      -0.1940
     72  CA        10.7770  -23.9150  -29.4060 C.3    79  GLY79       0.2014
     73  C         12.2740  -23.6740  -29.3040 C.2    79  GLY79       0.2638
     74  O         12.9990  -23.9190  -30.2740 O.2    79  GLY79      -0.2714
     75  N         12.7550  -23.2010  -28.1540 N.am   80  ASP80      -0.1971
     76  CA        14.1920  -22.8930  -28.0030 C.3    80  ASP80       0.1709
     77  C         15.0250  -24.0160  -27.3240 C.2    80  ASP80       0.2293
     78  O         16.2310  -23.8470  -27.0830 O.2    80  ASP80      -0.2864
     79  CB        14.3890  -21.5710  -27.2700 C.3    80  ASP80       0.1436
     80  CG        13.9050  -21.6190  -25.8240 C.2    80  ASP80       0.3671
     81  OD1       13.0300  -22.4540  -25.5070 O.co2  80  ASP80      -0.2456
     82  OD2       14.3950  -20.8120  -25.0080 O.co2  80  ASP80      -0.2456
     83  N         14.1550  -25.3270  -24.2670 N.3    82  SER82      -0.1217
     84  CA        13.7900  -25.4560  -22.8710 C.3    82  SER82       0.1889
     85  C         12.7220  -26.5430  -22.8140 C.2    82  SER82       0.2288
     86  O         11.9440  -26.7020  -23.7260 O.2    82  SER82      -0.2866
     87  CB        13.3200  -24.1270  -22.2500 C.3    82  SER82       0.2089
     88  OG        12.1360  -23.6340  -22.8590 O.3    82  SER82      -0.2183
     89  N         13.8620  -24.1430  -17.7670 N.3   113  VAL113     -0.1231
     90  CA        13.2110  -22.8410  -18.0110 C.3   113  VAL113      0.1692
     91  C         13.3950  -21.9150  -16.7760 C.2   113  VAL113      0.2592
     92  O         13.5750  -22.4000  -15.6510 O.2   113  VAL113     -0.2718
     93  CB        11.7170  -22.9880  -18.4040 C.3   113  VAL113      0.0266
     94  CG1       11.0710  -21.6270  -18.6730 C.3   113  VAL113      0.0020
     95  CG2       11.5620  -23.8690  -19.6310 C.3   113  VAL113      0.0020
     96  N         13.4180  -20.5990  -17.0060 N.am  114  ASP114     -0.1974
     97  CA        13.7400  -19.5920  -15.9690 C.3   114  ASP114      0.1709
     98  C         12.5710  -19.2750  -14.9960 C.2   114  ASP114      0.2293
     99  O         12.7940  -18.8190  -13.8560 O.2   114  ASP114     -0.2864
    100  CB        14.2440  -18.2850  -16.6540 C.3   114  ASP114      0.1436
    101  CG        15.6280  -18.4600  -17.4150 C.2   114  ASP114      0.3671
    102  OD1       16.4350  -19.3870  -17.1190 O.co2 114  ASP114     -0.2456
    103  OD2       15.9170  -17.6370  -18.3230 O.co2 114  ASP114     -0.2456
    104  N          5.2310  -20.7320  -16.7430 N.3   117  ILE117     -0.1245
    105  CA         4.6290  -20.1150  -17.9280 C.3   117  ILE117      0.1561
    106  C          3.1540  -20.4190  -17.8760 C.2   117  ILE117      0.2260
    107  O          2.8050  -21.6000  -17.7490 O.2   117  ILE117     -0.2867
    108  CB         5.2320  -20.7440  -19.2120 C.3   117  ILE117      0.0252
    109  CG1        6.6790  -20.3010  -19.3980 C.3   117  ILE117      0.0019
    110  CG2        4.4570  -20.4250  -20.4690 C.3   117  ILE117      0.0019
    111  CD1        7.5130  -21.3630  -20.1320 C.3   117  ILE117      0.0001
    112  N         -4.3460  -27.4790  -27.9650 N.3   125  ASN125     -0.1225
    113  CA        -2.8830  -27.4360  -28.0340 C.3   125  ASN125      0.1785
    114  C         -2.1350  -27.8530  -26.7390 C.2   125  ASN125      0.2597
    115  O         -0.9560  -27.6370  -26.5950 O.2   125  ASN125     -0.2718
    116  CB        -2.4210  -26.0580  -28.4580 C.3   125  ASN125      0.1169
    117  CG        -1.2390  -26.1320  -29.3510 C.2   125  ASN125      0.2627
    118  OD1       -1.0710  -27.1300  -30.0500 O.2   125  ASN125     -0.2716
    119  ND2       -0.4070  -25.0910  -29.3620 N.am  125  ASN125     -0.0877
    120  N         -2.8390  -28.4540  -25.8180 N.am  126  GLU126     -0.1965
    121  CA        -2.2670  -28.8540  -24.5610 C.3   126  GLU126      0.1733
    122  C         -1.2150  -29.9320  -24.7680 C.2   126  GLU126      0.2616
    123  O         -1.3940  -30.8050  -25.6070 O.2   126  GLU126     -0.2715
    124  CB        -3.3990  -29.3690  -23.6850 C.3   126  GLU126      0.0429
    125  CG        -4.1930  -28.2560  -23.0570 C.3   126  GLU126      0.1163
    126  CD        -5.5570  -28.6920  -22.5870 C.2   126  GLU126      0.3649
    127  OE1       -5.8790  -29.8870  -22.7920 O.co2 126  GLU126     -0.2457
    128  OE2       -6.3150  -27.8430  -22.0520 O.co2 126  GLU126     -0.2457
    129  N         -0.1090  -29.8510  -24.0410 N.am  127  ALA127     -0.1977
    130  CA         0.8940  -30.9690  -23.9430 C.3   127  ALA127      0.1597
    131  C          0.3750  -32.1660  -23.1080 C.2   127  ALA127      0.2287
    132  O          0.5660  -32.2030  -21.8880 O.2   127  ALA127     -0.2864
    133  CB         2.1960  -30.4400  -23.3190 C.3   127  ALA127      0.0319
    134  N          1.8860  -17.2930  -36.1960 N.3   218  LEU218     -0.1245
    135  CA         1.5040  -17.3620  -34.7850 C.3   218  LEU218      0.1561
    136  C          1.7950  -15.9890  -34.1250 C.2   218  LEU218      0.2260
    137  O          2.8960  -15.4410  -34.2260 O.2   218  LEU218     -0.2867
    138  CB         2.2570  -18.5180  -34.1020 C.3   218  LEU218      0.0270
    139  CG         1.9860  -18.7860  -32.6250 C.3   218  LEU218      0.0019
    140  CD1        0.5340  -18.9580  -32.3460 C.3   218  LEU218      0.0001
    141  CD2        2.7840  -19.9810  -32.0680 C.3   218  LEU218      0.0001
    142  N          2.4300  -14.8510  -31.0140 N.3   220  ASP220     -0.1239
    143  CA         2.9430  -15.5310  -29.8010 C.3   220  ASP220      0.1674
    144  C          3.4090  -14.4760  -28.8190 C.2   220  ASP220      0.2266
    145  O          4.3260  -13.7370  -29.1190 O.2   220  ASP220     -0.2867
    146  CB         4.1260  -16.4270  -30.1810 C.3   220  ASP220      0.1410
    147  CG         4.5410  -17.3370  -29.0980 C.2   220  ASP220      0.3668
    148  OD1        3.7680  -17.5800  -28.1690 O.co2 220  ASP220     -0.2456
    149  OD2        5.6690  -17.8420  -29.1680 O.co2 220  ASP220     -0.2456
    150  N          4.8670  -15.1760  -26.1310 N.3   222  GLY222     -0.1210
    151  CA         6.0220  -15.7480  -25.4560 C.3   222  GLY222      0.1956
    152  C          7.1180  -16.1860  -26.3750 C.2   222  GLY222      0.2613
    153  O          7.9070  -17.0770  -26.0180 O.2   222  GLY222     -0.2717
    154  N          7.1500  -15.5940  -27.5660 N.am  223  THR223     -0.1938
    155  CA         8.3490  -15.6130  -28.3870 C.3   223  THR223      0.2028
    156  C          8.8850  -14.2100  -28.3390 C.2   223  THR223      0.2643
    157  O          8.1200  -13.2730  -28.3380 O.2   223  THR223     -0.2714
    158  CB         8.0430  -16.0450  -29.7980 C.3   223  THR223      0.1808
    159  OG1        7.9990  -17.4760  -29.8080 O.3   223  THR223     -0.2208
    160  CG2        9.1370  -15.6180  -30.7530 C.3   223  THR223      0.0379
    161  N         10.1890  -14.0550  -28.2610 N.am  224  THR224     -0.1936
    162  CA        10.7270  -12.7240  -28.0610 C.3   224  THR224      0.2028
    163  C         10.7830  -12.0050  -29.3770 C.2   224  THR224      0.2642
    164  O         10.5320  -10.7710  -29.4620 O.2   224  THR224     -0.2714
    165  CB        12.1130  -12.8290  -27.4700 C.3   224  THR224      0.1808
    166  OG1       11.9930  -13.5300  -26.2290 O.3   224  THR224     -0.2208
    167  CG2       12.7380  -11.4620  -27.2200 C.3   224  THR224      0.0379
    168  N         11.1110  -12.7690  -30.4130 N.am  225  LEU225     -0.1977
    169  CA        11.5240  -12.2040  -31.6740 C.3   225  LEU225      0.1596
    170  C         10.6010  -12.6810  -32.7410 C.2   225  LEU225      0.2287
    171  O          9.5830  -13.2830  -32.4370 O.2   225  LEU225     -0.2864
    172  CB        12.9570  -12.6410  -31.9700 C.3   225  LEU225      0.0297
    173  CG        14.1180  -12.0230  -31.1880 C.3   225  LEU225      0.0022
    174  CD1       15.4450  -12.5470  -31.7790 C.3   225  LEU225      0.0001
    175  CD2       14.0570  -10.4920  -31.1780 C.3   225  LEU225      0.0001
    176  N         10.0950  -14.9700  -36.2770 N.3   227  TYR227     -0.1241
    177  CA        10.6520  -16.0350  -37.1250 C.3   227  TYR227      0.1605
    178  C          9.8660  -16.3160  -38.4420 C.2   227  TYR227      0.2264
    179  O          8.6310  -16.1800  -38.4830 O.2   227  TYR227     -0.2867
    180  CB        10.7740  -17.3270  -36.3150 C.3   227  TYR227      0.0534
    181  CG        11.6110  -17.1680  -35.0540 C.ar  227  TYR227     -0.0201
    182  CD1       11.1500  -16.4360  -33.9570 C.ar  227  TYR227     -0.0009
    183  CD2       12.8620  -17.7550  -34.9560 C.ar  227  TYR227     -0.0009
    184  CE1       11.9250  -16.3100  -32.8110 C.ar  227  TYR227      0.0417
    185  CE2       13.6350  -17.6030  -33.8340 C.ar  227  TYR227      0.0417
    186  CZ        13.1680  -16.9030  -32.7630 C.ar  227  TYR227      0.1957
    187  OH        13.9760  -16.7780  -31.6470 O.3   227  TYR227     -0.2866
    188  N         18.6840   -6.2360  -31.7550 N.3   285  TYR285     -0.1241
    189  CA        18.5770   -6.6930  -30.3960 C.3   285  TYR285      0.1605
    190  C         20.0190   -6.6870  -29.9510 C.2   285  TYR285      0.2264
    191  O         20.9080   -6.9970  -30.7400 O.2   285  TYR285     -0.2867
    192  CB        17.9620   -8.0920  -30.3780 C.3   285  TYR285      0.0534
    193  CG        17.5390   -8.6360  -29.0250 C.ar  285  TYR285     -0.0201
    194  CD1       16.2910   -8.3340  -28.4820 C.ar  285  TYR285     -0.0009
    195  CD2       18.3700   -9.5000  -28.3080 C.ar  285  TYR285     -0.0009
    196  CE1       15.8960   -8.8550  -27.2330 C.ar  285  TYR285      0.0417
    197  CE2       17.9900  -10.0280  -27.0710 C.ar  285  TYR285      0.0417
    198  CZ        16.7540   -9.7030  -26.5370 C.ar  285  TYR285      0.1957
    199  OH        16.3900  -10.2270  -25.3150 O.3   285  TYR285     -0.2866
    200  N          8.5020  -22.7230  -38.3420 N.3   301  ASP301     -0.1239
    201  CA         7.1990  -22.1270  -38.0590 C.3   301  ASP301      0.1674
    202  C          7.2830  -20.6100  -38.0640 C.2   301  ASP301      0.2266
    203  O          8.2730  -20.0720  -37.5980 O.2   301  ASP301     -0.2867
    204  CB         6.7330  -22.6130  -36.6900 C.3   301  ASP301      0.1410
    205  CG         6.7310  -24.1240  -36.5990 C.2   301  ASP301      0.3668
    206  OD1        7.8220  -24.7180  -36.7130 O.co2 301  ASP301     -0.2456
    207  OD2        5.6380  -24.7140  -36.4460 O.co2 301  ASP301     -0.2456
    208  N          6.5210  -17.0330  -36.6400 N.3   303  ILE303     -0.1245
    209  CA         6.0510  -16.4850  -35.3510 C.3   303  ILE303      0.1561
    210  C          6.2650  -15.0000  -35.2730 C.2   303  ILE303      0.2260
    211  O          7.3580  -14.5210  -35.4690 O.2   303  ILE303     -0.2867
    212  CB         6.7580  -17.1130  -34.1690 C.3   303  ILE303      0.0252
    213  CG1        6.5960  -18.6390  -34.2200 C.3   303  ILE303      0.0019
    214  CG2        6.2010  -16.5360  -32.9010 C.3   303  ILE303      0.0019
    215  CD1        7.3160  -19.3700  -33.1400 C.3   303  ILE303      0.0001
@<TRIPOS>BOND
     1   179   178    2
     2   178   177    1
     3   200   201    1
     4   202   201    1
     5   202   203    2
     6   201   204    1
     7   177   180    1
     8   177   176    1
     9   206   205   ar
    10   204   205    1
    11   208   209    1
    12   205   207   ar
    13   180   181    1
    14   134   135    1
    15   211   210    2
    16   209   210    1
    17   209   212    1
    18   181   183   ar
    19   181   182   ar
    20   183   185   ar
    21   135   136    1
    22   135   138    1
    23   137   136    2
    24   213   212    1
    25   213   215    1
    26   212   214    1
    27   138   139    1
    28   182   184   ar
    29   185   186   ar
    30   184   186   ar
    31   186   187    1
    32   170   171    2
    33   170   169    1
    34   139   140    1
    35   139   141    1
    36   172   169    1
    37   172   173    1
    38   174   173    1
    39   188   189    1
    40   169   168    1
    41   173   175    1
    42   142   143    1
    43   160   158    1
    44   191   190    2
    45   168   163   am
    46   189   192    1
    47   189   190    1
    48   192   193    1
    49    74    73    2
    50   146   143    1
    51   146   147    1
    52   118   117    2
    53    57    56    1
    54    58    56    1
    55   159   158    1
    56   143   144    1
    57   158   155    1
    58   164   163    2
    59    72    73    1
    60    72    71    1
    61   163   162    1
    62   119   117   am
    63   117   116    1
    64    73    75   am
    65    56    55    2
    66   149   147   ar
    67   145   144    2
    68   147   148   ar
    69   193   194   ar
    70   193   195   ar
    71   194   196   ar
    72   116   113    1
    73   155   156    1
    74   155   154    1
    75   156   157    2
    76   156   161   am
    77   195   197   ar
    78   161   162    1
    79    75    76    1
    80    71    61   am
    81   162   165    1
    82   113   112    1
    83   113   114    1
    84    76    77    1
    85    76    79    1
    86    55    54    1
    87    33    32    2
    88    31    32    1
    89    31    30    1
    90   154   152   am
    91   165   167    1
    92   165   166    1
    93    62    61    2
    94    77    78    2
    95    54    53    1
    96    79    80    1
    97    61    60    1
    98   196   198   ar
    99    32    34   am
   100   197   198   ar
   101   114   115    2
   102   114   120   am
   103    53    52    1
   104   198   199    1
   105    51    50    2
   106   152   153    2
   107   152   151    1
   108   150   151    1
   109    60    59    1
   110    60    63    1
   111    34    35    1
   112    80    81   ar
   113    80    82   ar
   114   120   121    1
   115    52    49    1
   116    50    59   am
   117    50    49    1
   118   123   122    2
   119    35    36    1
   120    35    38    1
   121    28    27   ar
   122    63    64    1
   123    49    48    1
   124   122   121    1
   125   122   129   am
   126    36    37    2
   127   121   124    1
   128    65    64   ar
   129    65    67   ar
   130    48    42   am
   131    83    84    1
   132    38    39    1
   133     4     3    2
   134    24    25    2
   135    24    23    1
   136   129   130    1
   137    64    66   ar
   138    27    29   ar
   139    27    26    1
   140   130   133    1
   141   130   131    1
   142    86    85    2
   143   124   125    1
   144    67    69   ar
   145     2     3    1
   146     2     5    1
   147     2     1    1
   148     3     8   am
   149    23    26    1
   150    23    22    1
   151   131   132    2
   152    45    47    1
   153    45    44    1
   154   125   126    1
   155    42    41    1
   156    42    43    2
   157     5     6    1
   158    84    85    1
   159    84    87    1
   160    88    87    1
   161   127   126   ar
   162    66    68   ar
   163   126   128   ar
   164    41    44    1
   165    41    40    1
   166     1     7    1
   167    69    68   ar
   168    69    70    1
   169     8     9    1
   170    44    46    1
   171     9    12    1
   172     9    10    1
   173     6     7    1
   174    13    12    1
   175    10    11    2
   176    20    18    1
   177   110   108    1
   178   111   109    1
   179    95    93    1
   180    21    19    1
   181   109   108    1
   182    18    19    1
   183    18    15    1
   184   108   105    1
   185    16    17    2
   186    16    15    1
   187    94    93    1
   188    93    90    1
   189    15    14    1
   190   103   101   ar
   191    90    89    1
   192    90    91    1
   193   105   106    1
   194   105   104    1
   195   106   107    2
   196   101   102   ar
   197   101   100    1
   198    96    91   am
   199    96    97    1
   200    91    92    2
   201   100    97    1
   202    97    98    1
   203    98    99    2
