@<TRIPOS>MOLECULE
tmp/3tnfA02.pdb
 85 81 0 0 0
SMALL
GASTEIGER

@<TRIPOS>ATOM
      1  N         43.5580   14.5560   14.9600 N.3     5  LYS5       -0.1245
      2  CA        42.8720   13.5830   15.7930 C.3     5  LYS5        0.1561
      3  C         41.7060   12.9830   15.0020 C.2     5  LYS5        0.2260
      4  O         40.7920   13.7070   14.5550 O.2     5  LYS5       -0.2867
      5  CB        42.3870   14.2380   17.0840 C.3     5  LYS5        0.0271
      6  CG        43.5180   14.7990   17.9610 C.3     5  LYS5        0.0035
      7  CD        42.9730   15.4600   19.2280 C.3     5  LYS5        0.0206
      8  CE        44.0550   16.2180   19.9910 C.3     5  LYS5        0.1093
      9  NZ        43.5480   17.5360   20.4930 N.3     5  LYS5       -0.1314
     10  N         38.6830    9.8540   14.6290 N.3     7  LEU7       -0.1245
     11  CA        37.7570    9.0410   15.4050 C.3     7  LEU7        0.1561
     12  C         37.0870    7.9920   14.5120 C.2     7  LEU7        0.2260
     13  O         36.5580    8.3250   13.4540 O.2     7  LEU7       -0.2867
     14  CB        36.6700    9.9430   15.9980 C.3     7  LEU7        0.0270
     15  CG        36.2320    9.7920   17.4590 C.3     7  LEU7        0.0019
     16  CD1       34.7220    9.7240   17.5730 C.3     7  LEU7        0.0001
     17  CD2       36.8670    8.5970   18.1740 C.3     7  LEU7        0.0001
     18  N         37.5510    3.4340   24.5580 N.3    38  ILE38      -0.1245
     19  CA        38.5020    4.1290   23.6660 C.3    38  ILE38       0.1561
     20  C         39.9560    3.7040   23.8440 C.2    38  ILE38       0.2260
     21  O         40.3670    3.2320   24.9240 O.2    38  ILE38      -0.2867
     22  CB        38.4400    5.6670   23.8390 C.3    38  ILE38       0.0252
     23  CG1       38.6890    6.0610   25.3070 C.3    38  ILE38       0.0019
     24  CG2       37.1180    6.2470   23.2860 C.3    38  ILE38       0.0019
     25  CD1       38.8030    7.5680   25.5440 C.3    38  ILE38       0.0001
     26  N         46.7110   10.8250   15.0320 N.3    55  GLN55      -0.1245
     27  CA        46.2940   10.2390   16.3180 C.3    55  GLN55       0.1566
     28  C         44.8820    9.6850   16.1390 C.2    55  GLN55       0.2260
     29  O         43.9170   10.4520   16.0290 O.2    55  GLN55      -0.2867
     30  CB        46.3350   11.3130   17.4090 C.3    55  GLN55       0.0367
     31  CG        45.9060   10.8610   18.8200 C.3    55  GLN55       0.0905
     32  CD        45.7890   12.0330   19.7840 C.2    55  GLN55       0.2608
     33  OE1       44.6810   12.4270   20.1590 O.2    55  GLN55      -0.2717
     34  NE2       46.9310   12.6170   20.1620 N.am   55  GLN55      -0.0878
     35  N         41.6110    7.2500   16.9830 N.3    57  TRP57      -0.1241
     36  CA        40.8860    6.7440   18.1480 C.3    57  TRP57       0.1605
     37  C         39.8170    5.7100   17.7950 C.2    57  TRP57       0.2264
     38  O         38.9190    5.9630   16.9690 O.2    57  TRP57      -0.2867
     39  CB        40.2330    7.9080   18.9260 C.3    57  TRP57       0.0550
     40  CG        41.2470    8.7780   19.6380 C.ar   57  TRP57       0.0003
     41  CD1       41.8880    9.8830   19.1350 C.ar   57  TRP57       0.0946
     42  CD2       41.7590    8.5910   20.9640 C.ar   57  TRP57       0.0152
     43  NE1       42.7560   10.3990   20.0720 N.ar   57  TRP57      -0.2442
     44  CE2       42.7000    9.6230   21.2070 C.ar   57  TRP57       0.0810
     45  CE3       41.5100    7.6540   21.9830 C.ar   57  TRP57       0.0012
     46  CZ2       43.3950    9.7510   22.4270 C.ar   57  TRP57       0.0191
     47  CZ3       42.1970    7.7760   23.1840 C.ar   57  TRP57       0.0001
     48  CH2       43.1310    8.8190   23.3940 C.ar   57  TRP57       0.0015
     49  N         30.9140   12.5980   23.8730 N.3    71  ALA71      -0.1231
     50  CA        31.9700   13.3850   24.5100 C.3    71  ALA71       0.1694
     51  C         33.3010   13.2010   23.8010 C.2    71  ALA71       0.2592
     52  O         34.2090   14.0240   23.9390 O.2    71  ALA71      -0.2718
     53  CB        32.1010   12.9970   25.9650 C.3    71  ALA71       0.0304
     54  N         33.4220   12.1120   23.0500 N.am   72  TYR72      -0.1976
     55  CA        34.6430   11.8670   22.2890 C.3    72  TYR72       0.1639
     56  C         34.6570   12.6780   20.9940 C.2    72  TYR72       0.2290
     57  O         35.7040   12.8340   20.3750 O.2    72  TYR72      -0.2864
     58  CB        34.8070   10.3750   21.9940 C.3    72  TYR72       0.0560
     59  CG        34.8150    9.5170   23.2360 C.ar   72  TYR72      -0.0198
     60  CD1       35.3510   10.0020   24.4350 C.ar   72  TYR72      -0.0009
     61  CD2       34.2860    8.2280   23.2240 C.ar   72  TYR72      -0.0009
     62  CE1       35.3620    9.2290   25.5870 C.ar   72  TYR72       0.0417
     63  CE2       34.2850    7.4320   24.3860 C.ar   72  TYR72       0.0417
     64  CZ        34.8270    7.9430   25.5630 C.ar   72  TYR72       0.1957
     65  OH        34.8450    7.1780   26.7200 O.3    72  TYR72      -0.2866
     66  N         34.3720   15.7560   20.6860 N.3    74  ARG74      -0.1231
     67  CA        35.1460   16.9670   20.9390 C.3    74  ARG74       0.1694
     68  C         36.5710   16.8350   20.4440 C.2    74  ARG74       0.2593
     69  O         37.2980   15.9000   20.8230 O.2    74  ARG74      -0.2718
     70  CB        35.1720   17.3200   22.4330 C.3    74  ARG74       0.0321
     71  CG        34.0650   18.2700   22.8760 C.3    74  ARG74       0.0489
     72  CD        32.8950   17.5040   23.4920 C.3    74  ARG74       0.2205
     73  NE        32.8050   17.6740   24.9490 N.pl3  74  ARG74      -0.0865
     74  CZ        33.6810   17.1810   25.8350 C.cat  74  ARG74       0.5346
     75  NH1       34.7520   16.4920   25.4260 N.pl3  74  ARG74       0.1354
     76  NH2       33.4970   17.3820   27.1430 N.pl3  74  ARG74       0.1354
     77  N         36.9800   17.7700   19.5920 N.am   75  GLY75      -0.1942
     78  CA        38.3680   17.8090   19.1610 C.3    75  GLY75       0.2014
     79  C         38.7690   16.6460   18.2670 C.2    75  GLY75       0.2638
     80  O         39.9620   16.3960   18.0460 O.2    75  GLY75      -0.2714
     81  N         37.7740   15.9230   17.7590 N.am   76  ALA76      -0.1977
     82  CA        38.0050   15.0750   16.5880 C.3    76  ALA76       0.1597
     83  C         38.0180   15.9790   15.3530 C.2    76  ALA76       0.2287
     84  O         37.0940   16.7860   15.1700 O.2    76  ALA76      -0.2864
     85  CB        36.9250   14.0020   16.4620 C.3    76  ALA76       0.0319
@<TRIPOS>BOND
     1    13    12    2
     2    12    11    1
     3     4     3    2
     4    10    11    1
     5     1     2    1
     6     3     2    1
     7    26    27    1
     8    84    83    2
     9    83    82    1
    10    11    14    1
    11     2     5    1
    12    14    15    1
    13    29    28    2
    14    28    27    1
    15    27    30    1
    16    85    82    1
    17    82    81    1
    18    38    37    2
    19    35    36    1
    20     5     6    1
    21    30    31    1
    22    15    16    1
    23    15    17    1
    24    81    79   am
    25    37    36    1
    26     6     7    1
    27    80    79    2
    28    36    39    1
    29    79    78    1
    30    31    32    1
    31    39    40    1
    32    41    40   ar
    33    41    43   ar
    34    78    77    1
    35     7     8    1
    36    77    68   am
    37    40    42   ar
    38    32    33    2
    39    32    34   am
    40     8     9    1
    41    43    44   ar
    42    57    56    2
    43    68    69    2
    44    68    67    1
    45    66    67    1
    46    67    70    1
    47    42    44   ar
    48    42    45   ar
    49    56    55    1
    50    44    46   ar
    51    45    47   ar
    52    58    55    1
    53    58    59    1
    54    55    54    1
    55    46    48   ar
    56    70    71    1
    57    71    72    1
    58    54    51   am
    59    47    48   ar
    60    61    59   ar
    61    61    63   ar
    62    59    60   ar
    63    24    22    1
    64    72    73    1
    65    19    22    1
    66    19    20    1
    67    19    18    1
    68    51    52    2
    69    51    50    1
    70    22    23    1
    71    20    21    2
    72    49    50    1
    73    63    64   ar
    74    60    62   ar
    75    50    53    1
    76    73    74    2
    77    23    25    1
    78    75    74    1
    79    64    62   ar
    80    64    65    1
    81    74    76    1
