@<TRIPOS>MOLECULE
tmp/3tnfB01.pdb
 103 96 0 0 0
SMALL
GASTEIGER

@<TRIPOS>ATOM
      1  N         27.4130    0.5260   44.0510 N.3    53  LEU53      -0.1231
      2  CA        25.9640    0.7430   44.0220 C.3    53  LEU53       0.1693
      3  C         25.4600    1.3170   45.3600 C.2    53  LEU53       0.2592
      4  O         24.4790    2.0670   45.3890 O.2    53  LEU53      -0.2718
      5  CB        25.2490   -0.5710   43.7140 C.3    53  LEU53       0.0284
      6  CG        25.7500   -1.2770   42.4480 C.3    53  LEU53       0.0019
      7  CD1       25.0170   -2.6120   42.1770 C.3    53  LEU53       0.0001
      8  CD2       25.6130   -0.3370   41.2690 C.3    53  LEU53       0.0001
      9  N         26.1480    0.9570   46.4510 N.am   54  THR54      -0.1953
     10  CA        25.8050    1.4120   47.7920 C.3    54  THR54       0.1897
     11  C         26.6820    2.5620   48.3150 C.2    54  THR54       0.2313
     12  O         26.1990    3.4450   49.0220 O.2    54  THR54      -0.2863
     13  CB        25.8600    0.2480   48.8130 C.3    54  THR54       0.1794
     14  OG1       27.1700   -0.3370   48.8080 O.3    54  THR54      -0.2208
     15  CG2       24.8190   -0.8290   48.4610 C.3    54  THR54       0.0378
     16  N         28.7210    4.8390   46.5710 N.3    56  SER56      -0.1202
     17  CA        29.0990    5.9550   45.7030 C.3    56  SER56       0.2020
     18  C         28.6590    7.2970   46.3070 C.2    56  SER56       0.2619
     19  O         27.5970    7.4090   46.9370 O.2    56  SER56      -0.2717
     20  CB        28.4960    5.7810   44.3050 C.3    56  SER56       0.2103
     21  OG        28.6420    6.9720   43.5430 O.3    56  SER56      -0.2182
     22  N         29.4850    8.3160   46.1200 N.am   57  GLU57      -0.1965
     23  CA        29.0890    9.6760   46.4580 C.3    57  GLU57       0.1733
     24  C         27.9260   10.1300   45.5430 C.2    57  GLU57       0.2616
     25  O         27.8950    9.8070   44.3430 O.2    57  GLU57      -0.2715
     26  CB        30.3010   10.5830   46.3210 C.3    57  GLU57       0.0429
     27  CG        30.0160   12.0590   46.1100 C.3    57  GLU57       0.1163
     28  CD        31.2810   12.8120   45.7070 C.2    57  GLU57       0.3649
     29  OE1       31.3360   14.0440   45.9260 O.co2  57  GLU57      -0.2457
     30  OE2       32.2160   12.1640   45.1620 O.co2  57  GLU57      -0.2457
     31  N         26.9620   10.8430   46.1180 N.am   58  GLU58      -0.1963
     32  CA        25.7750   11.2850   45.3900 C.3    58  GLU58       0.1733
     33  C         26.0810   12.4150   44.4090 C.2    58  GLU58       0.2616
     34  O         27.1610   13.0250   44.4450 O.2    58  GLU58      -0.2715
     35  CB        24.6690   11.7350   46.3660 C.3    58  GLU58       0.0429
     36  CG        24.1400   10.5990   47.2460 C.3    58  GLU58       0.1163
     37  CD        23.0790   11.0360   48.2610 C.2    58  GLU58       0.3649
     38  OE1       22.5110   12.1450   48.1120 O.co2  58  GLU58      -0.2457
     39  OE2       22.8100   10.2560   49.2100 O.co2  58  GLU58      -0.2457
     40  N         25.1290   12.6750   43.5160 N.am   59  LEU59      -0.1977
     41  CA        25.1820   13.8780   42.7030 C.3    59  LEU59       0.1596
     42  C         24.9530   15.1070   43.5830 C.2    59  LEU59       0.2287
     43  O         24.0010   15.1650   44.3660 O.2    59  LEU59      -0.2864
     44  CB        24.1050   13.8340   41.6270 C.3    59  LEU59       0.0297
     45  CG        24.3230   12.8410   40.4930 C.3    59  LEU59       0.0022
     46  CD1       23.0650   12.7200   39.6240 C.3    59  LEU59       0.0001
     47  CD2       25.5140   13.2580   39.6480 C.3    59  LEU59       0.0001
     48  N         15.5060   13.8790   42.7090 N.3   112  LEU112     -0.1245
     49  CA        16.7680   14.1660   43.3810 C.3   112  LEU112      0.1561
     50  C         16.8460   15.6240   43.8370 C.2   112  LEU112      0.2260
     51  O         17.3270   15.9230   44.9340 O.2   112  LEU112     -0.2867
     52  CB        17.9510   13.8490   42.4460 C.3   112  LEU112      0.0270
     53  CG        18.6620   12.5190   42.7000 C.3   112  LEU112      0.0019
     54  CD1       17.6680   11.4390   43.0760 C.3   112  LEU112      0.0001
     55  CD2       19.5100   12.0860   41.5150 C.3   112  LEU112      0.0001
     56  N         20.5370    8.7270   49.9370 N.3   133  LEU133     -0.1231
     57  CA        19.8610    7.9470   48.9120 C.3   133  LEU133      0.1693
     58  C         20.2210    6.4700   49.0110 C.2   133  LEU133      0.2591
     59  O         19.3710    5.6010   48.8100 O.2   133  LEU133     -0.2718
     60  CB        20.2040    8.5070   47.5290 C.3   133  LEU133      0.0284
     61  CG        19.6720    7.7890   46.2850 C.3   133  LEU133      0.0019
     62  CD1       18.1570    7.7200   46.3190 C.3   133  LEU133      0.0001
     63  CD2       20.1680    8.4740   45.0050 C.3   133  LEU133      0.0001
     64  N         21.4780    6.1780   49.3300 N.am  134  LYS134     -0.1980
     65  CA        21.8870    4.7860   49.4800 C.3   134  LYS134      0.1596
     66  C         21.0350    4.0500   50.5120 C.2   134  LYS134      0.2287
     67  O         20.8650    2.8310   50.4150 O.2   134  LYS134     -0.2864
     68  CB        23.3610    4.6870   49.8590 C.3   134  LYS134      0.0298
     69  CG        23.7390    5.5340   51.0650 C.3   134  LYS134      0.0038
     70  CD        24.8990    4.9370   51.8370 C.3   134  LYS134      0.0206
     71  CE        25.6620    6.0550   52.5270 C.3   134  LYS134      0.1093
     72  NZ        26.3410    5.6060   53.7740 N.3   134  LYS134     -0.1314
     73  N         18.0810    5.7020   40.9870 N.3   189  LYS189     -0.1245
     74  CA        19.4120    5.4130   41.5060 C.3   189  LYS189      0.1561
     75  C         20.3660    5.0080   40.3970 C.2   189  LYS189      0.2260
     76  O         21.4850    5.5460   40.2950 O.2   189  LYS189     -0.2867
     77  CB        19.3500    4.3220   42.5810 C.3   189  LYS189      0.0271
     78  CG        18.7760    4.7780   43.9180 C.3   189  LYS189      0.0035
     79  CD        18.8230    3.6260   44.9240 C.3   189  LYS189      0.0206
     80  CE        18.3620    4.0600   46.3110 C.3   189  LYS189      0.1093
     81  NZ        18.6400    3.0030   47.3310 N.3   189  LYS189     -0.1314
     82  N         21.2180    7.9520   38.2420 N.3   192  ALA192     -0.1231
     83  CA        22.0840    8.8400   39.0360 C.3   192  ALA192      0.1694
     84  C         23.5250    8.3420   39.0330 C.2   192  ALA192      0.2591
     85  O         24.4780    9.1190   38.8670 O.2   192  ALA192     -0.2718
     86  CB        21.5630    8.9200   40.4650 C.3   192  ALA192      0.0304
     87  N         23.6740    7.0350   39.2220 N.am  193  LEU193     -0.1980
     88  CA        24.9830    6.3810   39.1410 C.3   193  LEU193      0.1596
     89  C         25.5920    6.6060   37.7650 C.2   193  LEU193      0.2287
     90  O         26.7560    6.9980   37.6270 O.2   193  LEU193     -0.2864
     91  CB        24.8070    4.8800   39.3500 C.3   193  LEU193      0.0297
     92  CG        25.6480    4.2310   40.4370 C.3   193  LEU193      0.0022
     93  CD1       26.8770    5.1060   40.7810 C.3   193  LEU193      0.0001
     94  CD2       24.7660    3.9810   41.6410 C.3   193  LEU193      0.0001
     95  N         26.6430   10.1850   37.3920 N.3   196  LYS196     -0.1245
     96  CA        27.8140   10.4410   38.2320 C.3   196  LYS196      0.1561
     97  C         29.0590    9.8920   37.5660 C.2   196  LYS196      0.2260
     98  O         30.0740   10.5880   37.4440 O.2   196  LYS196     -0.2867
     99  CB        27.6410    9.7860   39.6200 C.3   196  LYS196      0.0271
    100  CG        27.8400   10.7190   40.8040 C.3   196  LYS196      0.0035
    101  CD        29.2920   11.1660   40.9280 C.3   196  LYS196      0.0206
    102  CE        29.5680   11.8560   42.2730 C.3   196  LYS196      0.1093
    103  NZ        29.2380   13.3180   42.2930 N.3   196  LYS196     -0.1314
@<TRIPOS>BOND
     1    95    96    1
     2    98    97    2
     3    97    96    1
     4    90    89    2
     5    89    88    1
     6    96    99    1
     7    82    83    1
     8    85    84    2
     9    84    83    1
    10    84    87   am
    11    83    86    1
    12    88    87    1
    13    88    91    1
    14    91    92    1
    15    99   100    1
    16    46    45    1
    17    47    45    1
    18    76    75    2
    19    75    74    1
    20    92    93    1
    21    92    94    1
    22    45    44    1
    23   100   101    1
    24   101   102    1
    25    73    74    1
    26     8     6    1
    27    74    77    1
    28    55    53    1
    29    44    41    1
    30     7     6    1
    31   102   103    1
    32    52    53    1
    33    52    49    1
    34     6     5    1
    35    77    78    1
    36    53    54    1
    37    41    40    1
    38    41    42    1
    39    48    49    1
    40    49    50    1
    41    40    33   am
    42    21    20    1
    43    42    43    2
    44     5     2    1
    45    50    51    2
    46    78    79    1
    47     2     1    1
    48     2     3    1
    49    20    17    1
    50    25    24    2
    51    33    34    2
    52    33    32    1
    53    79    80    1
    54    63    61    1
    55    30    28   ar
    56     3     4    2
    57     3     9   am
    58    32    31    1
    59    32    35    1
    60    24    31   am
    61    24    23    1
    62    17    18    1
    63    17    16    1
    64    28    29   ar
    65    28    27    1
    66    27    26    1
    67    22    18   am
    68    22    23    1
    69    61    62    1
    70    61    60    1
    71    18    19    2
    72    80    81    1
    73    26    23    1
    74    35    36    1
    75     9    10    1
    76    36    37    1
    77    60    57    1
    78    10    11    1
    79    10    13    1
    80    38    37   ar
    81    37    39   ar
    82    11    12    2
    83    15    13    1
    84    14    13    1
    85    59    58    2
    86    57    58    1
    87    57    56    1
    88    58    64   am
    89    64    65    1
    90    65    68    1
    91    65    66    1
    92    68    69    1
    93    67    66    2
    94    69    70    1
    95    70    71    1
    96    71    72    1
