@<TRIPOS>MOLECULE
tmp/3tngA01.pdb
 91 85 0 0 0
SMALL
GASTEIGER

@<TRIPOS>ATOM
      1  N         20.9360  -24.0930   -2.6800 N.3   114  GLN114     -0.1245
      2  CA        20.0530  -25.1820   -3.0470 C.3   114  GLN114      0.1566
      3  C         19.7070  -25.9730   -1.7930 C.2   114  GLN114      0.2260
      4  O         20.5310  -26.1120   -0.8830 O.2   114  GLN114     -0.2867
      5  CB        20.7100  -26.0870   -4.0850 C.3   114  GLN114      0.0367
      6  CG        19.8340  -27.2680   -4.5400 C.3   114  GLN114      0.0905
      7  CD        19.9440  -28.5100   -3.6500 C.2   114  GLN114      0.2608
      8  OE1       20.7680  -28.5760   -2.7280 O.2   114  GLN114     -0.2717
      9  NE2       19.1120  -29.5150   -3.9410 N.am  114  GLN114     -0.0878
     10  N         23.5170  -29.0070   -1.9530 N.3   132  CYS132     -0.1221
     11  CA        23.9320  -30.1500   -2.7760 C.3   132  CYS132      0.1808
     12  C         24.2440  -29.7820   -4.2270 C.2   132  CYS132      0.2601
     13  O         24.6480  -30.6590   -5.0050 O.2   132  CYS132     -0.2717
     14  CB        22.8080  -31.2080   -2.8360 C.3   132  CYS132      0.0970
     15  SG        22.1860  -31.8140   -1.2580 S.3   132  CYS132     -0.0800
     16  N         24.0270  -28.5230   -4.6160 N.am  133  ALA133     -0.1979
     17  CA        24.0890  -28.1820   -6.0480 C.3   133  ALA133      0.1597
     18  C         24.5230  -26.7600   -6.3990 C.2   133  ALA133      0.2287
     19  O         24.7570  -26.4640   -7.5740 O.2   133  ALA133     -0.2864
     20  CB        22.7350  -28.4990   -6.7340 C.3   133  ALA133      0.0319
     21  N         26.0400  -33.3630   -2.9250 N.3   234  ASN234     -0.1240
     22  CA        25.5820  -33.9710   -4.1760 C.3   234  ASN234      0.1653
     23  C         25.6580  -35.4960   -4.1640 C.2   234  ASN234      0.2266
     24  O         24.7240  -36.1690   -4.5940 O.2   234  ASN234     -0.2867
     25  CB        26.3880  -33.4510   -5.3610 C.3   234  ASN234      0.1155
     26  CG        25.6450  -33.6210   -6.6680 C.2   234  ASN234      0.2627
     27  OD1       25.8840  -34.5650   -7.4260 O.2   234  ASN234     -0.2716
     28  ND2       24.7040  -32.7300   -6.9140 N.am  234  ASN234     -0.0877
     29  N         22.8960  -36.7140   -2.0050 N.3   237  TYR237     -0.1227
     30  CA        21.6560  -36.5660   -2.7370 C.3   237  TYR237      0.1736
     31  C         21.4980  -37.7450   -3.6880 C.2   237  TYR237      0.2595
     32  O         20.4610  -38.4170   -3.7270 O.2   237  TYR237     -0.2718
     33  CB        21.6730  -35.2300   -3.5150 C.3   237  TYR237      0.0548
     34  CG        20.4200  -34.9190   -4.3370 C.ar  237  TYR237     -0.0200
     35  CD1       19.6620  -33.7850   -4.0760 C.ar  237  TYR237     -0.0009
     36  CD2       20.0200  -35.7370   -5.3890 C.ar  237  TYR237     -0.0009
     37  CE1       18.5340  -33.4740   -4.8310 C.ar  237  TYR237      0.0417
     38  CE2       18.8830  -35.4320   -6.1560 C.ar  237  TYR237      0.0417
     39  CZ        18.1470  -34.3000   -5.8670 C.ar  237  TYR237      0.1957
     40  OH        17.0260  -33.9800   -6.6200 O.3   237  TYR237     -0.2866
     41  N         22.5290  -38.0110   -4.4670 N.am  238  LYS238     -0.1980
     42  CA        22.3850  -39.0400   -5.4840 C.3   238  LYS238      0.1596
     43  C         22.2840  -40.4500   -4.8730 C.2   238  LYS238      0.2287
     44  O         21.5260  -41.2750   -5.3580 O.2   238  LYS238     -0.2864
     45  CB        23.5120  -38.9420   -6.5240 C.3   238  LYS238      0.0298
     46  CG        23.6890  -37.5370   -7.1320 C.3   238  LYS238      0.0038
     47  CD        22.7370  -37.2760   -8.2430 C.3   238  LYS238      0.0206
     48  CE        22.7770  -35.8100   -8.7180 C.3   238  LYS238      0.1093
     49  NZ        24.0380  -35.4640   -9.4510 N.3   238  LYS238     -0.1314
     50  N         13.4890  -30.5240   -4.7080 N.3   250  SER250     -0.1217
     51  CA        14.6390  -29.6370   -4.5360 C.3   250  SER250      0.1889
     52  C         14.3480  -28.2070   -4.9970 C.2   250  SER250      0.2288
     53  O         13.5480  -27.9750   -5.9000 O.2   250  SER250     -0.2866
     54  CB        15.8650  -30.2210   -5.2620 C.3   250  SER250      0.2089
     55  OG        16.9160  -29.2790   -5.3330 O.3   250  SER250     -0.2183
     56  N         15.4990  -25.4560   -9.9180 N.3   261  ILE261     -0.1231
     57  CA        16.5830  -25.7130  -10.8450 C.3   261  ILE261      0.1692
     58  C         16.8330  -27.2000  -10.8490 C.2   261  ILE261      0.2593
     59  O         17.5900  -27.7190  -10.0260 O.2   261  ILE261     -0.2718
     60  CB        17.8660  -24.9740  -10.4490 C.3   261  ILE261      0.0266
     61  CG1       17.6580  -23.4660  -10.5770 C.3   261  ILE261      0.0019
     62  CG2       19.0330  -25.4310  -11.3260 C.3   261  ILE261      0.0020
     63  CD1       18.9340  -22.6700  -10.3950 C.3   261  ILE261      0.0001
     64  N         16.1680  -27.8830  -11.7680 N.am  262  SER262     -0.1938
     65  CA        16.2410  -29.3300  -11.8600 C.3   262  SER262      0.2055
     66  C         17.3390  -29.7420  -12.8080 C.2   262  SER262      0.2643
     67  O         17.7300  -28.9790  -13.6820 O.2   262  SER262     -0.2714
     68  CB        14.9000  -29.9000  -12.3230 C.3   262  SER262      0.2130
     69  OG        13.9940  -29.9470  -11.2380 O.3   262  SER262     -0.2179
     70  N         17.8390  -30.9590  -12.6550 N.am  263  SER263     -0.1949
     71  CA        18.9070  -31.3920  -13.5390 C.3   263  SER263      0.1924
     72  C         18.3710  -32.3870  -14.5710 C.2   263  SER263      0.2314
     73  O         17.2810  -32.9310  -14.4220 O.2   263  SER263     -0.2863
     74  CB        20.0760  -31.9720  -12.7370 C.3   263  SER263      0.2116
     75  OG        19.6600  -33.1190  -12.0370 O.3   263  SER263     -0.2180
     76  N         19.0090  -35.3360  -15.2630 N.3   265  ASN265     -0.1225
     77  CA        18.8910  -36.7290  -14.8340 C.3   265  ASN265      0.1785
     78  C         17.6590  -37.0160  -13.9560 C.2   265  ASN265      0.2597
     79  O         17.2310  -38.1670  -13.8480 O.2   265  ASN265     -0.2718
     80  CB        20.1640  -37.1520  -14.0890 C.3   265  ASN265      0.1169
     81  CG        20.3690  -36.3590  -12.7970 C.2   265  ASN265      0.2627
     82  OD1       20.7440  -35.1840  -12.8280 O.2   265  ASN265     -0.2716
     83  ND2       20.1180  -37.0030  -11.6530 N.am  265  ASN265     -0.0877
     84  N         17.0990  -35.9810  -13.3290 N.am  266  ASP266     -0.1974
     85  CA        15.9810  -36.1700  -12.4000 C.3   266  ASP266      0.1709
     86  C         14.7730  -36.8410  -13.0560 C.2   266  ASP266      0.2293
     87  O         14.4090  -36.5510  -14.2070 O.2   266  ASP266     -0.2864
     88  CB        15.5280  -34.8460  -11.7730 C.3   266  ASP266      0.1436
     89  CG        16.5920  -34.1960  -10.8860 C.2   266  ASP266      0.3671
     90  OD1       16.5260  -32.9480  -10.7240 O.co2 266  ASP266     -0.2456
     91  OD2       17.4670  -34.9140  -10.3350 O.co2 266  ASP266     -0.2456
@<TRIPOS>BOND
     1    76    77    1
     2    77    80    1
     3    77    78    1
     4    72    73    2
     5    72    71    1
     6    87    86    2
     7    80    81    1
     8    78    79    2
     9    78    84   am
    10    67    66    2
    11    71    74    1
    12    71    70    1
    13    84    85    1
    14    86    85    1
    15    82    81    2
    16    66    70   am
    17    66    65    1
    18    81    83   am
    19    74    75    1
    20    85    88    1
    21    68    65    1
    22    68    69    1
    23    65    64    1
    24    88    89    1
    25    64    58   am
    26    62    60    1
    27    89    90   ar
    28    89    91   ar
    29    58    57    1
    30    58    59    2
    31    57    60    1
    32    57    56    1
    33    61    60    1
    34    61    63    1
    35    49    48    1
    36    48    47    1
    37    47    46    1
    38    19    18    2
    39    27    26    2
    40    46    45    1
    41    28    26   am
    42    20    17    1
    43    26    25    1
    44    40    39    1
    45    45    42    1
    46    18    17    1
    47    38    39   ar
    48    38    36   ar
    49    17    16    1
    50    53    52    2
    51    39    37   ar
    52    42    43    1
    53    42    41    1
    54    36    34   ar
    55    25    22    1
    56    44    43    2
    57    55    54    1
    58    54    51    1
    59    13    12    2
    60    52    51    1
    61    37    35   ar
    62    50    51    1
    63    16    12   am
    64    24    23    2
    65     6     5    1
    66     6     7    1
    67    41    31   am
    68    34    35   ar
    69    34    33    1
    70    12    11    1
    71    22    23    1
    72    22    21    1
    73     5     2    1
    74     9     7   am
    75    32    31    2
    76    31    30    1
    77     7     8    2
    78    33    30    1
    79     2     1    1
    80     2     3    1
    81    14    11    1
    82    14    15    1
    83    11    10    1
    84    30    29    1
    85     3     4    2
