@<TRIPOS>MOLECULE
tmp/3tngA04.pdb
 76 75 0 0 0
SMALL
GASTEIGER

@<TRIPOS>ATOM
      1  N         12.2620  -32.5960  -21.4610 N.3    26  VAL26      -0.1231
      2  CA        12.8930  -32.6130  -20.1490 C.3    26  VAL26       0.1692
      3  C         12.3490  -31.4900  -19.2510 C.2    26  VAL26       0.2591
      4  O         12.4700  -31.5360  -18.0270 O.2    26  VAL26      -0.2718
      5  CB        14.4140  -32.4720  -20.2820 C.3    26  VAL26       0.0266
      6  CG1       15.0660  -32.5500  -18.9240 C.3    26  VAL26       0.0020
      7  CG2       14.9670  -33.5620  -21.2070 C.3    26  VAL26       0.0020
      8  N         11.7540  -30.4780  -19.8700 N.am   27  VAL27      -0.1980
      9  CA        11.2100  -29.3410  -19.1410 C.3    27  VAL27       0.1595
     10  C          9.6940  -29.4380  -19.1080 C.2    27  VAL27       0.2287
     11  O          9.0530  -29.2210  -18.0700 O.2    27  VAL27      -0.2864
     12  CB        11.6220  -28.0140  -19.8110 C.3    27  VAL27       0.0276
     13  CG1       10.8810  -26.8090  -19.1780 C.3    27  VAL27       0.0022
     14  CG2       13.1440  -27.8390  -19.7580 C.3    27  VAL27       0.0022
     15  N         13.7150  -22.6800  -13.8450 N.3    88  LYS88      -0.1231
     16  CA        14.6540  -22.7600  -14.9610 C.3    88  LYS88       0.1693
     17  C         14.1930  -23.7950  -15.9900 C.2    88  LYS88       0.2593
     18  O         13.9760  -24.9610  -15.6590 O.2    88  LYS88      -0.2718
     19  CB        16.0590  -23.1070  -14.4910 C.3    88  LYS88       0.0285
     20  CG        17.1050  -22.9190  -15.5830 C.3    88  LYS88       0.0035
     21  CD        18.3790  -23.7020  -15.3050 C.3    88  LYS88       0.0206
     22  CE        18.1910  -25.1760  -15.6350 C.3    88  LYS88       0.1093
     23  NZ        19.4840  -25.7760  -16.0530 N.3    88  LYS88      -0.1314
     24  N         14.0320  -23.3570  -17.2370 N.am   89  GLY89      -0.1942
     25  CA        13.6760  -24.2520  -18.3280 C.3    89  GLY89       0.2014
     26  C         14.8990  -24.8320  -19.0250 C.2    89  GLY89       0.2639
     27  O         15.8620  -25.2480  -18.3830 O.2    89  GLY89      -0.2714
     28  N         14.8690  -24.8590  -20.3500 N.am   90  PHE90      -0.1959
     29  CA        15.9450  -25.4810  -21.1080 C.3    90  PHE90       0.1771
     30  C         17.0470  -24.4620  -21.3810 C.2    90  PHE90       0.2619
     31  O         17.2950  -24.0950  -22.5290 O.2    90  PHE90      -0.2715
     32  CB        15.3980  -26.0680  -22.4120 C.3    90  PHE90       0.0574
     33  CG        16.3800  -26.9230  -23.1610 C.ar   90  PHE90      -0.0200
     34  CD1       16.6710  -28.2080  -22.7320 C.ar   90  PHE90      -0.0042
     35  CD2       16.9960  -26.4500  -24.3120 C.ar   90  PHE90      -0.0042
     36  CE1       17.5700  -28.9980  -23.4280 C.ar   90  PHE90      -0.0003
     37  CE2       17.8940  -27.2350  -25.0130 C.ar   90  PHE90      -0.0003
     38  CZ        18.1800  -28.5090  -24.5710 C.ar   90  PHE90      -0.0000
     39  N         17.6930  -23.9960  -20.3170 N.am   91  ILE91      -0.1964
     40  CA        18.7910  -23.0430  -20.4380 C.3    91  ILE91       0.1712
     41  C         19.8420  -23.3210  -19.3750 C.2    91  ILE91       0.2458
     42  O         19.5940  -24.0780  -18.4460 O.2    91  ILE91      -0.2730
     43  CB        18.3110  -21.5880  -20.2890 C.3    91  ILE91       0.0289
     44  CG1       17.7210  -21.3620  -18.8970 C.3    91  ILE91       0.0022
     45  CG2       17.2900  -21.2530  -21.3470 C.3    91  ILE91       0.0023
     46  CD1       17.2300  -19.9470  -18.6660 C.3    91  ILE91       0.0001
     47  N         21.0320  -22.7180  -19.5150 N.am   92  PRO92      -0.2727
     48  CA        22.0210  -22.9260  -18.4530 C.3    92  PRO92       0.1402
     49  C         21.6610  -22.2110  -17.1570 C.2    92  PRO92       0.2269
     50  O         21.0880  -21.1240  -17.1550 O.2    92  PRO92      -0.2865
     51  CB        23.3260  -22.3730  -19.0470 C.3    92  PRO92       0.0296
     52  CG        22.9280  -21.5680  -20.2260 C.3    92  PRO92       0.0237
     53  CD        21.6110  -22.0870  -20.7120 C.3    92  PRO92       0.0939
     54  N         16.1680  -27.8830  -11.7680 N.3   262  SER262     -0.1202
     55  CA        16.2410  -29.3300  -11.8600 C.3   262  SER262      0.2020
     56  C         17.3390  -29.7420  -12.8080 C.2   262  SER262      0.2619
     57  O         17.7300  -28.9790  -13.6820 O.2   262  SER262     -0.2717
     58  CB        14.9000  -29.9000  -12.3230 C.3   262  SER262      0.2103
     59  OG        13.9940  -29.9470  -11.2380 O.3   262  SER262     -0.2182
     60  N         17.8390  -30.9590  -12.6550 N.am  263  SER263     -0.1937
     61  CA        18.9070  -31.3920  -13.5390 C.3   263  SER263      0.2055
     62  C         18.3710  -32.3870  -14.5710 C.2   263  SER263      0.2642
     63  O         17.2810  -32.9310  -14.4220 O.2   263  SER263     -0.2714
     64  CB        20.0760  -31.9720  -12.7370 C.3   263  SER263      0.2130
     65  OG        19.6600  -33.1190  -12.0370 O.3   263  SER263     -0.2179
     66  N         19.1450  -32.6000  -15.6240 N.am  264  ARG264     -0.1977
     67  CA        18.7240  -33.4250  -16.7440 C.3   264  ARG264      0.1597
     68  C         18.3890  -34.8660  -16.3410 C.2   264  ARG264      0.2287
     69  O         17.5800  -35.5360  -16.9910 O.2   264  ARG264     -0.2864
     70  CB        19.8280  -33.4140  -17.8010 C.3   264  ARG264      0.0334
     71  CG        20.2020  -32.0120  -18.2730 C.3   264  ARG264      0.0492
     72  CD        21.6390  -31.9320  -18.7900 C.3   264  ARG264      0.2205
     73  NE        21.8100  -32.5820  -20.0840 N.pl3 264  ARG264     -0.0865
     74  CZ        22.8710  -32.4100  -20.8680 C.cat 264  ARG264      0.5346
     75  NH1       22.9510  -33.0420  -22.0350 N.pl3 264  ARG264      0.1354
     76  NH2       23.8500  -31.5990  -20.4860 N.pl3 264  ARG264      0.1354
@<TRIPOS>BOND
     1    37    38   ar
     2    37    35   ar
     3    38    36   ar
     4    35    33   ar
     5    36    34   ar
     6    33    34   ar
     7    33    32    1
     8    31    30    2
     9    32    29    1
    10    75    74    1
    11     1     2    1
    12    30    29    1
    13    30    39   am
    14    45    43    1
    15     7     5    1
    16    29    28    1
    17    74    76    1
    18    74    73    2
    19    53    52    1
    20    53    47    1
    21    40    39    1
    22    40    43    1
    23    40    41    1
    24    28    26   am
    25    43    44    1
    26     5     2    1
    27     5     6    1
    28    52    51    1
    29     2     3    1
    30    73    72    1
    31     8     3   am
    32     8     9    1
    33    12    14    1
    34    12    13    1
    35    12     9    1
    36    47    41   am
    37    47    48    1
    38    41    42    2
    39     3     4    2
    40     9    10    1
    41    10    11    2
    42    51    48    1
    43    26    27    2
    44    26    25    1
    45    44    46    1
    46    72    71    1
    47    48    49    1
    48    25    24    1
    49    71    70    1
    50    70    67    1
    51    24    17   am
    52    49    50    2
    53    69    68    2
    54    67    68    1
    55    67    66    1
    56    23    22    1
    57    17    18    2
    58    17    16    1
    59    22    21    1
    60    66    62   am
    61    20    21    1
    62    20    19    1
    63    16    19    1
    64    16    15    1
    65    62    63    2
    66    62    61    1
    67    57    56    2
    68    61    64    1
    69    61    60    1
    70    56    60   am
    71    56    55    1
    72    64    65    1
    73    58    55    1
    74    58    59    1
    75    55    54    1
