@<TRIPOS>MOLECULE
tmp/3tnhA00.pdb
 147 139 0 0 0
SMALL
GASTEIGER

@<TRIPOS>ATOM
      1  N         56.6600  -20.8610  -18.2710 N.3    18  ILE18      -0.1245
      2  CA        56.9740  -20.9470  -16.8360 C.3    18  ILE18       0.1561
      3  C         55.8030  -20.9030  -15.8660 C.2    18  ILE18       0.2260
      4  O         55.7750  -20.0550  -14.9830 O.2    18  ILE18      -0.2867
      5  CB        57.9650  -19.8380  -16.3840 C.3    18  ILE18       0.0252
      6  CG1       57.5770  -18.4680  -16.9710 C.3    18  ILE18       0.0019
      7  CG2       59.4200  -20.2400  -16.7220 C.3    18  ILE18       0.0019
      8  CD1       56.7050  -17.5560  -16.0720 C.3    18  ILE18       0.0001
      9  N         52.0870  -24.6850  -13.3960 N.3    22  THR22      -0.1203
     10  CA        51.5680  -23.7270  -12.4080 C.3    22  THR22       0.1994
     11  C         50.0770  -23.3720  -12.5620 C.2    22  THR22       0.2617
     12  O         49.6950  -22.2090  -12.3950 O.2    22  THR22      -0.2717
     13  CB        52.3730  -22.4000  -12.4050 C.3    22  THR22       0.1784
     14  OG1       51.9740  -21.5810  -13.5160 O.3    22  THR22      -0.2211
     15  CG2       53.8760  -22.6760  -12.4580 C.3    22  THR22       0.0376
     16  N         49.2580  -24.3680  -12.8970 N.am   23  PHE23      -0.1975
     17  CA        47.8320  -24.1750  -13.1620 C.3    23  PHE23       0.1639
     18  C         47.4930  -23.7770  -14.6180 C.2    23  PHE23       0.2290
     19  O         46.3260  -23.5500  -14.9280 O.2    23  PHE23      -0.2864
     20  CB        47.2980  -23.1150  -12.1650 C.3    23  PHE23       0.0560
     21  CG        45.8050  -22.8200  -12.2600 C.ar   23  PHE23      -0.0200
     22  CD1       44.8800  -23.5700  -11.5400 C.ar   23  PHE23      -0.0042
     23  CD2       45.3380  -21.7440  -13.0130 C.ar   23  PHE23      -0.0042
     24  CE1       43.5180  -23.2810  -11.6080 C.ar   23  PHE23      -0.0003
     25  CE2       43.9800  -21.4560  -13.0830 C.ar   23  PHE23      -0.0003
     26  CZ        43.0730  -22.2250  -12.3780 C.ar   23  PHE23      -0.0000
     27  N         51.2560  -19.9720  -18.8580 N.3    26  VAL26      -0.1245
     28  CA        51.9430  -18.7240  -18.5290 C.3    26  VAL26       0.1561
     29  C         53.3710  -18.7100  -19.1140 C.2    26  VAL26       0.2260
     30  O         54.1650  -19.6100  -18.8460 O.2    26  VAL26      -0.2867
     31  CB        51.9820  -18.5360  -16.9960 C.3    26  VAL26       0.0252
     32  CG1       52.5200  -17.1630  -16.6000 C.3    26  VAL26       0.0019
     33  CG2       50.5910  -18.7880  -16.4140 C.3    26  VAL26       0.0019
     34  N         54.8510  -11.4580  -17.7600 N.3    39  ALA39      -0.1245
     35  CA        54.2160  -12.7610  -17.7610 C.3    39  ALA39       0.1562
     36  C         52.9480  -12.6950  -18.5900 C.2    39  ALA39       0.2260
     37  O         52.0820  -11.8560  -18.3590 O.2    39  ALA39      -0.2867
     38  CB        53.8930  -13.1650  -16.3490 C.3    39  ALA39       0.0290
     39  N         49.5600  -14.6530  -19.5850 N.3    41  LYS41      -0.1245
     40  CA        48.6470  -15.7240  -19.2350 C.3    41  LYS41       0.1561
     41  C         47.5530  -15.8200  -20.3060 C.2    41  LYS41       0.2260
     42  O         46.7410  -14.9010  -20.4540 O.2    41  LYS41      -0.2867
     43  CB        48.0370  -15.4490  -17.8490 C.3    41  LYS41       0.0271
     44  CG        47.2580  -16.6050  -17.2950 C.3    41  LYS41       0.0035
     45  CD        46.3010  -16.2400  -16.1920 C.3    41  LYS41       0.0206
     46  CE        45.6180  -17.5250  -15.7110 C.3    41  LYS41       0.1093
     47  NZ        44.8140  -17.4560  -14.4510 N.3    41  LYS41      -0.1314
     48  N         38.5360  -12.4520  -12.6830 N.3    59  GLU59      -0.1245
     49  CA        39.9160  -12.1950  -12.3650 C.3    59  GLU59       0.1567
     50  C         40.3290  -10.8720  -12.9720 C.2    59  GLU59       0.2260
     51  O         40.9650  -10.0620  -12.3160 O.2    59  GLU59      -0.2867
     52  CB        40.7990  -13.3370  -12.8160 C.3    59  GLU59       0.0388
     53  CG        42.2180  -13.1460  -12.4070 C.3    59  GLU59       0.1160
     54  CD        43.0630  -14.3040  -12.7940 C.2    59  GLU59       0.3649
     55  OE1       42.5300  -15.2420  -13.4230 O.co2  59  GLU59      -0.2457
     56  OE2       44.2460  -14.3030  -12.4140 O.co2  59  GLU59      -0.2457
     57  N         41.7070   -8.0440  -10.5190 N.3    63  LEU63      -0.1245
     58  CA        43.0650   -7.5350  -10.7050 C.3    63  LEU63       0.1561
     59  C         43.1020   -6.0730  -11.0620 C.2    63  LEU63       0.2260
     60  O         44.0880   -5.4070  -10.7760 O.2    63  LEU63      -0.2867
     61  CB        43.8180   -8.3280  -11.7640 C.3    63  LEU63       0.0270
     62  CG        44.0140   -9.7680  -11.2990 C.3    63  LEU63       0.0019
     63  CD1       44.5380  -10.6220  -12.4220 C.3    63  LEU63       0.0001
     64  CD2       44.9070   -9.8520  -10.0770 C.3    63  LEU63       0.0001
     65  N         50.0570   -9.0360   -7.3400 N.3    72  VAL72      -0.1245
     66  CA        50.6420   -9.0950   -8.6750 C.3    72  VAL72       0.1561
     67  C         50.0430   -7.9780   -9.4930 C.2    72  VAL72       0.2260
     68  O         48.9630   -7.5030   -9.1730 O.2    72  VAL72      -0.2867
     69  CB        50.4620  -10.4850   -9.3600 C.3    72  VAL72       0.0252
     70  CG1       49.0260  -10.7250   -9.8600 C.3    72  VAL72       0.0019
     71  CG2       51.4830  -10.6350  -10.4660 C.3    72  VAL72       0.0019
     72  N         51.1460   -9.5800  -17.1450 N.3    86  PHE86      -0.1227
     73  CA        51.6120   -9.1220  -15.8160 C.3    86  PHE86       0.1736
     74  C         53.0750   -8.7230  -15.7660 C.2    86  PHE86       0.2595
     75  O         53.8780   -9.2180  -16.5430 O.2    86  PHE86      -0.2718
     76  CB        51.4270  -10.1950  -14.7450 C.3    86  PHE86       0.0547
     77  CG        50.0690  -10.7500  -14.7000 C.ar   86  PHE86      -0.0202
     78  CD1       49.1250  -10.2150  -13.8550 C.ar   86  PHE86      -0.0042
     79  CD2       49.7430  -11.8490  -15.4470 C.ar   86  PHE86      -0.0042
     80  CE1       47.8490  -10.7250  -13.8110 C.ar   86  PHE86      -0.0003
     81  CE2       48.4680  -12.3770  -15.3950 C.ar   86  PHE86      -0.0003
     82  CZ        47.5240  -11.8150  -14.5720 C.ar   86  PHE86      -0.0000
     83  N         53.4080   -7.7540  -14.9180 N.am   87  ASP87      -0.1960
     84  CA        54.7990   -7.5380  -14.5580 C.3    87  ASP87       0.1840
     85  C         55.3870   -8.8660  -14.0960 C.2    87  ASP87       0.2622
     86  O         54.8060   -9.5120  -13.2160 O.2    87  ASP87      -0.2715
     87  CB        54.9260   -6.5080  -13.4510 C.3    87  ASP87       0.1450
     88  CG        54.8390   -5.1020  -13.9730 C.2    87  ASP87       0.3671
     89  OD1       55.4020   -4.8320  -15.0560 O.co2  87  ASP87      -0.2456
     90  OD2       54.2640   -4.2470  -13.2720 O.co2  87  ASP87      -0.2456
     91  N         56.5410   -9.2510  -14.6590 N.am   88  PHE88      -0.1960
     92  CA        57.1890  -10.5350  -14.3680 C.3    88  PHE88       0.1771
     93  C         57.8370  -10.5060  -12.9900 C.2    88  PHE88       0.2619
     94  O         58.3700   -9.4650  -12.5910 O.2    88  PHE88      -0.2715
     95  CB        58.2220  -10.8950  -15.4380 C.3    88  PHE88       0.0574
     96  CG        58.9140  -12.2220  -15.2030 C.ar   88  PHE88      -0.0200
     97  CD1       58.2900  -13.4180  -15.5360 C.ar   88  PHE88      -0.0042
     98  CD2       60.1780  -12.2850  -14.6400 C.ar   88  PHE88      -0.0042
     99  CE1       58.9220  -14.6500  -15.3200 C.ar   88  PHE88      -0.0003
    100  CE2       60.8110  -13.5160  -14.4140 C.ar   88  PHE88      -0.0003
    101  CZ        60.1770  -14.6900  -14.7490 C.ar   88  PHE88      -0.0000
    102  N         57.7790  -11.6450  -12.2860 N.am   89  CYS89      -0.1968
    103  CA        58.3710  -11.8530  -10.9470 C.3    89  CYS89       0.1712
    104  C         59.2170  -13.0910  -11.0190 C.2    89  CYS89       0.2296
    105  O         58.6850  -14.1660  -11.3250 O.2    89  CYS89      -0.2864
    106  CB        57.3190  -12.0730   -9.8670 C.3    89  CYS89       0.0983
    107  SG        56.0590  -10.8590   -9.7740 S.3    89  CYS89      -0.0798
    108  N         59.0510  -17.7610   -6.8690 N.3    92  ASP92      -0.1239
    109  CA        57.7790  -18.0360   -6.2150 C.3    92  ASP92       0.1674
    110  C         58.0720  -18.8360   -4.9460 C.2    92  ASP92       0.2266
    111  O         58.9040  -19.7460   -4.9670 O.2    92  ASP92      -0.2867
    112  CB        56.8290  -18.8150   -7.1320 C.3    92  ASP92       0.1410
    113  CG        57.2390  -20.2650   -7.3030 C.2    92  ASP92       0.3668
    114  OD1       58.1970  -20.5360   -8.0500 O.co2  92  ASP92      -0.2456
    115  OD2       56.6040  -21.1410   -6.6830 O.co2  92  ASP92      -0.2456
    116  N         54.4240  -14.9830   -5.1610 N.3   139  LEU139     -0.1245
    117  CA        55.5970  -14.6360   -5.9690 C.3   139  LEU139      0.1561
    118  C         56.5200  -13.7060   -5.1930 C.2   139  LEU139      0.2260
    119  O         56.0940  -13.0320   -4.2600 O.2   139  LEU139     -0.2867
    120  CB        55.1760  -13.9650   -7.2830 C.3   139  LEU139      0.0270
    121  CG        54.2180  -14.7920   -8.1420 C.3   139  LEU139      0.0019
    122  CD1       53.9270  -14.1600   -9.4850 C.3   139  LEU139      0.0001
    123  CD2       54.7570  -16.1900   -8.2870 C.3   139  LEU139      0.0001
    124  N         49.5100  -13.9660   -6.2560 N.3   149  ALA149     -0.1231
    125  CA        49.1460  -14.1880   -7.6530 C.3   149  ALA149      0.1694
    126  C         48.0700  -15.2770   -7.8170 C.2   149  ALA149      0.2592
    127  O         47.7260  -15.9830   -6.8790 O.2   149  ALA149     -0.2718
    128  CB        50.3700  -14.5150   -8.4650 C.3   149  ALA149      0.0304
    129  N         47.5730  -15.4270   -9.0330 N.am  150  ASP150     -0.1960
    130  CA        46.5920  -16.4550   -9.3740 C.3   150  ASP150      0.1840
    131  C         45.2650  -16.2070   -8.6220 C.2   150  ASP150      0.2622
    132  O         44.9000  -16.8640   -7.6290 O.2   150  ASP150     -0.2715
    133  CB        47.1330  -17.8680   -9.1180 C.3   150  ASP150      0.1450
    134  CG        46.3710  -18.9610   -9.9280 C.2   150  ASP150      0.3671
    135  OD1       45.2960  -18.7010  -10.5460 O.co2 150  ASP150     -0.2456
    136  OD2       46.8620  -20.1110   -9.9240 O.co2 150  ASP150     -0.2456
    137  N         44.5450  -15.2300   -9.1570 N.am  151  PHE151     -0.1974
    138  CA        43.2600  -14.8160   -8.6430 C.3   151  PHE151      0.1639
    139  C         42.1290  -15.4560   -9.4130 C.2   151  PHE151      0.2290
    140  O         41.0050  -14.9710   -9.4180 O.2   151  PHE151     -0.2864
    141  CB        43.1480  -13.2960   -8.6470 C.3   151  PHE151      0.0560
    142  CG        43.9040  -12.6240   -7.5210 C.ar  151  PHE151     -0.0200
    143  CD1       43.2440  -12.2090   -6.3760 C.ar  151  PHE151     -0.0042
    144  CD2       45.2540  -12.4300   -7.5910 C.ar  151  PHE151     -0.0042
    145  CE1       43.9170  -11.5960   -5.3430 C.ar  151  PHE151     -0.0003
    146  CE2       45.9210  -11.8140   -6.5500 C.ar  151  PHE151     -0.0003
    147  CZ        45.2450  -11.4000   -5.4280 C.ar  151  PHE151     -0.0000
@<TRIPOS>BOND
     1    42    41    2
     2    41    40    1
     3    39    40    1
     4    40    43    1
     5    29    30    2
     6    29    28    1
     7    27    28    1
     8    36    37    2
     9    36    35    1
    10    28    31    1
    11     1     2    1
    12    43    44    1
    13    35    34    1
    14    35    38    1
    15    44    45    1
    16    72    73    1
    17    31    32    1
    18    31    33    1
    19     6     5    1
    20     6     8    1
    21     2     5    1
    22     2     3    1
    23     7     5    1
    24    75    74    2
    25    45    46    1
    26     3     4    2
    27    73    74    1
    28    73    76    1
    29    74    83   am
    30    46    47    1
    31    97    99   ar
    32    97    96   ar
    33    79    81   ar
    34    79    77   ar
    35    95    96    1
    36    95    92    1
    37    81    82   ar
    38    99   101   ar
    39    96    98   ar
    40    89    88   ar
    41    19    18    2
    42    83    84    1
    43   101   100   ar
    44    76    77    1
    45    77    78   ar
    46    91    92    1
    47    91    85   am
    48    98   100   ar
    49    18    17    1
    50    82    80   ar
    51    84    85    1
    52    84    87    1
    53    92    93    1
    54    85    86    2
    55    88    87    1
    56    88    90   ar
    57    78    80   ar
    58    14    13    1
    59    55    54   ar
    60     9    10    1
    61    17    16    1
    62    17    20    1
    63    25    23   ar
    64    25    26   ar
    65    23    21   ar
    66    93    94    2
    67    93   102   am
    68    50    49    1
    69    50    51    2
    70    16    11   am
    71    52    53    1
    72    52    49    1
    73    54    56   ar
    74    54    53    1
    75    48    49    1
    76    11    10    1
    77    11    12    2
    78    15    13    1
    79    63    62    1
    80    10    13    1
    81    26    24   ar
    82   102   103    1
    83    21    20    1
    84    21    22   ar
    85    61    62    1
    86    61    58    1
    87    24    22   ar
    88   105   104    2
    89    62    64    1
    90    59    60    2
    91    59    58    1
    92   104   103    1
    93   103   106    1
    94    58    57    1
    95   135   134   ar
    96    71    69    1
    97   134   136   ar
    98   134   133    1
    99   106   107    1
   100    70    69    1
   101    67    68    2
   102    67    66    1
   103   122   121    1
   104   140   139    2
   105   139   138    1
   106   130   133    1
   107   130   129    1
   108   130   131    1
   109    69    66    1
   110   137   138    1
   111   137   131   am
   112   129   126   am
   113    66    65    1
   114   141   138    1
   115   141   142    1
   116   131   132    2
   117   128   125    1
   118   123   121    1
   119   121   120    1
   120   114   113   ar
   121   126   125    1
   122   126   127    2
   123   125   124    1
   124   144   142   ar
   125   144   146   ar
   126   142   143   ar
   127   113   112    1
   128   113   115   ar
   129   120   117    1
   130   112   109    1
   131   108   109    1
   132   146   147   ar
   133   143   145   ar
   134   109   110    1
   135   117   118    1
   136   117   116    1
   137   147   145   ar
   138   118   119    2
   139   111   110    2
