@<TRIPOS>MOLECULE
tmp/3tnjA00.pdb
 153 145 0 0 0
SMALL
GASTEIGER

@<TRIPOS>ATOM
      1  N        -25.5000  -10.1670   -6.3820 N.3     9  ALA9       -0.1231
      2  CA       -24.2870  -10.9400   -6.6510 C.3     9  ALA9        0.1694
      3  C        -24.1450  -12.0160   -5.5760 C.2     9  ALA9        0.2592
      4  O        -24.0690  -11.7140   -4.3780 O.2     9  ALA9       -0.2718
      5  CB       -23.0580  -10.0060   -6.6790 C.3     9  ALA9        0.0304
      6  N        -24.1400  -13.2830   -5.9850 N.am   10  VAL10      -0.1966
      7  CA       -24.0610  -14.4010   -5.0130 C.3    10  VAL10       0.1727
      8  C        -22.8400  -15.2680   -5.3130 C.2    10  VAL10       0.2616
      9  O        -22.5780  -15.5900   -6.4880 O.2    10  VAL10      -0.2715
     10  CB       -25.3530  -15.2820   -4.9830 C.3    10  VAL10       0.0290
     11  CG1      -26.4940  -14.6220   -4.1850 C.3    10  VAL10       0.0023
     12  CG2      -25.8010  -15.6120   -6.3830 C.3    10  VAL10       0.0023
     13  N        -22.0890  -15.6220   -4.2600 N.am   11  ASP11      -0.1971
     14  CA       -20.8380  -16.4090   -4.3780 C.3    11  ASP11       0.1709
     15  C        -21.0430  -17.8650   -4.0240 C.2    11  ASP11       0.2293
     16  O        -20.0930  -18.6420   -4.0600 O.2    11  ASP11      -0.2864
     17  CB       -19.6870  -15.8360   -3.5150 C.3    11  ASP11       0.1436
     18  CG       -19.9540  -15.9040   -2.0290 C.2    11  ASP11       0.3671
     19  OD1      -20.9550  -16.5250   -1.6100 O.co2  11  ASP11      -0.2456
     20  OD2      -19.1580  -15.3400   -1.2380 O.co2  11  ASP11      -0.2456
     21  N        -23.1620  -17.9380    3.4270 N.3    15  GLU15      -0.1231
     22  CA       -23.5670  -16.5400    3.6710 C.3    15  GLU15       0.1699
     23  C        -24.7030  -16.0140    2.7900 C.2    15  GLU15       0.2592
     24  O        -25.4280  -15.1040    3.1900 O.2    15  GLU15      -0.2718
     25  CB       -22.3430  -15.6360    3.5040 C.3    15  GLU15       0.0402
     26  CG       -21.2610  -15.9200    4.5510 C.3    15  GLU15       0.1161
     27  CD       -19.8360  -15.5820    4.1060 C.2    15  GLU15       0.3649
     28  OE1      -19.6100  -15.2080    2.9170 O.co2  15  GLU15      -0.2457
     29  OE2      -18.9290  -15.6960    4.9710 O.co2  15  GLU15      -0.2457
     30  N        -24.8700  -16.5990    1.6100 N.am   16  ASP16      -0.1974
     31  CA       -25.8510  -16.1080    0.6470 C.3    16  ASP16       0.1709
     32  C        -27.2580  -16.0530    1.2500 C.2    16  ASP16       0.2293
     33  O        -28.0190  -15.1290    0.9700 O.2    16  ASP16      -0.2864
     34  CB       -25.9220  -17.0200   -0.5820 C.3    16  ASP16       0.1436
     35  CG       -24.8880  -16.6860   -1.6510 C.2    16  ASP16       0.3671
     36  OD1      -24.1200  -15.6760   -1.5730 O.co2  16  ASP16      -0.2456
     37  OD2      -24.8830  -17.4880   -2.6080 O.co2  16  ASP16      -0.2456
     38  N        -28.5770  -12.6900    2.5710 N.3    19  VAL19      -0.1245
     39  CA       -28.8480  -11.6980    1.5610 C.3    19  VAL19       0.1561
     40  C        -30.0640  -12.0330    0.6770 C.2    19  VAL19       0.2260
     41  O        -30.7170  -11.1110    0.1860 O.2    19  VAL19      -0.2867
     42  CB       -27.5820  -11.4200    0.7390 C.3    19  VAL19       0.0252
     43  CG1      -27.2840  -12.5760   -0.1890 C.3    19  VAL19       0.0019
     44  CG2      -27.6800  -10.0860   -0.0050 C.3    19  VAL19       0.0019
     45  N        -26.5060  -12.6410  -10.4040 N.3    37  ILE37      -0.1231
     46  CA       -25.2090  -12.9910  -11.0100 C.3    37  ILE37       0.1692
     47  C        -24.3480  -13.8580  -10.0740 C.2    37  ILE37       0.2592
     48  O        -24.1410  -13.5490   -8.8750 O.2    37  ILE37      -0.2718
     49  CB       -24.4250  -11.7270  -11.4170 C.3    37  ILE37       0.0266
     50  CG1      -23.1370  -12.0960  -12.1700 C.3    37  ILE37       0.0019
     51  CG2      -24.0920  -10.8610  -10.2090 C.3    37  ILE37       0.0020
     52  CD1      -22.4430  -10.8980  -12.8100 C.3    37  ILE37       0.0001
     53  N        -23.8180  -14.9400  -10.6470 N.am   38  HIS38      -0.1962
     54  CA       -22.6760  -15.6250  -10.0700 C.3    38  HIS38       0.1787
     55  C        -21.5500  -15.6850  -11.0860 C.2    38  HIS38       0.2620
     56  O        -21.7610  -15.9790  -12.2900 O.2    38  HIS38      -0.2715
     57  CB       -23.0480  -17.0060   -9.5350 C.3    38  HIS38       0.0785
     58  CG       -21.8760  -17.7640   -9.0080 C.ar   38  HIS38       0.0821
     59  ND1      -21.3660  -17.5170   -7.8000 N.ar   38  HIS38      -0.2267
     60  CD2      -21.0650  -18.7490   -9.5880 C.ar   38  HIS38       0.1154
     61  CE1      -20.3010  -18.3100   -7.5760 C.ar   38  HIS38       0.1986
     62  NE2      -20.1120  -19.0760   -8.6620 N.ar   38  HIS38      -0.2212
     63  N        -20.3500  -15.3380  -10.6100 N.am   39  VAL39      -0.1977
     64  CA       -19.1400  -15.3260  -11.4220 C.3    39  VAL39       0.1596
     65  C        -18.3250  -16.5980  -11.1380 C.2    39  VAL39       0.2287
     66  O        -17.9990  -16.9300   -9.9750 O.2    39  VAL39      -0.2864
     67  CB       -18.2540  -14.0730  -11.1880 C.3    39  VAL39       0.0276
     68  CG1      -17.1220  -14.0670  -12.2020 C.3    39  VAL39       0.0022
     69  CG2      -19.0500  -12.7770  -11.2900 C.3    39  VAL39       0.0022
     70  N        -15.0220  -18.1300  -10.9570 N.3    41  ASP41      -0.1239
     71  CA       -13.6160  -17.7080  -10.7460 C.3    41  ASP41       0.1674
     72  C        -12.6800  -18.8420  -10.2880 C.2    41  ASP41       0.2266
     73  O        -12.1290  -19.5800  -11.1070 O.2    41  ASP41      -0.2867
     74  CB       -13.5580  -16.5470   -9.7400 C.3    41  ASP41       0.1410
     75  CG       -14.3450  -16.8270   -8.4660 C.2    41  ASP41       0.3668
     76  OD1      -14.7680  -17.9950   -8.2530 O.co2  41  ASP41      -0.2456
     77  OD2      -14.5360  -15.8720   -7.6800 O.co2  41  ASP41      -0.2456
     78  N        -14.7460  -11.5510  -10.3180 N.3    86  PRO86      -0.2116
     79  CA       -16.0230  -11.1020   -9.7660 C.3    86  PRO86       0.1372
     80  C        -16.2850   -9.6000   -9.8750 C.2    86  PRO86       0.2244
     81  O        -17.2780   -9.2120  -10.4980 O.2    86  PRO86      -0.2868
     82  CB       -15.9380  -11.5700   -8.3140 C.3    86  PRO86       0.0268
     83  CG       -15.1800  -12.8390   -8.4240 C.3    86  PRO86       0.0207
     84  CD       -14.1490  -12.6000   -9.4730 C.3    86  PRO86       0.0892
     85  N        -19.2760   -8.4110  -12.3520 N.3    90  ILE90      -0.1245
     86  CA       -20.4220   -7.8250  -11.6610 C.3    90  ILE90       0.1561
     87  C        -20.7050   -6.4160  -12.1990 C.2    90  ILE90       0.2260
     88  O        -21.8460   -6.1040  -12.5410 O.2    90  ILE90      -0.2867
     89  CB       -20.2070   -7.7230  -10.1560 C.3    90  ILE90       0.0252
     90  CG1      -20.2720   -9.1090   -9.4950 C.3    90  ILE90       0.0019
     91  CG2      -21.2740   -6.8240   -9.5470 C.3    90  ILE90       0.0019
     92  CD1      -19.6400   -9.1000   -8.1040 C.3    90  ILE90       0.0001
     93  N        -24.0910   -6.5980   -2.8000 N.3   104  VAL104     -0.1231
     94  CA       -22.9970   -7.5030   -2.4960 C.3   104  VAL104      0.1692
     95  C        -22.9370   -7.7530   -0.9860 C.2   104  VAL104      0.2593
     96  O        -23.3950   -6.9430   -0.1980 O.2   104  VAL104     -0.2718
     97  CB       -21.6490   -6.9360   -3.0210 C.3   104  VAL104      0.0266
     98  CG1      -21.6730   -6.9310   -4.5360 C.3   104  VAL104      0.0020
     99  CG2      -21.3620   -5.5270   -2.4790 C.3   104  VAL104      0.0020
    100  N        -22.4170   -8.9130   -0.5990 N.am  105  GLY105     -0.1942
    101  CA       -22.1170   -9.2080    0.7840 C.3   105  GLY105      0.2014
    102  C        -20.7780   -8.6450    1.1670 C.2   105  GLY105      0.2640
    103  O        -19.9310   -8.3980    0.3070 O.2   105  GLY105     -0.2714
    104  N        -20.5770   -8.4690    2.4670 N.am  106  SER106     -0.1935
    105  CA       -19.3660   -7.8890    2.9800 C.3   106  SER106      0.2055
    106  C        -19.0310   -8.5110    4.3200 C.2   106  SER106      0.2643
    107  O        -19.8810   -8.5880    5.1780 O.2   106  SER106     -0.2714
    108  CB       -19.5480   -6.3980    3.1510 C.3   106  SER106      0.2130
    109  OG       -18.3530   -5.8160    3.6130 O.3   106  SER106     -0.2179
    110  N        -17.7930   -8.9630    4.4800 N.am  107  HIS107     -0.1973
    111  CA       -17.3230   -9.5150    5.7640 C.3   107  HIS107      0.1656
    112  C        -16.6420   -8.4930    6.6340 C.2   107  HIS107      0.2291
    113  O        -16.0550   -7.5190    6.1450 O.2   107  HIS107     -0.2864
    114  CB       -16.3820  -10.6660    5.5000 C.3   107  HIS107      0.0771
    115  CG       -16.9690  -11.7210    4.6060 C.ar  107  HIS107      0.0820
    116  ND1      -16.5300  -11.9320    3.3410 N.ar  107  HIS107     -0.2267
    117  CD2      -18.0020  -12.6320    4.8290 C.ar  107  HIS107      0.1154
    118  CE1      -17.2500  -12.9300    2.7870 C.ar  107  HIS107      0.1986
    119  NE2      -18.1440  -13.3610    3.7020 N.ar  107  HIS107     -0.2212
    120  N         -7.1320   -6.8050    2.3150 N.3   108  LEU108     -0.1245
    121  CA        -7.9890   -6.7820    1.1250 C.3   108  LEU108      0.1561
    122  C         -8.4990   -5.3580    0.8040 C.2   108  LEU108      0.2260
    123  O         -8.4980   -4.5040    1.6920 O.2   108  LEU108     -0.2867
    124  CB        -9.1740   -7.7340    1.3260 C.3   108  LEU108      0.0270
    125  CG        -8.8240   -9.1950    1.5810 C.3   108  LEU108      0.0019
    126  CD1      -10.0470  -10.0010    1.9640 C.3   108  LEU108      0.0001
    127  CD2       -8.1490   -9.8320    0.3810 C.3   108  LEU108      0.0001
    128  N        -11.2590   -6.6850   -0.8640 N.3   110  SER110     -0.1202
    129  CA       -12.5370   -7.4410   -0.9230 C.3   110  SER110      0.2020
    130  C        -13.3930   -7.1180   -2.1760 C.2   110  SER110      0.2619
    131  O        -13.2400   -6.0600   -2.7920 O.2   110  SER110     -0.2717
    132  CB       -13.3660   -7.2060    0.3610 C.3   110  SER110      0.2103
    133  OG       -14.0510   -5.9540    0.3650 O.3   110  SER110     -0.2182
    134  N        -14.2930   -8.0270   -2.5390 N.am  111  THR111     -0.1938
    135  CA       -15.1740   -7.7950   -3.6940 C.3   111  THR111      0.2028
    136  C        -16.0800   -6.5740   -3.4270 C.2   111  THR111      0.2642
    137  O        -16.1930   -5.6840   -4.2930 O.2   111  THR111     -0.2714
    138  CB       -16.0130   -9.0400   -4.0710 C.3   111  THR111      0.1808
    139  OG1      -15.1620  -10.1780   -4.2200 O.3   111  THR111     -0.2208
    140  CG2      -16.8070   -8.8190   -5.3870 C.3   111  THR111      0.0379
    141  N        -16.7000   -6.5080   -2.2440 N.am  112  ALA112     -0.1977
    142  CA       -17.5580   -5.3550   -1.9140 C.3   112  ALA112      0.1597
    143  C        -16.8300   -4.0200   -2.1420 C.2   112  ALA112      0.2287
    144  O        -17.3090   -3.1380   -2.8520 O.2   112  ALA112     -0.2864
    145  CB       -18.0240   -5.4290   -0.4690 C.3   112  ALA112      0.0319
    146  N        -22.2830   -9.5020    6.3110 N.3   128  LEU128     -0.1245
    147  CA       -22.4830  -10.9580    6.4330 C.3   128  LEU128      0.1561
    148  C        -21.9740  -11.4500    7.7910 C.2   128  LEU128      0.2260
    149  O        -21.0810  -10.8450    8.3870 O.2   128  LEU128     -0.2867
    150  CB       -21.7360  -11.7110    5.3290 C.3   128  LEU128      0.0270
    151  CG       -22.1150  -11.3960    3.8840 C.3   128  LEU128      0.0019
    152  CD1      -21.0350  -11.9260    2.9440 C.3   128  LEU128      0.0001
    153  CD2      -23.4860  -11.9720    3.5790 C.3   128  LEU128      0.0001
@<TRIPOS>BOND
     1    52    50    1
     2    88    87    2
     3    85    86    1
     4    56    55    2
     5    68    67    1
     6    87    86    1
     7    50    49    1
     8    86    89    1
     9    64    67    1
    10    64    65    1
    11    64    63    1
    12    49    46    1
    13    49    51    1
    14    69    67    1
    15    65    66    2
    16    73    72    2
    17    55    63   am
    18    55    54    1
    19    46    45    1
    20    46    47    1
    21    70    71    1
    22    71    72    1
    23    71    74    1
    24    53    47   am
    25    53    54    1
    26    81    80    2
    27    78    79    1
    28    78    84    1
    29    89    91    1
    30    89    90    1
    31    47    48    2
    32    54    57    1
    33    80    79    1
    34    79    82    1
    35    74    75    1
    36    60    58   ar
    37    60    62   ar
    38    57    58    1
    39    90    92    1
    40    84    83    1
    41    58    59   ar
    42    62    61   ar
    43    75    76   ar
    44    75    77   ar
    45    83    82    1
    46    59    61   ar
    47     5     2    1
    48     2     1    1
    49     2     3    1
    50     9     8    2
    51    12    10    1
    52     6     3   am
    53     6     7    1
    54     3     4    2
    55   140   138    1
    56     8     7    1
    57     8    13   am
    58     7    10    1
    59    10    11    1
    60    98    97    1
    61    14    13    1
    62    14    15    1
    63    14    17    1
    64   137   136    2
    65   139   138    1
    66   138   135    1
    67    16    15    2
    68   135   136    1
    69   135   134    1
    70    17    18    1
    71   136   141   am
    72    97    94    1
    73    97    99    1
    74   144   143    2
    75    93    94    1
    76   131   130    2
    77    37    35   ar
    78   134   130   am
    79    94    95    1
    80   141   142    1
    81   130   129    1
    82   143   142    1
    83    18    19   ar
    84    18    20   ar
    85   142   145    1
    86    35    36   ar
    87    35    34    1
    88    95   100   am
    89    95    96    2
    90   129   128    1
    91   129   132    1
    92   100   101    1
    93    34    31    1
    94    43    42    1
    95    44    42    1
    96    41    40    2
    97   103   102    2
    98   132   133    1
    99   127   125    1
   100    31    32    1
   101    31    30    1
   102    40    39    1
   103    42    39    1
   104   101   102    1
   105   122   121    1
   106   122   123    2
   107    33    32    2
   108   121   124    1
   109   121   120    1
   110   102   104   am
   111   124   125    1
   112    39    38    1
   113   125   126    1
   114    30    23   am
   115   104   105    1
   116   118   116   ar
   117   118   119   ar
   118    23    24    2
   119    23    22    1
   120    28    27   ar
   121   152   151    1
   122   105   108    1
   123   105   106    1
   124   108   109    1
   125   116   115   ar
   126    21    22    1
   127    25    22    1
   128    25    26    1
   129   153   151    1
   130   119   117   ar
   131   151   150    1
   132    27    26    1
   133    27    29   ar
   134   106   110   am
   135   106   107    2
   136   110   111    1
   137   115   117   ar
   138   115   114    1
   139   150   147    1
   140   114   111    1
   141   111   112    1
   142   113   112    2
   143   146   147    1
   144   147   148    1
   145   148   149    2
