@<TRIPOS>MOLECULE
tmp/3tnlC01.pdb
 103 93 0 0 0
SMALL
GASTEIGER

@<TRIPOS>ATOM
      1  N         -3.8300   31.5050   24.6970 N.3    16  LEU16      -0.1245
      2  CA        -3.0970   31.2710   23.4460 C.3    16  LEU16       0.1561
      3  C         -1.9610   30.3210   23.8510 C.2    16  LEU16       0.2260
      4  O         -1.1390   30.6870   24.6870 O.2    16  LEU16      -0.2867
      5  CB        -2.5810   32.5720   22.7950 C.3    16  LEU16       0.0270
      6  CG        -1.5380   32.4340   21.6640 C.3    16  LEU16       0.0019
      7  CD1       -1.9960   31.5960   20.4690 C.3    16  LEU16       0.0001
      8  CD2       -1.1510   33.8370   21.2020 C.3    16  LEU16       0.0001
      9  N          6.0200   32.0850   21.4490 N.3    21  ILE21      -0.1245
     10  CA         4.7850   32.8270   21.2470 C.3    21  ILE21       0.1561
     11  C          4.7380   34.2160   21.8950 C.2    21  ILE21       0.2260
     12  O          3.8460   35.0100   21.5680 O.2    21  ILE21      -0.2867
     13  CB         3.5920   32.0080   21.8050 C.3    21  ILE21       0.0252
     14  CG1        2.2560   32.5260   21.2200 C.3    21  ILE21       0.0019
     15  CG2        3.6030   32.0370   23.3430 C.3    21  ILE21       0.0019
     16  CD1        2.2010   32.5170   19.6940 C.3    21  ILE21       0.0001
     17  N          3.8430   37.4730   20.0280 N.3    24  SER24      -0.1217
     18  CA         2.5970   37.5340   19.2860 C.3    24  SER24       0.1889
     19  C          1.8370   38.8360   19.4450 C.2    24  SER24       0.2288
     20  O          1.8200   39.4220   20.5350 O.2    24  SER24      -0.2866
     21  CB         1.6890   36.3630   19.7080 C.3    24  SER24       0.2089
     22  OG         0.4000   36.4870   19.0970 O.3    24  SER24      -0.2183
     23  N         -1.3980   38.7260   18.8350 N.3    26  SER26      -0.1217
     24  CA        -2.7730   38.3190   19.2020 C.3    26  SER26       0.1889
     25  C         -3.3070   38.8850   20.5180 C.2    26  SER26       0.2288
     26  O         -4.4440   39.3410   20.5490 O.2    26  SER26      -0.2866
     27  CB        -2.9530   36.8100   19.1990 C.3    26  SER26       0.2089
     28  OG        -2.9660   36.3230   17.8680 O.3    26  SER26      -0.2183
     29  N         -6.7700   30.2510   21.5900 N.3    69  ASN69      -0.1225
     30  CA        -6.1110   29.9840   20.2940 C.3    69  ASN69       0.1785
     31  C         -4.9670   28.9710   20.5500 C.2    69  ASN69       0.2597
     32  O         -4.4960   28.7650   21.6860 O.2    69  ASN69      -0.2718
     33  CB        -5.5680   31.2480   19.6300 C.3    69  ASN69       0.1169
     34  CG        -6.6330   32.1190   18.9920 C.2    69  ASN69       0.2627
     35  OD1       -6.6020   33.3600   19.1520 O.2    69  ASN69      -0.2716
     36  ND2       -7.5380   31.5440   18.2280 N.am   69  ASN69      -0.0877
     37  N         -4.5730   28.3270   19.4560 N.am   70  VAL70      -0.1966
     38  CA        -3.5490   27.2920   19.3960 C.3    70  VAL70       0.1727
     39  C         -2.6430   27.6670   18.2280 C.2    70  VAL70       0.2616
     40  O         -3.1320   28.0410   17.1370 O.2    70  VAL70      -0.2715
     41  CB        -4.1730   25.9160   19.1370 C.3    70  VAL70       0.0290
     42  CG1       -3.1090   24.8140   19.2100 C.3    70  VAL70       0.0023
     43  CG2       -5.3020   25.6300   20.1370 C.3    70  VAL70       0.0023
     44  N         -1.3300   27.6080   18.4450 N.am   71  SER71      -0.1950
     45  CA        -0.4110   27.8270   17.3310 C.3    71  SER71       0.1924
     46  C          0.6970   26.8000   17.3840 C.2    71  SER71       0.2314
     47  O          0.6350   25.8870   18.1820 O.2    71  SER71      -0.2863
     48  CB         0.0830   29.2720   17.2660 C.3    71  SER71       0.2116
     49  OG         0.6960   29.5280   15.9830 O.3    71  SER71      -0.2180
     50  N         -1.0040   22.7990   16.5450 N.3    75  LYS75      -0.1245
     51  CA        -2.2500   22.8330   15.7580 C.3    75  LYS75       0.1561
     52  C         -2.7290   21.4690   15.2420 C.2    75  LYS75       0.2260
     53  O         -3.9360   21.1910   15.1750 O.2    75  LYS75      -0.2867
     54  CB        -2.1480   23.8360   14.5970 C.3    75  LYS75       0.0271
     55  CG        -1.9380   25.3180   14.9510 C.3    75  LYS75       0.0035
     56  CD        -2.1840   26.1530   13.6900 C.3    75  LYS75       0.0206
     57  CE        -1.9860   27.6150   13.9150 C.3    75  LYS75       0.1093
     58  NZ        -2.1300   28.4400   12.6820 N.3    75  LYS75      -0.1314
     59  N         -6.8540   25.9120   15.2620 N.3    96  ASN96      -0.1240
     60  CA        -6.2230   27.1180   15.8210 C.3    96  ASN96       0.1653
     61  C         -7.0950   27.8080   16.8650 C.2    96  ASN96       0.2266
     62  O         -6.6630   28.8110   17.4540 O.2    96  ASN96      -0.2867
     63  CB        -5.8090   28.1620   14.7570 C.3    96  ASN96       0.1155
     64  CG        -6.9760   28.9750   14.2440 C.2    96  ASN96       0.2627
     65  OD1       -8.1080   28.4870   14.2120 O.2    96  ASN96      -0.2716
     66  ND2       -6.7260   30.2300   13.8530 N.am   96  ASN96      -0.0877
     67  N         -7.7260   30.0260   10.1090 N.3   111  ASP111     -0.1239
     68  CA        -6.6390   30.5520    9.2520 C.3   111  ASP111      0.1674
     69  C         -7.0630   30.6360    7.7770 C.2   111  ASP111      0.2266
     70  O         -6.7230   31.5660    7.0830 O.2   111  ASP111     -0.2867
     71  CB        -5.4060   29.6730    9.3680 C.3   111  ASP111      0.1410
     72  CG        -4.7440   29.7570   10.7140 C.2   111  ASP111      0.3668
     73  OD1       -4.5120   28.6880   11.2920 O.co2 111  ASP111     -0.2456
     74  OD2       -4.4850   30.8680   11.1940 O.co2 111  ASP111     -0.2456
     75  N          3.7580   38.3290    7.3360 N.3   238  TYR238     -0.1241
     76  CA         3.5840   39.7800    7.5070 C.3   238  TYR238      0.1605
     77  C          4.6960   40.4350    8.3160 C.2   238  TYR238      0.2264
     78  O          4.7010   41.6630    8.4680 O.2   238  TYR238     -0.2867
     79  CB         2.2210   40.0970    8.1020 C.3   238  TYR238      0.0534
     80  CG         1.9310   39.4770    9.4280 C.ar  238  TYR238     -0.0201
     81  CD1        2.2360   40.1190   10.6320 C.ar  238  TYR238     -0.0009
     82  CD2        1.3200   38.2610    9.5000 C.ar  238  TYR238     -0.0009
     83  CE1        1.9330   39.5210   11.8650 C.ar  238  TYR238      0.0417
     84  CE2        1.0460   37.6330   10.7220 C.ar  238  TYR238      0.0417
     85  CZ         1.3470   38.2720   11.9030 C.ar  238  TYR238      0.1957
     86  OH         1.0530   37.6240   13.0940 O.3   238  TYR238     -0.2866
     87  N         -4.1700   37.5930    9.3510 N.3   263  MET263     -0.1245
     88  CA        -4.0090   37.6360   10.7900 C.3   263  MET263      0.1570
     89  C         -5.2410   38.2530   11.4450 C.2   263  MET263      0.2261
     90  O         -5.7880   37.7400   12.4470 O.2   263  MET263     -0.2867
     91  CB        -2.7280   38.3970   11.1550 C.3   263  MET263      0.0387
     92  CG        -2.4820   38.6070   12.6160 C.3   263  MET263      0.0595
     93  SD        -2.4290   37.1120   13.5700 S.3   263  MET263     -0.1393
     94  CE        -1.1810   36.1120   12.8080 C.3   263  MET263      0.0692
     95  N         -8.4740   35.9060   10.8360 N.3   266  GLN266     -0.1245
     96  CA        -8.4930   34.6340   11.5370 C.3   266  GLN266      0.1566
     97  C         -8.8030   34.9740   13.0120 C.2   266  GLN266      0.2260
     98  O         -9.5340   34.2470   13.6880 O.2   266  GLN266     -0.2867
     99  CB        -7.1820   33.8510   11.3580 C.3   266  GLN266      0.0367
    100  CG        -5.9500   34.4620   12.0290 C.3   266  GLN266      0.0905
    101  CD        -5.9260   34.2820   13.5400 C.2   266  GLN266      0.2608
    102  OE1       -6.3730   33.2520   14.0720 O.2   266  GLN266     -0.2717
    103  NE2       -5.3500   35.2420   14.2370 N.am  266  GLN266     -0.0878
@<TRIPOS>BOND
     1    70    69    2
     2    75    76    1
     3    76    79    1
     4    76    77    1
     5    69    68    1
     6    79    80    1
     7    77    78    2
     8    68    71    1
     9    68    67    1
    10    87    88    1
    11    71    72    1
    12    80    82   ar
    13    80    81   ar
    14    82    84   ar
    15    81    83   ar
    16    72    74   ar
    17    72    73   ar
    18    84    85   ar
    19    88    91    1
    20    88    89    1
    21    95    96    1
    22    91    92    1
    23    99    96    1
    24    99   100    1
    25    89    90    2
    26    96    97    1
    27    83    85   ar
    28    85    86    1
    29   100   101    1
    30    92    93    1
    31    58    57    1
    32    94    93    1
    33    97    98    2
    34   101   102    2
    35   101   103   am
    36    56    57    1
    37    56    55    1
    38    66    64   am
    39    65    64    2
    40    64    63    1
    41    54    55    1
    42    54    51    1
    43    63    60    1
    44    53    52    2
    45    52    51    1
    46    59    60    1
    47    51    50    1
    48    60    61    1
    49    49    48    1
    50    61    62    2
    51    40    39    2
    52    48    45    1
    53    45    46    1
    54    45    44    1
    55    46    47    2
    56    28    27    1
    57    39    44   am
    58    39    38    1
    59    36    34   am
    60    23    24    1
    61    34    35    2
    62    34    33    1
    63    22    21    1
    64    41    42    1
    65    41    38    1
    66    41    43    1
    67    27    24    1
    68    24    25    1
    69    18    19    1
    70    18    21    1
    71    18    17    1
    72    38    37    1
    73    19    20    2
    74    37    31   am
    75    33    30    1
    76    16    14    1
    77    30    31    1
    78    30    29    1
    79     7     6    1
    80    25    26    2
    81    31    32    2
    82     8     6    1
    83    14    13    1
    84    10     9    1
    85    10    13    1
    86    10    11    1
    87    12    11    2
    88     6     5    1
    89    13    15    1
    90     5     2    1
    91     2     3    1
    92     2     1    1
    93     3     4    2
