@<TRIPOS>MOLECULE
tmp/3tnoA00.pdb
 158 147 0 0 0
SMALL
GASTEIGER

@<TRIPOS>ATOM
      1  N         28.7490    2.3330   41.7750 N.3    17  ASP17      -0.1239
      2  CA        27.6970    2.1240   40.7870 C.3    17  ASP17       0.1674
      3  C         26.5800    1.3160   41.4390 C.2    17  ASP17       0.2266
      4  O         26.5910    0.0890   41.4270 O.2    17  ASP17      -0.2867
      5  CB        28.2980    1.3800   39.5870 C.3    17  ASP17       0.1410
      6  CG        27.4570    1.4850   38.3370 C.2    17  ASP17       0.3668
      7  OD1       26.5960    2.3820   38.2530 O.co2  17  ASP17      -0.2456
      8  OD2       27.6800    0.6670   37.4150 O.co2  17  ASP17      -0.2456
      9  N         26.8830    6.5350   40.8930 N.3    33  THR33      -0.1203
     10  CA        26.0640    6.5230   39.6930 C.3    33  THR33       0.1994
     11  C         24.8850    5.5690   39.8210 C.2    33  THR33       0.2619
     12  O         25.0010    4.4910   40.4090 O.2    33  THR33      -0.2717
     13  CB        26.8730    6.1070   38.4430 C.3    33  THR33       0.1784
     14  OG1       27.5400    4.8540   38.6720 O.3    33  THR33      -0.2211
     15  CG2       27.8910    7.1690   38.0740 C.3    33  THR33       0.0376
     16  N         23.7470    5.9890   39.2690 N.am   34  THR34      -0.1938
     17  CA        22.5630    5.1430   39.2000 C.3    34  THR34       0.2028
     18  C         22.1360    5.0850   37.7400 C.2    34  THR34       0.2642
     19  O         22.6360    5.8370   36.8960 O.2    34  THR34      -0.2714
     20  CB        21.3890    5.6640   40.0590 C.3    34  THR34       0.1808
     21  OG1       20.8240    6.8570   39.4890 O.3    34  THR34      -0.2208
     22  CG2       21.8450    5.9280   41.5060 C.3    34  THR34       0.0379
     23  N         21.2570    4.1430   37.4370 N.am   35  ASN35      -0.1971
     24  CA        20.6680    4.0220   36.1130 C.3    35  ASN35       0.1688
     25  C         19.3060    3.3570   36.3240 C.2    35  ASN35       0.2292
     26  O         18.9920    2.9420   37.4420 O.2    35  ASN35      -0.2864
     27  CB        21.5880    3.2800   35.1330 C.3    35  ASN35       0.1181
     28  CG        21.7480    1.8070   35.4490 C.2    35  ASN35       0.2629
     29  OD1       20.7920    1.1210   35.8100 O.2    35  ASN35      -0.2716
     30  ND2       22.9560    1.2970   35.2460 N.am   35  ASN35      -0.0877
     31  N         19.4730   -0.1090   37.9840 N.3    38  LEU38      -0.1245
     32  CA        19.8990   -0.0720   39.3840 C.3    38  LEU38       0.1561
     33  C         18.7980    0.4900   40.2870 C.2    38  LEU38       0.2260
     34  O         18.6420    0.0460   41.4230 O.2    38  LEU38      -0.2867
     35  CB        21.2000    0.7240   39.5390 C.3    38  LEU38       0.0270
     36  CG        22.4390    0.0880   38.8980 C.3    38  LEU38       0.0019
     37  CD1       23.6110    1.0630   38.8910 C.3    38  LEU38       0.0001
     38  CD2       22.8170   -1.2030   39.6120 C.3    38  LEU38       0.0001
     39  N         19.6560    9.1980   35.7160 N.3    98  GLU98      -0.1245
     40  CA        19.3860    9.0730   34.2890 C.3    98  GLU98       0.1567
     41  C         17.9850    9.4830   33.8530 C.2    98  GLU98       0.2260
     42  O         16.9920    9.1580   34.5070 O.2    98  GLU98      -0.2867
     43  CB        19.7060    7.6320   33.8340 C.3    98  GLU98       0.0388
     44  CG        19.5900    7.4010   32.3270 C.3    98  GLU98       0.1160
     45  CD        20.4170    6.2310   31.7940 C.2    98  GLU98       0.3649
     46  OE1       21.2840    5.6920   32.5140 O.co2  98  GLU98      -0.2457
     47  OE2       20.2380    5.8780   30.6060 O.co2  98  GLU98      -0.2457
     48  N         22.2840   11.8920   33.5860 N.3   134  LYS134     -0.1245
     49  CA        22.7730   10.8190   32.7360 C.3   134  LYS134      0.1561
     50  C         21.8970   10.7110   31.4870 C.2   134  LYS134      0.2260
     51  O         20.6660   10.6130   31.5810 O.2   134  LYS134     -0.2867
     52  CB        22.7610    9.5180   33.5170 C.3   134  LYS134      0.0271
     53  CG        23.9390    8.6400   33.2510 C.3   134  LYS134      0.0035
     54  CD        23.8190    7.3770   34.0740 C.3   134  LYS134      0.0206
     55  CE        25.1760    6.9250   34.5040 C.3   134  LYS134      0.1093
     56  NZ        25.1250    5.5360   35.0320 N.3   134  LYS134     -0.1314
     57  N         26.2860   13.4300   32.2490 N.3   156  ASN156     -0.1240
     58  CA        27.0590   12.2060   32.2060 C.3   156  ASN156      0.1653
     59  C         26.5480   11.4580   30.9760 C.2   156  ASN156      0.2266
     60  O         25.4310   10.9580   30.9710 O.2   156  ASN156     -0.2867
     61  CB        26.8330   11.4100   33.4950 C.3   156  ASN156      0.1155
     62  CG        27.4680   10.0260   33.4740 C.2   156  ASN156      0.2627
     63  OD1       27.8480    9.5060   32.4220 O.2   156  ASN156     -0.2716
     64  ND2       27.5350    9.3960   34.6490 N.am  156  ASN156     -0.0877
     65  N         26.2370    8.4690   28.7210 N.3   158  THR158     -0.1218
     66  CA        26.3600    7.0350   28.9420 C.3   158  THR158      0.1862
     67  C         26.1290    6.1830   27.6860 C.2   158  THR158      0.2287
     68  O         25.8110    6.7040   26.6080 O.2   158  THR158     -0.2866
     69  CB        25.4210    6.6270   30.1010 C.3   158  THR158      0.1770
     70  OG1       25.7440    5.3140   30.5580 O.3   158  THR158     -0.2211
     71  CG2       23.9330    6.7220   29.6980 C.3   158  THR158      0.0375
     72  N         30.8770    8.1230   30.1080 N.3   178  SER178     -0.1217
     73  CA        30.9550    6.7900   30.7040 C.3   178  SER178      0.1889
     74  C         31.1310    5.7270   29.6300 C.2   178  SER178      0.2288
     75  O         30.1640    5.0650   29.2430 O.2   178  SER178     -0.2866
     76  CB        29.7020    6.4840   31.5270 C.3   178  SER178      0.2089
     77  OG        29.6130    7.3210   32.6680 O.3   178  SER178     -0.2183
     78  N         31.7150    2.2510   28.2480 N.3   180  PHE180     -0.1241
     79  CA        31.4610    0.9450   28.8360 C.3   180  PHE180      0.1605
     80  C         32.5820   -0.0430   28.5410 C.2   180  PHE180      0.2264
     81  O         33.1710   -0.0300   27.4530 O.2   180  PHE180     -0.2867
     82  CB        30.1240    0.3890   28.3280 C.3   180  PHE180      0.0534
     83  CG        28.9080    0.9200   29.0540 C.ar  180  PHE180     -0.0203
     84  CD1       27.8410    0.0790   29.3390 C.ar  180  PHE180     -0.0042
     85  CD2       28.8400    2.2390   29.4910 C.ar  180  PHE180     -0.0042
     86  CE1       26.7250    0.5430   30.0090 C.ar  180  PHE180     -0.0003
     87  CE2       27.7250    2.7100   30.1710 C.ar  180  PHE180     -0.0003
     88  CZ        26.6640    1.8620   30.4290 C.ar  180  PHE180     -0.0000
     89  N         30.1300   -4.5650   28.9020 N.3   183  ARG183     -0.1245
     90  CA        29.2030   -4.9390   27.8360 C.3   183  ARG183      0.1563
     91  C         29.9130   -5.1960   26.5130 C.2   183  ARG183      0.2260
     92  O         29.4220   -5.9600   25.6850 O.2   183  ARG183     -0.2867
     93  CB        28.0960   -3.9030   27.6740 C.3   183  ARG183      0.0307
     94  CG        27.2470   -3.7610   28.9130 C.3   183  ARG183      0.0489
     95  CD        25.9380   -3.0550   28.6190 C.3   183  ARG183      0.2205
     96  NE        25.2020   -2.7910   29.8490 N.pl3 183  ARG183     -0.0865
     97  CZ        23.9910   -2.2460   29.9020 C.cat 183  ARG183      0.5346
     98  NH1       23.3460   -1.9310   28.7870 N.pl3 183  ARG183      0.1354
     99  NH2       23.4140   -2.0330   31.0850 N.pl3 183  ARG183      0.1354
    100  N         35.1960    8.3790   32.5100 N.3   226  MET226     -0.1245
    101  CA        34.8410    7.4590   33.5870 C.3   226  MET226      0.1570
    102  C         34.4660    6.0730   33.0720 C.2   226  MET226      0.2261
    103  O         33.3650    5.8590   32.5660 O.2   226  MET226     -0.2867
    104  CB        33.6980    8.0170   34.4430 C.3   226  MET226      0.0387
    105  CG        33.4250    7.1520   35.6650 C.3   226  MET226      0.0595
    106  SD        32.2960    7.8790   36.8600 S.3   226  MET226     -0.1393
    107  CE        30.7380    7.7560   35.9990 C.3   226  MET226      0.0692
    108  N         33.0110    2.5160   32.9630 N.3   228  ALA228     -0.1231
    109  CA        31.8260    1.9540   33.6130 C.3   228  ALA228      0.1694
    110  C         31.5580    0.5650   33.0650 C.2   228  ALA228      0.2593
    111  O         32.0270    0.2320   31.9800 O.2   228  ALA228     -0.2718
    112  CB        30.6190    2.8490   33.3660 C.3   228  ALA228      0.0304
    113  N         30.7780   -0.2140   33.8130 N.am  229  SER229     -0.1938
    114  CA        30.4120   -1.5880   33.4520 C.3   229  SER229      0.2055
    115  C         31.6380   -2.4840   33.5510 C.2   229  SER229      0.2643
    116  O         32.5320   -2.4380   32.6970 O.2   229  SER229     -0.2714
    117  CB        29.7910   -1.6580   32.0450 C.3   229  SER229      0.2130
    118  OG        29.5290   -3.0040   31.6670 O.3   229  SER229     -0.2179
    119  N         31.7150   -3.2620   34.6230 N.am  230  PHE230     -0.1959
    120  CA        32.8420   -4.1710   34.8020 C.3   230  PHE230      0.1771
    121  C         32.3960   -5.5820   35.1170 C.2   230  PHE230      0.2619
    122  O         31.3800   -5.7950   35.7840 O.2   230  PHE230     -0.2715
    123  CB        33.7890   -3.6490   35.8820 C.3   230  PHE230      0.0574
    124  CG        34.4730   -2.3720   35.4940 C.ar  230  PHE230     -0.0200
    125  CD1       35.5480   -2.4000   34.6220 C.ar  230  PHE230     -0.0042
    126  CD2       34.0250   -1.1470   35.9630 C.ar  230  PHE230     -0.0042
    127  CE1       36.1820   -1.2310   34.2420 C.ar  230  PHE230     -0.0003
    128  CE2       34.6540    0.0280   35.5850 C.ar  230  PHE230     -0.0003
    129  CZ        35.7300   -0.0160   34.7190 C.ar  230  PHE230     -0.0000
    130  N         33.1690   -6.5410   34.6120 N.am  231  ARG231     -0.1977
    131  CA        32.9100   -7.9650   34.8180 C.3   231  ARG231      0.1597
    132  C         33.8570   -8.6000   35.8280 C.2   231  ARG231      0.2287
    133  O         33.5470   -9.6500   36.3980 O.2   231  ARG231     -0.2864
    134  CB        33.0400   -8.7150   33.4910 C.3   231  ARG231      0.0334
    135  CG        32.0130   -8.3130   32.4540 C.3   231  ARG231      0.0492
    136  CD        30.6180   -8.8070   32.8020 C.3   231  ARG231      0.2205
    137  NE        29.6330   -8.1450   31.9530 N.pl3 231  ARG231     -0.0865
    138  CZ        29.0220   -7.0020   32.2530 C.cat 231  ARG231      0.5346
    139  NH1       29.2540   -6.3830   33.4090 N.pl3 231  ARG231      0.1354
    140  NH2       28.1650   -6.4740   31.3920 N.pl3 231  ARG231      0.1354
    141  N         33.5980    3.9280   37.7070 N.3   246  THR246     -0.1218
    142  CA        32.4230    3.6250   38.5120 C.3   246  THR246      0.1862
    143  C         32.3210    2.1040   38.5820 C.2   246  THR246      0.2287
    144  O         32.3260    1.4180   37.5560 O.2   246  THR246     -0.2866
    145  CB        31.1340    4.3070   38.0360 C.3   246  THR246      0.1770
    146  OG1       30.1030    4.0360   38.9940 O.3   246  THR246     -0.2211
    147  CG2       30.7060    3.8570   36.6310 C.3   246  THR246      0.0375
    148  N         16.9430   -0.4530   29.3010 N.3   305  PHE305     -0.1241
    149  CA        16.6210    0.5420   30.3170 C.3   305  PHE305      0.1605
    150  C         15.1410    0.9010   30.2280 C.2   305  PHE305      0.2264
    151  O         14.4900    1.1430   31.2530 O.2   305  PHE305     -0.2867
    152  CB        17.4760    1.8130   30.2000 C.3   305  PHE305      0.0534
    153  CG        18.9000    1.6670   30.6910 C.ar  305  PHE305     -0.0203
    154  CD1       19.2110    0.8930   31.8030 C.ar  305  PHE305     -0.0042
    155  CD2       19.9100    2.4220   30.1120 C.ar  305  PHE305     -0.0042
    156  CE1       20.5080    0.8150   32.2730 C.ar  305  PHE305     -0.0003
    157  CE2       21.2140    2.3480   30.5820 C.ar  305  PHE305     -0.0003
    158  CZ        21.5110    1.5400   31.6580 C.ar  305  PHE305     -0.0000
@<TRIPOS>BOND
     1    92    91    2
     2    91    90    1
     3    68    67    2
     4    81    80    2
     5    93    90    1
     6    93    94    1
     7    67    66    1
     8    90    89    1
     9    78    79    1
    10    82    79    1
    11    82    83    1
    12    80    79    1
    13    95    94    1
    14    95    96    1
    15    65    66    1
    16    98    97    1
    17    66    69    1
    18    83    84   ar
    19    83    85   ar
    20    75    74    2
    21   148   149    1
    22    84    86   ar
    23    85    87   ar
    24    74    73    1
    25    71    69    1
    26    96    97    2
    27    97    99    1
    28    86    88   ar
    29    69    70    1
    30    72    73    1
    31   155   157   ar
    32   155   153   ar
    33    87    88   ar
    34   152   149    1
    35   152   153    1
    36   150   149    1
    37   150   151    2
    38   157   158   ar
    39    47    45   ar
    40   153   154   ar
    41    73    76    1
    42    60    59    2
    43    59    58    1
    44   140   138    1
    45    50    51    2
    46    50    49    1
    47    76    77    1
    48   158   156   ar
    49   118   117    1
    50    45    44    1
    51    45    46   ar
    52   154   156   ar
    53   137   138    2
    54   137   136    1
    55   111   110    2
    56   117   114    1
    57    58    57    1
    58    58    61    1
    59   138   139    1
    60    44    43    1
    61    63    62    2
    62   135   136    1
    63   135   134    1
    64   100   101    1
    65   103   102    2
    66   116   115    2
    67    49    52    1
    68    49    48    1
    69   108   109    1
    70   110   109    1
    71   110   113   am
    72   102   101    1
    73    53    52    1
    74    53    54    1
    75   112   109    1
    76   114   115    1
    77   114   113    1
    78    62    61    1
    79    62    64   am
    80   134   131    1
    81   115   119   am
    82   101   104    1
    83    43    40    1
    84    41    40    1
    85    41    42    2
    86    54    55    1
    87   127   125   ar
    88   127   129   ar
    89    40    39    1
    90   104   105    1
    91    55    56    1
    92   130   131    1
    93   130   121   am
    94   125   124   ar
    95   119   120    1
    96   129   128   ar
    97   120   121    1
    98   120   123    1
    99   131   132    1
   100   121   122    2
   101    27    28    1
   102    27    24    1
   103    30    28   am
   104    28    29    2
   105   124   123    1
   106   124   126   ar
   107   128   126   ar
   108   105   106    1
   109   132   133    2
   110   107   106    1
   111    24    25    1
   112    24    23    1
   113    25    26    2
   114   147   145    1
   115    19    18    2
   116     8     6   ar
   117    23    18   am
   118   144   143    2
   119   141   142    1
   120    18    17    1
   121    31    32    1
   122   145   142    1
   123   145   146    1
   124    15    13    1
   125     7     6   ar
   126     6     5    1
   127    13    14    1
   128    13    10    1
   129   142   143    1
   130    37    36    1
   131    36    35    1
   132    36    38    1
   133    17    16    1
   134    17    20    1
   135    16    11   am
   136    32    35    1
   137    32    33    1
   138    21    20    1
   139     5     2    1
   140    10    11    1
   141    10     9    1
   142    11    12    2
   143    20    22    1
   144    33    34    2
   145     2     3    1
   146     2     1    1
   147     4     3    2
