@<TRIPOS>MOLECULE
tmp/3tnsA00.pdb
 212 210 0 0 0
SMALL
GASTEIGER

@<TRIPOS>ATOM
      1  N        -21.1680  -11.6240  -27.1710 N.3    25  THR25      -0.1203
      2  CA       -20.1110  -10.7700  -26.5860 C.3    25  THR25       0.1994
      3  C        -18.8250  -11.5670  -26.4690 C.2    25  THR25       0.2619
      4  O        -18.7910  -12.6150  -25.8190 O.2    25  THR25      -0.2717
      5  CB       -20.4950  -10.2220  -25.1750 C.3    25  THR25       0.1784
      6  OG1      -21.7370   -9.5210  -25.2500 O.3    25  THR25      -0.2211
      7  CG2      -19.4210   -9.2360  -24.6240 C.3    25  THR25       0.0376
      8  N        -17.7720  -11.0630  -27.1070 N.am   26  THR26      -0.1938
      9  CA       -16.4400  -11.6410  -27.0120 C.3    26  THR26       0.2028
     10  C        -15.4450  -10.6140  -26.4340 C.2    26  THR26       0.2642
     11  O        -15.4730   -9.4340  -26.7890 O.2    26  THR26      -0.2714
     12  CB       -15.9880  -12.1830  -28.4000 C.3    26  THR26       0.1808
     13  OG1      -16.7850  -13.3440  -28.7430 O.3    26  THR26      -0.2208
     14  CG2      -14.5680  -12.6020  -28.3720 C.3    26  THR26       0.0379
     15  N        -14.5810  -11.0720  -25.5370 N.am   27  LEU27      -0.1977
     16  CA       -13.4740  -10.2550  -25.0410 C.3    27  LEU27       0.1596
     17  C        -12.3070  -11.1510  -24.6380 C.2    27  LEU27       0.2287
     18  O        -12.3550  -12.3840  -24.8530 O.2    27  LEU27      -0.2864
     19  CB       -13.9310   -9.3170  -23.9010 C.3    27  LEU27       0.0297
     20  CG       -14.8630   -9.8760  -22.8130 C.3    27  LEU27       0.0022
     21  CD1      -14.2400  -11.0800  -22.0830 C.3    27  LEU27       0.0001
     22  CD2      -15.2000   -8.7490  -21.8100 C.3    27  LEU27       0.0001
     23  N        -18.4580   -8.0760  -17.2470 N.3    41  HIS41      -0.1241
     24  CA       -19.3780   -7.4770  -18.2250 C.3    41  HIS41       0.1621
     25  C        -19.5280   -8.2640  -19.5490 C.2    41  HIS41       0.2264
     26  O        -20.3580   -7.9200  -20.3720 O.2    41  HIS41      -0.2867
     27  CB       -19.1340   -5.9760  -18.4620 C.3    41  HIS41       0.0745
     28  CG       -17.8900   -5.6480  -19.2470 C.ar   41  HIS41       0.0817
     29  ND1      -16.9160   -4.7920  -18.7680 N.ar   41  HIS41      -0.2268
     30  CD2      -17.4890   -6.0080  -20.4880 C.ar   41  HIS41       0.1154
     31  CE1      -15.9640   -4.6530  -19.6740 C.ar   41  HIS41       0.1986
     32  NE2      -16.2780   -5.3910  -20.7220 N.ar   41  HIS41      -0.2212
     33  N        -23.1540   -9.2850  -19.8710 N.3    44  CYS44      -0.1235
     34  CA       -24.1970   -8.2760  -20.0520 C.3    44  CYS44       0.1677
     35  C        -25.0020   -8.5040  -21.3050 C.2    44  CYS44       0.2270
     36  O        -24.4660   -8.8450  -22.3550 O.2    44  CYS44      -0.2867
     37  CB       -23.6300   -6.8610  -20.0820 C.3    44  CYS44       0.0956
     38  SG       -23.3550   -6.2180  -18.4510 S.3    44  CYS44      -0.0801
     39  N        -27.0260   -2.5120  -20.3020 N.3    49  MET49      -0.1245
     40  CA       -25.6570   -2.1740  -19.9140 C.3    49  MET49       0.1570
     41  C        -25.6380   -1.0430  -18.8910 C.2    49  MET49       0.2261
     42  O        -24.5980   -0.7350  -18.2970 O.2    49  MET49      -0.2867
     43  CB       -24.8180   -1.8340  -21.1450 C.3    49  MET49       0.0387
     44  CG       -24.3830   -3.0690  -21.9320 C.3    49  MET49       0.0595
     45  SD       -23.5280   -2.6610  -23.4590 S.3    49  MET49      -0.1393
     46  CE       -22.3500   -4.0290  -23.5720 C.3    49  MET49       0.0692
     47  N        -25.3320   -8.3050  -11.7220 N.3    54  TYR54      -0.1241
     48  CA       -24.4520   -9.3900  -12.1550 C.3    54  TYR54       0.1605
     49  C        -24.7000  -10.7190  -11.4430 C.2    54  TYR54       0.2264
     50  O        -24.5010  -11.7890  -12.0340 O.2    54  TYR54      -0.2867
     51  CB       -22.9930   -8.9720  -12.0070 C.3    54  TYR54       0.0534
     52  CG       -22.5640   -7.9220  -13.0150 C.ar   54  TYR54      -0.0201
     53  CD1      -22.4870   -6.5680  -12.6560 C.ar   54  TYR54      -0.0009
     54  CD2      -22.2540   -8.2780  -14.3300 C.ar   54  TYR54      -0.0009
     55  CE1      -22.0770   -5.5950  -13.5920 C.ar   54  TYR54       0.0417
     56  CE2      -21.8710   -7.3180  -15.2760 C.ar   54  TYR54       0.0417
     57  CZ       -21.7810   -5.9800  -14.8910 C.ar   54  TYR54       0.1957
     58  OH       -21.3820   -5.0370  -15.8080 O.3    54  TYR54      -0.2866
     59  N         -6.7290    1.9350  -26.4890 N.3   140  PHE140     -0.1227
     60  CA        -7.6550    0.7830  -26.4600 C.3   140  PHE140      0.1736
     61  C         -8.8460    1.0820  -27.3690 C.2   140  PHE140      0.2595
     62  O         -9.4020    2.1940  -27.3160 O.2   140  PHE140     -0.2718
     63  CB        -8.2300    0.5880  -25.0570 C.3   140  PHE140      0.0547
     64  CG        -7.2450    0.0690  -24.0020 C.ar  140  PHE140     -0.0202
     65  CD1       -6.8920    0.8630  -22.9310 C.ar  140  PHE140     -0.0042
     66  CD2       -6.7220   -1.2130  -24.0680 C.ar  140  PHE140     -0.0042
     67  CE1       -6.0450    0.3830  -21.9190 C.ar  140  PHE140     -0.0003
     68  CE2       -5.8610   -1.6970  -23.0730 C.ar  140  PHE140     -0.0003
     69  CZ        -5.5380   -0.8820  -21.9840 C.ar  140  PHE140     -0.0000
     70  N         -9.2460    0.0950  -28.1640 N.am  141  LEU141     -0.1966
     71  CA       -10.4530    0.1760  -29.0000 C.3   141  LEU141      0.1728
     72  C        -11.4670   -0.8890  -28.5180 C.2   141  LEU141      0.2616
     73  O        -11.1520   -1.6630  -27.5980 O.2   141  LEU141     -0.2715
     74  CB       -10.1080   -0.0370  -30.4840 C.3   141  LEU141      0.0311
     75  CG        -8.9200    0.7690  -31.0560 C.3   141  LEU141      0.0022
     76  CD1       -8.5320    0.2520  -32.4100 C.3   141  LEU141      0.0001
     77  CD2       -9.2400    2.2580  -31.1410 C.3   141  LEU141      0.0001
     78  N        -12.6630   -0.9340  -29.1270 N.am  142  ASN142     -0.1958
     79  CA       -13.6640   -1.9900  -28.8430 C.3   142  ASN142      0.1819
     80  C        -12.9580   -3.3250  -29.0440 C.2   142  ASN142      0.2622
     81  O        -12.2160   -3.4660  -30.0120 O.2   142  ASN142     -0.2715
     82  CB       -14.8370   -1.9350  -29.8310 C.3   142  ASN142      0.1195
     83  CG       -15.6290   -0.6430  -29.7580 C.2   142  ASN142      0.2630
     84  OD1      -15.5940    0.0730  -28.7590 O.2   142  ASN142     -0.2716
     85  ND2      -16.3430   -0.3290  -30.8480 N.am  142  ASN142     -0.0877
     86  N        -13.1640   -4.2820  -28.1390 N.am  143  GLY143     -0.1940
     87  CA       -12.5370   -5.6180  -28.2370 C.3   143  GLY143      0.2014
     88  C        -11.3630   -5.7730  -27.2910 C.2   143  GLY143      0.2640
     89  O        -10.8290   -6.8690  -27.1180 O.2   143  GLY143     -0.2714
     90  N        -10.9440   -4.6600  -26.6940 N.am  144  SER144     -0.1935
     91  CA        -9.7450   -4.6540  -25.8740 C.3   144  SER144      0.2055
     92  C         -9.9650   -5.0720  -24.3950 C.2   144  SER144      0.2643
     93  O         -8.9880   -5.2540  -23.6620 O.2   144  SER144     -0.2714
     94  CB        -9.0260   -3.2970  -25.9650 C.3   144  SER144      0.2130
     95  OG        -9.8390   -2.2660  -25.4740 O.3   144  SER144     -0.2179
     96  N        -11.2210   -5.2400  -23.9560 N.am  145  CYS145     -0.1967
     97  CA       -11.4560   -5.6010  -22.5580 C.3   145  CYS145      0.1712
     98  C        -10.8430   -6.9160  -22.2390 C.2   145  CYS145      0.2296
     99  O        -10.7690   -7.7960  -23.1030 O.2   145  CYS145     -0.2864
    100  CB       -12.9230   -5.5250  -22.1530 C.3   145  CYS145      0.0983
    101  SG       -13.4470   -3.8000  -22.1630 S.3   145  CYS145     -0.0798
    102  N         -8.3000   -4.5680  -18.2020 N.3   163  HIS163     -0.1226
    103  CA        -8.9850   -3.3810  -18.7430 C.3   163  HIS163      0.1752
    104  C        -10.5050   -3.5670  -18.8300 C.2   163  HIS163      0.2596
    105  O        -10.9560   -4.6250  -19.2420 O.2   163  HIS163     -0.2718
    106  CB        -8.3790   -3.0230  -20.1240 C.3   163  HIS163      0.0759
    107  CG        -9.0310   -1.8300  -20.7580 C.ar  163  HIS163      0.0818
    108  ND1       -9.0390   -0.5910  -20.1620 N.ar  163  HIS163     -0.2268
    109  CD2       -9.7230   -1.6970  -21.9120 C.ar  163  HIS163      0.1154
    110  CE1       -9.7230    0.2530  -20.9110 C.ar  163  HIS163      0.1986
    111  NE2      -10.1420   -0.3940  -21.9870 N.ar  163  HIS163     -0.2212
    112  N        -11.2890   -2.5450  -18.4590 N.am  164  HIS164     -0.1961
    113  CA       -12.7500   -2.6610  -18.4550 C.3   164  HIS164      0.1787
    114  C        -13.4640   -1.5550  -19.2080 C.2   164  HIS164      0.2620
    115  O        -14.4580   -1.8210  -19.8530 O.2   164  HIS164     -0.2715
    116  CB       -13.3580   -2.7000  -17.0260 C.3   164  HIS164      0.0785
    117  CG       -13.1020   -3.9720  -16.2690 C.ar  164  HIS164      0.0821
    118  ND1      -14.1240   -4.7790  -15.7960 N.ar  164  HIS164     -0.2267
    119  CD2      -11.9480   -4.5190  -15.8090 C.ar  164  HIS164      0.1154
    120  CE1      -13.6060   -5.7830  -15.1060 C.ar  164  HIS164      0.1986
    121  NE2      -12.2880   -5.6420  -15.0960 N.ar  164  HIS164     -0.2212
    122  N        -12.9860   -0.3220  -19.1090 N.am  165  MET165     -0.1963
    123  CA       -13.7200    0.7540  -19.7350 C.3   165  MET165      0.1736
    124  C        -12.9710    1.9910  -20.1600 C.2   165  MET165      0.2616
    125  O        -11.8670    2.2760  -19.7100 O.2   165  MET165     -0.2715
    126  CB       -14.9620    1.1390  -18.9240 C.3   165  MET165      0.0427
    127  CG       -14.7940    1.3970  -17.4610 C.3   165  MET165      0.0599
    128  SD       -16.3790    0.9510  -16.6200 S.3   165  MET165     -0.1393
    129  CE       -17.6210    2.0180  -17.4160 C.3   165  MET165      0.0692
    130  N        -13.6330    2.7560  -20.9980 N.am  166  GLU166     -0.1963
    131  CA       -13.1110    4.0400  -21.3970 C.3   166  GLU166      0.1733
    132  C        -14.0780    5.1460  -20.9560 C.2   166  GLU166      0.2616
    133  O        -15.2820    5.0650  -21.2060 O.2   166  GLU166     -0.2715
    134  CB       -12.8600    4.0870  -22.9170 C.3   166  GLU166      0.0429
    135  CG       -12.2400    5.4180  -23.3560 C.3   166  GLU166      0.1163
    136  CD       -11.8540    5.4780  -24.8230 C.2   166  GLU166      0.3649
    137  OE1      -12.4040    6.3600  -25.5330 O.co2 166  GLU166     -0.2457
    138  OE2      -11.0020    4.6860  -25.2790 O.co2 166  GLU166     -0.2457
    139  N        -13.5320    6.1790  -20.3330 N.am  167  LEU167     -0.1964
    140  CA       -14.3140    7.3250  -19.8720 C.3   167  LEU167      0.1713
    141  C        -14.2550    8.4480  -20.9200 C.2   167  LEU167      0.2458
    142  O        -13.4070    8.4080  -21.7980 O.2   167  LEU167     -0.2730
    143  CB       -13.7590    7.8230  -18.5330 C.3   167  LEU167      0.0310
    144  CG       -13.6900    6.7980  -17.4050 C.3   167  LEU167      0.0022
    145  CD1      -12.9680    7.3840  -16.1890 C.3   167  LEU167      0.0001
    146  CD2      -15.0830    6.3170  -17.0380 C.3   167  LEU167      0.0001
    147  N        -15.0870    9.4460  -20.7850 N.am  168  PRO168     -0.2727
    148  CA       -15.2870   10.4210  -21.8350 C.3   168  PRO168      0.1402
    149  C        -14.0750   11.2540  -22.2060 C.2   168  PRO168      0.2269
    150  O        -14.0060   11.6120  -23.3480 O.2   168  PRO168     -0.2865
    151  CB       -16.4010   11.2900  -21.2740 C.3   168  PRO168      0.0296
    152  CG       -17.0950   10.4150  -20.3660 C.3   168  PRO168      0.0237
    153  CD       -16.0240    9.6760  -19.6920 C.3   168  PRO168      0.0939
    154  N         -8.7470    5.5950  -19.3890 N.3   172  HIS172     -0.1241
    155  CA        -9.0980    4.2050  -19.2270 C.3   172  HIS172      0.1621
    156  C         -9.1190    3.7730  -17.7740 C.2   172  HIS172      0.2264
    157  O         -8.3260    4.2800  -16.9250 O.2   172  HIS172     -0.2867
    158  CB        -8.1270    3.3730  -20.0600 C.3   172  HIS172      0.0745
    159  CG        -8.2030    3.7100  -21.5100 C.ar  172  HIS172      0.0817
    160  ND1       -7.2410    4.4540  -22.1590 N.ar  172  HIS172     -0.2268
    161  CD2       -9.1830    3.4820  -22.4190 C.ar  172  HIS172      0.1154
    162  CE1       -7.6030    4.6340  -23.4160 C.ar  172  HIS172      0.1986
    163  NE2       -8.7780    4.0530  -23.5990 N.ar  172  HIS172     -0.2212
    164  N        -18.5640   -0.9240  -13.0740 N.3   187  ASP187     -0.1225
    165  CA       -18.7260   -1.5070  -14.3950 C.3   187  ASP187      0.1805
    166  C        -20.1900   -1.4930  -14.8460 C.2   187  ASP187      0.2598
    167  O        -20.8520   -2.5380  -14.9620 O.2   187  ASP187     -0.2718
    168  CB       -18.0800   -2.8880  -14.5020 C.3   187  ASP187      0.1424
    169  CG       -18.5990   -3.8770  -13.4650 C.2   187  ASP187      0.3668
    170  OD1      -19.2830   -3.4800  -12.4940 O.co2 187  ASP187     -0.2456
    171  OD2      -18.2630   -5.0550  -13.6160 O.co2 187  ASP187     -0.2456
    172  N        -20.6680   -0.2810  -15.1030 N.am  188  ARG188     -0.1966
    173  CA       -21.9460   -0.0330  -15.7520 C.3   188  ARG188      0.1729
    174  C        -21.8840    1.2930  -16.5400 C.2   188  ARG188      0.2616
    175  O        -21.1120    2.2000  -16.2020 O.2   188  ARG188     -0.2715
    176  CB       -23.1130   -0.0620  -14.7420 C.3   188  ARG188      0.0348
    177  CG       -22.9170    0.7920  -13.4910 C.3   188  ARG188      0.0492
    178  CD       -23.8900    0.3380  -12.3840 C.3   188  ARG188      0.2205
    179  NE       -23.4230    0.7460  -11.0630 N.pl3 188  ARG188     -0.0865
    180  CZ       -23.9180    1.7700  -10.3690 C.cat 188  ARG188      0.5346
    181  NH1      -24.9210    2.4960  -10.8670 N.pl3 188  ARG188      0.1354
    182  NH2      -23.4080    2.0700   -9.1710 N.pl3 188  ARG188      0.1354
    183  N        -22.6750    1.3880  -17.6060 N.am  189  GLN189     -0.1963
    184  CA       -22.5740    2.5270  -18.5200 C.3   189  GLN189      0.1733
    185  C        -23.4100    3.7230  -18.0760 C.2   189  GLN189      0.2617
    186  O        -24.0270    4.4230  -18.8790 O.2   189  GLN189     -0.2715
    187  CB       -22.8540    2.0940  -19.9580 C.3   189  GLN189      0.0408
    188  CG       -21.7510    1.1560  -20.4680 C.3   189  GLN189      0.0908
    189  CD       -21.7890    0.8930  -21.9660 C.2   189  GLN189      0.2608
    190  OE1      -20.7750    0.5130  -22.5570 O.2   189  GLN189     -0.2717
    191  NE2      -22.9550    1.0730  -22.5830 N.am  189  GLN189     -0.0878
    192  N        -23.3940    3.9390  -16.7730 N.am  190  THR190     -0.1937
    193  CA       -24.0050    5.0850  -16.1390 C.3   190  THR190      0.2028
    194  C        -22.9280    6.1860  -16.1030 C.2   190  THR190      0.2642
    195  O        -21.7360    5.8640  -16.0470 O.2   190  THR190     -0.2714
    196  CB       -24.4870    4.6690  -14.7320 C.3   190  THR190      0.1808
    197  OG1      -25.3770    5.6600  -14.2180 O.3   190  THR190     -0.2208
    198  CG2      -23.3070    4.4290  -13.7580 C.3   190  THR190      0.0379
    199  N        -23.3300    7.4540  -16.1690 N.am  191  ALA191     -0.1963
    200  CA       -22.3800    8.5740  -16.2550 C.3   191  ALA191      0.1728
    201  C        -21.3830    8.5610  -15.1010 C.2   191  ALA191      0.2616
    202  O        -21.7540    8.3170  -13.9570 O.2   191  ALA191     -0.2715
    203  CB       -23.1270    9.9390  -16.3200 C.3   191  ALA191      0.0334
    204  N        -20.1160    8.7960  -15.4280 N.am  192  GLN192     -0.1977
    205  CA       -18.9880    8.7090  -14.5080 C.3   192  GLN192      0.1601
    206  C        -17.9020    9.5640  -15.1280 C.2   192  GLN192      0.2287
    207  O        -17.7820    9.6080  -16.3500 O.2   192  GLN192     -0.2864
    208  CB       -18.4610    7.2660  -14.4310 C.3   192  GLN192      0.0394
    209  CG       -19.3810    6.2960  -13.7330 C.3   192  GLN192      0.0908
    210  CD       -18.8690    4.8830  -13.8070 C.2   192  GLN192      0.2608
    211  OE1      -19.4070    4.0430  -14.5510 O.2   192  GLN192     -0.2717
    212  NE2      -17.8430    4.5940  -13.0200 N.am  192  GLN192     -0.0878
@<TRIPOS>BOND
     1    76    75    1
     2    77    75    1
     3    75    74    1
     4    85    83   am
     5    74    71    1
     6    81    80    2
     7    82    83    1
     8    82    79    1
     9    83    84    2
    10    78    79    1
    11    78    72   am
    12    80    79    1
    13    80    86   am
    14    71    72    1
    15    71    70    1
    16    13    12    1
    17    72    73    2
    18    12    14    1
    19    12     9    1
    20    87    86    1
    21    87    88    1
    22    70    61   am
    23    61    62    2
    24    61    60    1
    25    88    89    2
    26    88    90   am
    27     1     2    1
    28     8     9    1
    29     8     3   am
    30     9    10    1
    31    11    10    2
    32    90    91    1
    33     2     3    1
    34     2     5    1
    35    59    60    1
    36     3     4    2
    37    60    63    1
    38    10    15   am
    39    94    91    1
    40    94    95    1
    41    91    92    1
    42    15    16    1
    43   137   136   ar
    44   138   136   ar
    45     6     5    1
    46     5     7    1
    47    63    64    1
    48    16    17    1
    49    16    19    1
    50    18    17    2
    51   136   135    1
    52    92    96   am
    53    92    93    2
    54    66    64   ar
    55    66    68   ar
    56    64    65   ar
    57    96    97    1
    58    19    20    1
    59   163   162   ar
    60   163   161   ar
    61    46    45    1
    62    45    44    1
    63   162   160   ar
    64   135   134    1
    65   150   149    2
    66    99    98    2
    67    68    69   ar
    68    65    67   ar
    69   134   131    1
    70    20    21    1
    71    20    22    1
    72   191   189   am
    73    97    98    1
    74    97   100    1
    75   190   189    2
    76   161   159   ar
    77    36    35    2
    78   149   148    1
    79   101   100    1
    80   160   159   ar
    81   111   109   ar
    82   111   110   ar
    83    69    67   ar
    84   189   188    1
    85    44    43    1
    86   109   107   ar
    87   148   151    1
    88   148   147    1
    89   142   141    2
    90   159   158    1
    91   131   130    1
    92   131   132    1
    93    35    34    1
    94   151   152    1
    95   133   132    2
    96    43    40    1
    97   130   124   am
    98   132   139   am
    99   141   147   am
   100   141   140    1
   101   110   108   ar
   102   147   153    1
   103   107   108   ar
   104   107   106    1
   105    32    30   ar
   106    32    31   ar
   107    30    28   ar
   108   188   187    1
   109    26    25    2
   110   152   153    1
   111   139   140    1
   112    39    40    1
   113   124   123    1
   114   124   125    2
   115   106   103    1
   116    37    34    1
   117    37    38    1
   118   158   155    1
   119    34    33    1
   120   187   184    1
   121    40    41    1
   122   140   143    1
   123   115   114    2
   124   123   122    1
   125   123   126    1
   126    31    29   ar
   127    25    24    1
   128   154   155    1
   129    28    29   ar
   130    28    27    1
   131   105   104    2
   132   155   156    1
   133   114   122   am
   134   114   113    1
   135   126   127    1
   136    41    42    2
   137   186   185    2
   138   104   103    1
   139   104   112   am
   140   103   102    1
   141   143   144    1
   142   184   185    1
   143   184   183    1
   144    27    24    1
   145   112   113    1
   146   113   116    1
   147    24    23    1
   148   185   192   am
   149   156   157    2
   150   183   174   am
   151   127   128    1
   152   129   128    1
   153   144   146    1
   154   144   145    1
   155   116   117    1
   156   192   193    1
   157   174   175    2
   158   174   173    1
   159   207   206    2
   160   203   200    1
   161   117   119   ar
   162   117   118   ar
   163   200   199    1
   164   200   201    1
   165   199   194   am
   166   193   194    1
   167   193   196    1
   168   194   195    2
   169   119   121   ar
   170    58    57    1
   171   118   120   ar
   172   173   172    1
   173   173   176    1
   174   204   201   am
   175   204   205    1
   176    56    57   ar
   177    56    54   ar
   178   206   205    1
   179   120   121   ar
   180   172   166   am
   181   201   202    2
   182   167   166    2
   183    57    55   ar
   184   166   165    1
   185   176   177    1
   186   196   197    1
   187   196   198    1
   188   211   210    2
   189   205   208    1
   190   168   165    1
   191   168   169    1
   192   208   209    1
   193   165   164    1
   194    54    52   ar
   195   210   209    1
   196   210   212   am
   197   171   169   ar
   198    55    53   ar
   199   177   178    1
   200   169   170   ar
   201    52    53   ar
   202    52    51    1
   203   178   179    1
   204    48    51    1
   205    48    47    1
   206    48    49    1
   207    50    49    2
   208   179   180    2
   209   181   180    1
   210   180   182    1
