@<TRIPOS>MOLECULE
tmp/3tntA00.pdb
 219 217 0 0 0
SMALL
GASTEIGER

@<TRIPOS>ATOM
      1  N         27.9250   29.8400    1.2240 N.3    25  THR25      -0.1203
      2  CA        26.8740   30.7240    0.7200 C.3    25  THR25       0.1994
      3  C         25.5740   29.9630    0.6200 C.2    25  THR25       0.2619
      4  O         25.5110   28.9110   -0.0080 O.2    25  THR25      -0.2717
      5  CB        27.2420   31.3240   -0.6590 C.3    25  THR25       0.1784
      6  OG1       28.4810   32.0290   -0.5530 O.3    25  THR25      -0.2211
      7  CG2       26.1560   32.2890   -1.1560 C.3    25  THR25       0.0376
      8  N         24.5350   30.5050    1.2430 N.am   26  THR26      -0.1938
      9  CA        23.2210   29.9120    1.1760 C.3    26  THR26       0.2028
     10  C         22.2440   30.9410    0.6020 C.2    26  THR26       0.2642
     11  O         22.2880   32.1220    0.9640 O.2    26  THR26      -0.2714
     12  CB        22.7720   29.4260    2.5690 C.3    26  THR26       0.1808
     13  OG1       23.6520   28.3730    3.0110 O.3    26  THR26      -0.2208
     14  CG2       21.3820   28.8930    2.5200 C.3    26  THR26       0.0379
     15  N         21.3990   30.4890   -0.3160 N.am   27  LEU27      -0.1977
     16  CA        20.2720   31.3060   -0.7950 C.3    27  LEU27       0.1596
     17  C         19.1040   30.4170   -1.1790 C.2    27  LEU27       0.2287
     18  O         19.1360   29.2090   -0.9590 O.2    27  LEU27      -0.2864
     19  CB        20.6890   32.2610   -1.9330 C.3    27  LEU27       0.0297
     20  CG        21.6210   31.7540   -3.0480 C.3    27  LEU27       0.0022
     21  CD1       21.0040   30.5810   -3.8320 C.3    27  LEU27       0.0001
     22  CD2       22.0280   32.8690   -4.0050 C.3    27  LEU27       0.0001
     23  N         25.2160   33.5110   -8.6720 N.3    41  HIS41      -0.1241
     24  CA        26.1520   34.1130   -7.7270 C.3    41  HIS41       0.1621
     25  C         26.3400   33.3190   -6.4270 C.2    41  HIS41       0.2264
     26  O         27.2180   33.6320   -5.6370 O.2    41  HIS41      -0.2867
     27  CB        25.9140   35.6330   -7.5090 C.3    41  HIS41       0.0745
     28  CG        24.7220   35.9830   -6.6570 C.ar   41  HIS41       0.0817
     29  ND1       23.7380   36.8530   -7.0820 N.ar   41  HIS41      -0.2268
     30  CD2       24.3990   35.6470   -5.3860 C.ar   41  HIS41       0.1154
     31  CE1       22.8430   37.0090   -6.1200 C.ar   41  HIS41       0.1986
     32  NE2       23.2210   36.2880   -5.0820 N.ar   41  HIS41      -0.2212
     33  N         30.0050   32.2600   -6.1980 N.3    44  CYS44      -0.1235
     34  CA        31.0620   33.2540   -6.0240 C.3    44  CYS44       0.1677
     35  C         31.8980   32.9300   -4.8040 C.2    44  CYS44       0.2270
     36  O         31.3640   32.5190   -3.7760 O.2    44  CYS44      -0.2867
     37  CB        30.4870   34.6600   -5.8800 C.3    44  CYS44       0.0956
     38  SG        29.9880   35.4150   -7.4240 S.3    44  CYS44      -0.0801
     39  N         33.5760   39.0270   -5.4530 N.3    49  MET49      -0.1245
     40  CA        32.2290   39.2990   -5.9460 C.3    49  MET49       0.1570
     41  C         32.2640   40.4260   -6.9730 C.2    49  MET49       0.2261
     42  O         31.2460   40.7550   -7.5880 O.2    49  MET49      -0.2867
     43  CB        31.2880   39.6240   -4.7860 C.3    49  MET49       0.0387
     44  CG        31.1410   38.4810   -3.7910 C.3    49  MET49       0.0595
     45  SD        30.0720   38.8900   -2.4040 S.3    49  MET49      -0.1393
     46  CE        30.6390   37.6960   -1.1840 C.3    49  MET49       0.0692
     47  N         33.7150   38.0790  -10.9380 N.3    52  PRO52      -0.2116
     48  CA        33.6470   36.6290  -11.1110 C.3    52  PRO52       0.1372
     49  C         33.5720   36.2520  -12.5850 C.2    52  PRO52       0.2244
     50  O         32.8660   36.9080  -13.3510 O.2    52  PRO52      -0.2868
     51  CB        32.3420   36.2490  -10.4040 C.3    52  PRO52       0.0268
     52  CG        31.5150   37.4980  -10.4210 C.3    52  PRO52       0.0207
     53  CD        32.4900   38.6270  -10.3240 C.3    52  PRO52       0.0892
     54  N         32.0270   33.2980  -14.2260 N.3    54  TYR54      -0.1241
     55  CA        31.1630   32.2110  -13.7930 C.3    54  TYR54       0.1605
     56  C         31.4560   30.8810  -14.4770 C.2    54  TYR54       0.2264
     57  O         31.3080   29.8250  -13.8560 O.2    54  TYR54      -0.2867
     58  CB        29.6940   32.6050  -13.9380 C.3    54  TYR54       0.0534
     59  CG        29.2720   33.6420  -12.9180 C.ar   54  TYR54      -0.0201
     60  CD1       29.1430   34.9920  -13.2710 C.ar   54  TYR54      -0.0009
     61  CD2       29.0280   33.2800  -11.5940 C.ar   54  TYR54      -0.0009
     62  CE1       28.7470   35.9480  -12.3220 C.ar   54  TYR54       0.0417
     63  CE2       28.6410   34.2230  -10.6430 C.ar   54  TYR54       0.0417
     64  CZ        28.5040   35.5560  -11.0160 C.ar   54  TYR54       0.1957
     65  OH        28.1180   36.4860  -10.0740 O.3    54  TYR54      -0.2866
     66  N         13.4950   43.6010    0.7330 N.3   140  PHE140     -0.1227
     67  CA        14.3640   42.4220    0.7860 C.3   140  PHE140      0.1736
     68  C         15.5250   42.6610    1.7380 C.2   140  PHE140      0.2595
     69  O         16.1070   43.7490    1.7440 O.2   140  PHE140     -0.2718
     70  CB        14.9740   42.1630   -0.5950 C.3   140  PHE140      0.0547
     71  CG        14.0110   41.6540   -1.6330 C.ar  140  PHE140     -0.0202
     72  CD1       13.7690   42.3970   -2.7870 C.ar  140  PHE140     -0.0042
     73  CD2       13.3810   40.4240   -1.4880 C.ar  140  PHE140     -0.0042
     74  CE1       12.9190   41.9210   -3.7900 C.ar  140  PHE140     -0.0003
     75  CE2       12.5230   39.9380   -2.4890 C.ar  140  PHE140     -0.0003
     76  CZ        12.2980   40.7070   -3.6430 C.ar  140  PHE140     -0.0000
     77  N         15.8890   41.6320    2.4980 N.am  141  LEU141     -0.1966
     78  CA        17.0620   41.6990    3.3740 C.3   141  LEU141      0.1728
     79  C         18.1200   40.6870    2.9340 C.2   141  LEU141      0.2616
     80  O         17.9030   39.9240    1.9930 O.2   141  LEU141     -0.2715
     81  CB        16.6540   41.4200    4.8250 C.3   141  LEU141      0.0311
     82  CG        15.5930   42.3330    5.4470 C.3   141  LEU141      0.0022
     83  CD1       15.2960   41.8790    6.8550 C.3   141  LEU141      0.0001
     84  CD2       16.0810   43.7890    5.4560 C.3   141  LEU141      0.0001
     85  N         19.2650   40.6700    3.6260 N.am  142  ASN142     -0.1958
     86  CA        20.2650   39.6290    3.3840 C.3   142  ASN142      0.1819
     87  C         19.6150   38.2570    3.4890 C.2   142  ASN142      0.2622
     88  O         18.8080   38.0150    4.3940 O.2   142  ASN142     -0.2715
     89  CB        21.4350   39.7520    4.3740 C.3   142  ASN142      0.1195
     90  CG        22.2970   40.9680    4.1010 C.2   142  ASN142      0.2630
     91  OD1       22.0460   41.7300    3.1630 O.2   142  ASN142     -0.2716
     92  ND2       23.3200   41.1630    4.9300 N.am  142  ASN142     -0.0877
     93  N         19.9300   37.3730    2.5460 N.am  143  GLY143     -0.1940
     94  CA        19.3580   36.0220    2.5400 C.3   143  GLY143      0.2014
     95  C         18.1760   35.8430    1.6040 C.2   143  GLY143      0.2640
     96  O         17.6970   34.7270    1.4280 O.2   143  GLY143     -0.2714
     97  N         17.7070   36.9410    1.0110 N.am  144  SER144     -0.1935
     98  CA        16.5060   36.9070    0.1760 C.3   144  SER144      0.2055
     99  C         16.7530   36.5070   -1.2740 C.2   144  SER144      0.2643
    100  O         15.7990   36.3370   -2.0280 O.2   144  SER144     -0.2714
    101  CB        15.7970   38.2660    0.1980 C.3   144  SER144      0.2130
    102  OG        16.6420   39.2710   -0.3230 O.3   144  SER144     -0.2179
    103  N         18.0130   36.3640   -1.6910 N.am  145  CYS145     -0.1967
    104  CA        18.2390   36.0500   -3.1030 C.3   145  CYS145      0.1712
    105  C         17.6240   34.7200   -3.4940 C.2   145  CYS145      0.2296
    106  O         17.5900   33.7690   -2.6960 O.2   145  CYS145     -0.2864
    107  CB        19.7180   36.1160   -3.4960 C.3   145  CYS145      0.0983
    108  SG        20.3380   37.8090   -3.5450 S.3   145  CYS145     -0.0798
    109  N         15.0870   37.0120   -7.6170 N.3   163  HIS163     -0.1226
    110  CA        15.7690   38.1600   -7.0500 C.3   163  HIS163      0.1752
    111  C         17.2840   37.9850   -6.9460 C.2   163  HIS163      0.2596
    112  O         17.7390   36.9700   -6.4310 O.2   163  HIS163     -0.2718
    113  CB        15.2290   38.4640   -5.6530 C.3   163  HIS163      0.0759
    114  CG        15.8220   39.7050   -5.0880 C.ar  163  HIS163      0.0818
    115  ND1       15.8220   40.8910   -5.7870 N.ar  163  HIS163     -0.2268
    116  CD2       16.4410   39.9580   -3.9130 C.ar  163  HIS163      0.1154
    117  CE1       16.4360   41.8190   -5.0800 C.ar  163  HIS163      0.1986
    118  NE2       16.8440   41.2730   -3.9460 N.ar  163  HIS163     -0.2212
    119  N         18.0480   38.9880   -7.3780 N.am  164  HIS164     -0.1961
    120  CA        19.5240   38.8970   -7.3520 C.3   164  HIS164      0.1787
    121  C         20.2440   39.9750   -6.5530 C.2   164  HIS164      0.2620
    122  O         21.2460   39.6770   -5.8980 O.2   164  HIS164     -0.2715
    123  CB        20.1300   38.9210   -8.7650 C.3   164  HIS164      0.0785
    124  CG        19.8750   37.6870   -9.5720 C.ar  164  HIS164      0.0821
    125  ND1       20.8930   36.8590  -10.0180 N.ar  164  HIS164     -0.2267
    126  CD2       18.7270   37.1840  -10.0840 C.ar  164  HIS164      0.1154
    127  CE1       20.3730   35.8830  -10.7410 C.ar  164  HIS164      0.1986
    128  NE2       19.0630   36.0680  -10.8120 N.ar  164  HIS164     -0.2212
    129  N         19.7910   41.2280   -6.6420 N.am  165  MET165     -0.1963
    130  CA        20.5630   42.3240   -6.0550 C.3   165  MET165      0.1736
    131  C         19.7920   43.5810   -5.6820 C.2   165  MET165      0.2616
    132  O         18.6740   43.8290   -6.1470 O.2   165  MET165     -0.2715
    133  CB        21.7560   42.6850   -6.9400 C.3   165  MET165      0.0427
    134  CG        21.4210   43.1570   -8.3150 C.3   165  MET165      0.0599
    135  SD        22.8090   42.7850   -9.4320 S.3   165  MET165     -0.1393
    136  CE        24.1450   43.7770   -8.7450 C.3   165  MET165      0.0692
    137  N         20.4200   44.3680   -4.8160 N.am  166  GLU166     -0.1963
    138  CA        19.8880   45.6610   -4.4260 C.3   166  GLU166      0.1733
    139  C         20.8170   46.7500   -4.9120 C.2   166  GLU166      0.2616
    140  O         22.0330   46.6460   -4.7690 O.2   166  GLU166     -0.2715
    141  CB        19.7400   45.7320   -2.9010 C.3   166  GLU166      0.0429
    142  CG        19.0820   47.0160   -2.4020 C.3   166  GLU166      0.1163
    143  CD        18.7780   46.9720   -0.9170 C.2   166  GLU166      0.3649
    144  OE1       19.5570   47.5750   -0.1480 O.co2 166  GLU166     -0.2457
    145  OE2       17.7830   46.3390   -0.5110 O.co2 166  GLU166     -0.2457
    146  N         20.2290   47.8030   -5.4660 N.am  167  LEU167     -0.1964
    147  CA        20.9760   48.9660   -5.9440 C.3   167  LEU167      0.1713
    148  C         21.0510   50.0600   -4.8780 C.2   167  LEU167      0.2458
    149  O         20.3070   50.0140   -3.8990 O.2   167  LEU167     -0.2730
    150  CB        20.3360   49.4920   -7.2410 C.3   167  LEU167      0.0310
    151  CG        20.3670   48.4820   -8.3910 C.3   167  LEU167      0.0022
    152  CD1       19.5290   48.9700   -9.5670 C.3   167  LEU167      0.0001
    153  CD2       21.7980   48.1580   -8.8370 C.3   167  LEU167      0.0001
    154  N         21.9530   51.0460   -5.0640 N.am  168  PRO168     -0.2727
    155  CA        22.2150   52.0900   -4.0720 C.3   168  PRO168      0.1402
    156  C         20.9940   52.8740   -3.6120 C.2   168  PRO168      0.2269
    157  O         20.9640   53.3330   -2.4630 O.2   168  PRO168     -0.2865
    158  CB        23.1840   53.0250   -4.8040 C.3   168  PRO168      0.0296
    159  CG        23.9160   52.1380   -5.7020 C.3   168  PRO168      0.0237
    160  CD        22.9210   51.1150   -6.1760 C.3   168  PRO168      0.0939
    161  N         15.4400   47.1770   -6.4040 N.3   172  HIS172     -0.1241
    162  CA        15.8240   45.7830   -6.5780 C.3   172  HIS172      0.1621
    163  C         15.8910   45.3510   -8.0170 C.2   172  HIS172      0.2264
    164  O         15.1260   45.8330   -8.8480 O.2   172  HIS172     -0.2867
    165  CB        14.8570   44.9250   -5.7710 C.3   172  HIS172      0.0745
    166  CG        14.9210   45.2580   -4.3200 C.ar  172  HIS172      0.0817
    167  ND1       13.9220   45.9490   -3.6660 N.ar  172  HIS172     -0.2268
    168  CD2       15.9260   45.1010   -3.4270 C.ar  172  HIS172      0.1154
    169  CE1       14.2970   46.1710   -2.4170 C.ar  172  HIS172      0.1986
    170  NE2       15.5060   45.6590   -2.2440 N.ar  172  HIS172     -0.2212
    171  N         25.2840   40.6890  -12.8300 N.3   187  ASP187     -0.1225
    172  CA        25.4780   40.0870  -11.5040 C.3   187  ASP187      0.1805
    173  C         26.9430   40.0890  -11.0720 C.2   187  ASP187      0.2598
    174  O         27.6060   39.0490  -10.9820 O.2   187  ASP187     -0.2718
    175  CB        24.8280   38.6960  -11.3760 C.3   187  ASP187      0.1424
    176  CG        25.2660   37.7230  -12.4600 C.2   187  ASP187      0.3668
    177  OD1       25.9450   38.1390  -13.4200 O.co2 187  ASP187     -0.2456
    178  OD2       24.8960   36.5280  -12.3610 O.co2 187  ASP187     -0.2456
    179  N         27.4320   41.2990  -10.8300 N.am  188  ARG188     -0.1966
    180  CA        28.7400   41.5230  -10.2370 C.3   188  ARG188      0.1729
    181  C         28.6430   42.8090   -9.4370 C.2   188  ARG188      0.2616
    182  O         27.8270   43.6940   -9.7490 O.2   188  ARG188     -0.2715
    183  CB        29.8430   41.5960  -11.3020 C.3   188  ARG188      0.0348
    184  CG        29.6150   42.5960  -12.4280 C.3   188  ARG188      0.0492
    185  CD        30.5340   42.3190  -13.6400 C.3   188  ARG188      0.2205
    186  NE        30.4220   40.9330  -14.0930 N.pl3 188  ARG188     -0.0865
    187  CZ        31.4140   40.0440  -14.1020 C.cat 188  ARG188      0.5346
    188  NH1       32.6370   40.3850  -13.7110 N.pl3 188  ARG188      0.1354
    189  NH2       31.1820   38.8070  -14.5250 N.pl3 188  ARG188      0.1354
    190  N         29.4380   42.9050   -8.3800 N.am  189  GLN189     -0.1963
    191  CA        29.3340   44.0550   -7.4940 C.3   189  GLN189      0.1733
    192  C         30.1870   45.2200   -7.9770 C.2   189  GLN189      0.2617
    193  O         30.9200   45.8410   -7.2030 O.2   189  GLN189     -0.2715
    194  CB        29.6320   43.6540   -6.0450 C.3   189  GLN189      0.0408
    195  CG        28.6230   42.6190   -5.5220 C.3   189  GLN189      0.0908
    196  CD        28.6600   42.4180   -4.0120 C.2   189  GLN189      0.2608
    197  OE1       27.6400   42.1090   -3.4000 O.2   189  GLN189     -0.2717
    198  NE2       29.8360   42.5650   -3.4100 N.am  189  GLN189     -0.0878
    199  N         30.0900   45.4880   -9.2760 N.am  190  THR190     -0.1937
    200  CA        30.6860   46.6620   -9.8940 C.3   190  THR190      0.2028
    201  C         29.6250   47.7470   -9.8380 C.2   190  THR190      0.2642
    202  O         28.4260   47.4430   -9.8810 O.2   190  THR190     -0.2714
    203  CB        31.0770   46.4090  -11.3780 C.3   190  THR190      0.1808
    204  OG1       29.9190   46.0150  -12.1290 O.3   190  THR190     -0.2208
    205  CG2       32.1450   45.3280  -11.4950 C.3   190  THR190      0.0379
    206  N         30.0610   49.0020   -9.7370 N.am  191  ALA191     -0.1963
    207  CA        29.1460   50.1410   -9.6480 C.3   191  ALA191      0.1728
    208  C         28.1170   50.1620  -10.7780 C.2   191  ALA191      0.2616
    209  O         28.4650   50.1120  -11.9650 O.2   191  ALA191     -0.2715
    210  CB        29.9210   51.4480   -9.6130 C.3   191  ALA191      0.0334
    211  N         26.8500   50.2230  -10.3740 N.am  192  GLN192     -0.1977
    212  CA        25.6960   50.2660  -11.2690 C.3   192  GLN192      0.1601
    213  C         24.6370   51.1370  -10.6150 C.2   192  GLN192      0.2287
    214  O         24.5510   51.1910   -9.3910 O.2   192  GLN192     -0.2864
    215  CB        25.1290   48.8580  -11.4840 C.3   192  GLN192      0.0394
    216  CG        26.1120   47.8800  -12.1020 C.3   192  GLN192      0.0908
    217  CD        25.5720   46.4710  -12.1560 C.2   192  GLN192      0.2608
    218  OE1       26.0380   45.5770  -11.4360 O.2   192  GLN192     -0.2717
    219  NE2       24.6020   46.2550  -13.0190 N.am  192  GLN192     -0.0878
@<TRIPOS>BOND
     1   189   187    1
     2    56    57    2
     3    56    55    1
     4    54    55    1
     5   187   186    2
     6   187   188    1
     7   186   185    1
     8    58    55    1
     9    58    59    1
    10   185   184    1
    11   177   176   ar
    12    50    49    2
    13    60    59   ar
    14    60    62   ar
    15   219   217   am
    16    59    61   ar
    17   171   172    1
    18    49    48    1
    19   176   178   ar
    20   176   175    1
    21   184   183    1
    22    62    64   ar
    23   217   216    1
    24   217   218    2
    25   204   203    1
    26   216   215    1
    27   209   208    2
    28    61    63   ar
    29   172   175    1
    30   172   173    1
    31   205   203    1
    32   215   212    1
    33   203   200    1
    34   183   180    1
    35   212   213    1
    36   212   211    1
    37    48    47    1
    38    48    51    1
    39   173   174    2
    40   173   179   am
    41    64    63   ar
    42    64    65    1
    43    47    53    1
    44   179   180    1
    45   128   127   ar
    46   128   126   ar
    47   208   211   am
    48   208   207    1
    49   127   125   ar
    50   213   214    2
    51    52    51    1
    52    52    53    1
    53   180   181    1
    54   126   124   ar
    55   125   124   ar
    56   200   201    1
    57   200   199    1
    58   202   201    2
    59   201   206   am
    60   182   181    2
    61   206   207    1
    62   207   210    1
    63   124   123    1
    64   152   151    1
    65   181   190   am
    66   135   136    1
    67   135   134    1
    68   199   192   am
    69   164   163    2
    70   153   151    1
    71   123   120    1
    72    23    24    1
    73   151   150    1
    74   190   191    1
    75   134   133    1
    76   163   162    1
    77   192   191    1
    78   192   193    2
    79    24    27    1
    80    24    25    1
    81   109   110    1
    82    42    41    2
    83    27    28    1
    84   191   194    1
    85    38    37    1
    86   119   120    1
    87   119   111   am
    88   120   121    1
    89   150   147    1
    90    29    28   ar
    91    29    31   ar
    92   110   111    1
    93   110   113    1
    94    41    40    1
    95   111   112    2
    96   133   130    1
    97    28    30   ar
    98   129   121   am
    99   129   130    1
   100   162   161    1
   101   162   165    1
   102   121   122    2
   103    25    26    2
   104    33    34    1
   105   160   159    1
   106   160   154    1
   107   132   131    2
   108    31    32   ar
   109   130   131    1
   110   194   195    1
   111    34    37    1
   112    34    35    1
   113    40    39    1
   114    40    43    1
   115   147   146    1
   116   147   148    1
   117   115   114   ar
   118   115   117   ar
   119   165   166    1
   120   159   158    1
   121   131   137   am
   122   113   114    1
   123   195   196    1
   124   146   139   am
   125    30    32   ar
   126   114   116   ar
   127   117   118   ar
   128   154   148   am
   129   154   155    1
   130   139   140    2
   131   139   138    1
   132   148   149    2
   133   137   138    1
   134    35    36    2
   135   158   155    1
   136    43    44    1
   137   138   141    1
   138   166   167   ar
   139   166   168   ar
   140   155   156    1
   141   196   198   am
   142   196   197    2
   143    22    20    1
   144   118   116   ar
   145    21    20    1
   146    44    45    1
   147    74    76   ar
   148    74    72   ar
   149   167   169   ar
   150    76    75   ar
   151   156   157    2
   152   108   107    1
   153   107   104    1
   154   105   104    1
   155   105   106    2
   156   168   170   ar
   157   104   103    1
   158    20    19    1
   159   141   142    1
   160    72    71   ar
   161    75    73   ar
   162   169   170   ar
   163    45    46    1
   164   142   143    1
   165   100    99    2
   166    19    16    1
   167   103    99   am
   168    71    73   ar
   169    71    70    1
   170    99    98    1
   171    17    18    2
   172    17    16    1
   173     7     5    1
   174   143   145   ar
   175   143   144   ar
   176    16    15    1
   177     5     6    1
   178     5     2    1
   179    70    67    1
   180   102   101    1
   181    15    10   am
   182     4     3    2
   183    98   101    1
   184    98    97    1
   185    10    11    2
   186    10     9    1
   187     3     2    1
   188     3     8   am
   189     2     1    1
   190    66    67    1
   191    67    68    1
   192    97    95   am
   193     9     8    1
   194     9    12    1
   195    96    95    2
   196    95    94    1
   197    68    69    2
   198    68    77   am
   199    80    79    2
   200    77    78    1
   201    14    12    1
   202    94    93    1
   203    93    87   am
   204    12    13    1
   205    79    78    1
   206    79    85   am
   207    91    90    2
   208    78    81    1
   209    86    87    1
   210    86    85    1
   211    86    89    1
   212    87    88    2
   213    90    89    1
   214    90    92   am
   215    81    82    1
   216    82    84    1
   217    82    83    1
