@<TRIPOS>MOLECULE
tmp/3tnwA00.pdb
 109 102 0 0 0
SMALL
GASTEIGER

@<TRIPOS>ATOM
      1  N         -1.7530  -20.1240   29.3550 N.3    11  ILE11      -0.1231
      2  CA        -1.7830  -21.3920   28.6290 C.3    11  ILE11       0.1692
      3  C         -1.1960  -21.2850   27.2240 C.2    11  ILE11       0.2592
      4  O         -0.8030  -22.2920   26.6320 O.2    11  ILE11      -0.2718
      5  CB        -3.1990  -22.0120   28.5570 C.3    11  ILE11       0.0266
      6  CG1       -4.1700  -21.0840   27.8270 C.3    11  ILE11       0.0019
      7  CG2       -3.7070  -22.3590   29.9560 C.3    11  ILE11       0.0020
      8  CD1       -5.5610  -21.6850   27.6520 C.3    11  ILE11       0.0001
      9  N         -1.1320  -20.0660   26.6960 N.am   12  GLY12      -0.1957
     10  CA        -0.5750  -19.8440   25.3740 C.3    12  GLY12       0.1869
     11  C          0.0050  -18.4540   25.1920 C.2    12  GLY12       0.2309
     12  O          0.0610  -17.6560   26.1290 O.2    12  GLY12      -0.2863
     13  N         -2.6350  -16.1070   26.0070 N.3    19  VAL19      -0.1245
     14  CA        -3.8750  -16.8020   26.3160 C.3    19  VAL19       0.1561
     15  C         -3.8480  -17.3610   27.7470 C.2    19  VAL19       0.2260
     16  O         -2.9180  -18.0620   28.1360 O.2    19  VAL19      -0.2867
     17  CB        -4.1870  -17.9240   25.3100 C.3    19  VAL19       0.0252
     18  CG1       -5.5500  -18.5190   25.5980 C.3    19  VAL19       0.0019
     19  CG2       -4.1610  -17.3860   23.8840 C.3    19  VAL19       0.0019
     20  N        -10.9420  -19.7810   27.9920 N.3    32  ALA32      -0.1245
     21  CA        -9.6610  -19.2400   27.5930 C.3    32  ALA32       0.1562
     22  C         -9.8360  -17.7560   27.2750 C.2    32  ALA32       0.2260
     23  O        -10.7920  -17.3620   26.5930 O.2    32  ALA32      -0.2867
     24  CB        -9.1230  -19.9820   26.3890 C.3    32  ALA32       0.0290
     25  N         -8.0160  -14.6590   25.4350 N.3    34  LYS34      -0.1245
     26  CA        -6.9560  -14.1390   24.5820 C.3    34  LYS34       0.1561
     27  C         -6.9060  -12.6240   24.7430 C.2    34  LYS34       0.2260
     28  O         -7.8700  -11.9100   24.4450 O.2    34  LYS34      -0.2867
     29  CB        -7.1810  -14.5300   23.1180 C.3    34  LYS34       0.0271
     30  CG        -6.0120  -14.2030   22.1920 C.3    34  LYS34       0.0035
     31  CD        -6.2780  -14.6720   20.7620 C.3    34  LYS34       0.0206
     32  CE        -5.1730  -14.2250   19.8050 C.3    34  LYS34       0.1093
     33  NZ        -5.5470  -14.4630   18.3770 N.3    34  LYS34      -0.1314
     34  N        -10.1620  -12.0220   12.9650 N.3    49  GLU49      -0.1245
     35  CA       -10.4830  -13.1530   13.8400 C.3    49  GLU49       0.1567
     36  C        -11.8110  -12.9660   14.5650 C.2    49  GLU49       0.2260
     37  O        -12.6280  -13.8740   14.6200 O.2    49  GLU49      -0.2867
     38  CB        -9.3760  -13.4510   14.8550 C.3    49  GLU49       0.0388
     39  CG        -9.7750  -14.5870   15.7990 C.3    49  GLU49       0.1160
     40  CD        -8.5830  -15.2660   16.4520 C.2    49  GLU49       0.3649
     41  OE1       -7.6300  -14.5540   16.8210 O.co2  49  GLU49      -0.2457
     42  OE2       -8.6120  -16.5170   16.5770 O.co2  49  GLU49      -0.2457
     43  N        -13.9010  -23.5660   17.5660 N.3    62  VAL62      -0.1245
     44  CA       -13.7450  -22.9790   18.8990 C.3    62  VAL62       0.1561
     45  C        -14.7040  -21.8010   19.0710 C.2    62  VAL62       0.2260
     46  O        -14.7890  -20.9440   18.2000 O.2    62  VAL62      -0.2867
     47  CB       -12.3220  -22.4810   19.1200 C.3    62  VAL62       0.0252
     48  CG1      -12.0330  -21.2670   18.2040 C.3    62  VAL62       0.0019
     49  CG2      -12.0840  -22.1450   20.6140 C.3    62  VAL62       0.0019
     50  N        -13.0950  -17.3740   24.9550 N.3    78  PHE78      -0.1227
     51  CA       -13.4150  -18.6330   24.2890 C.3    78  PHE78       0.1736
     52  C        -13.8230  -19.7460   25.2610 C.2    78  PHE78       0.2595
     53  O        -13.3830  -19.7730   26.4140 O.2    78  PHE78      -0.2718
     54  CB       -12.1940  -19.1490   23.5170 C.3    78  PHE78       0.0547
     55  CG       -11.7460  -18.2520   22.3870 C.ar   78  PHE78      -0.0202
     56  CD1      -12.3830  -18.2960   21.1620 C.ar   78  PHE78      -0.0042
     57  CD2      -10.6730  -17.4010   22.5470 C.ar   78  PHE78      -0.0042
     58  CE1      -11.9600  -17.5020   20.1170 C.ar   78  PHE78      -0.0003
     59  CE2      -10.2480  -16.5930   21.5130 C.ar   78  PHE78      -0.0003
     60  CZ       -10.8930  -16.6450   20.2950 C.ar   78  PHE78      -0.0000
     61  N        -14.6320  -20.6870   24.7800 N.am   79  GLU79      -0.1965
     62  CA       -14.8320  -21.9430   25.4960 C.3    79  GLU79       0.1733
     63  C        -13.4380  -22.5300   25.6970 C.2    79  GLU79       0.2616
     64  O        -12.5810  -22.3960   24.8160 O.2    79  GLU79      -0.2715
     65  CB       -15.7010  -22.9070   24.6790 C.3    79  GLU79       0.0429
     66  CG       -15.0590  -23.3190   23.3480 C.3    79  GLU79       0.1163
     67  CD       -15.8460  -24.3920   22.5890 C.2    79  GLU79       0.3649
     68  OE1      -16.3200  -25.3640   23.2140 O.co2  79  GLU79      -0.2457
     69  OE2      -15.9920  -24.2610   21.3560 O.co2  79  GLU79      -0.2457
     70  N        -13.1930  -23.1520   26.8510 N.am   80  PHE80      -0.1960
     71  CA       -11.8770  -23.7440   27.1270 C.3    80  PHE80       0.1771
     72  C        -11.7560  -25.1590   26.5700 C.2    80  PHE80       0.2619
     73  O        -12.6350  -25.9840   26.7740 O.2    80  PHE80      -0.2715
     74  CB       -11.6070  -23.7800   28.6370 C.3    80  PHE80       0.0574
     75  CG       -10.3490  -24.4990   29.0060 C.ar   80  PHE80      -0.0200
     76  CD1       -9.1190  -23.8860   28.8570 C.ar   80  PHE80      -0.0042
     77  CD2      -10.3930  -25.7890   29.5100 C.ar   80  PHE80      -0.0042
     78  CE1       -7.9550  -24.5380   29.2020 C.ar   80  PHE80      -0.0003
     79  CE2       -9.2320  -26.4460   29.8520 C.ar   80  PHE80      -0.0003
     80  CZ        -8.0120  -25.8220   29.6950 C.ar   80  PHE80      -0.0000
     81  N        -10.6720  -25.4360   25.8610 N.am   81  LEU81      -0.1977
     82  CA       -10.3530  -26.8100   25.4990 C.3    81  LEU81       0.1596
     83  C         -9.0200  -27.2210   26.1220 C.2    81  LEU81       0.2287
     84  O         -8.1200  -26.4070   26.3030 O.2    81  LEU81      -0.2864
     85  CB       -10.3800  -27.0420   23.9780 C.3    81  LEU81       0.0297
     86  CG       -11.8140  -27.0530   23.4290 C.3    81  LEU81       0.0022
     87  CD1      -12.1560  -25.6880   22.8840 C.3    81  LEU81       0.0001
     88  CD2      -11.9950  -28.1130   22.3590 C.3    81  LEU81       0.0001
     89  N         -7.8770  -28.0550   18.6510 N.3   132  LEU132     -0.1245
     90  CA        -8.0000  -28.2750   20.1010 C.3   132  LEU132      0.1561
     91  C         -8.9530  -29.4220   20.4020 C.2   132  LEU132      0.2260
     92  O         -9.9200  -29.6280   19.6810 O.2   132  LEU132     -0.2867
     93  CB        -8.4850  -27.0120   20.8120 C.3   132  LEU132      0.0270
     94  CG        -7.7190  -25.7030   20.5940 C.3   132  LEU132      0.0019
     95  CD1       -8.4580  -24.5620   21.3050 C.3   132  LEU132      0.0001
     96  CD2       -6.2740  -25.7980   21.0640 C.3   132  LEU132      0.0001
     97  N         -9.2630  -23.9450   15.8240 N.3   142  ALA142     -0.1231
     98  CA        -9.0000  -22.7280   16.5970 C.3   142  ALA142      0.1694
     99  C         -8.0250  -21.7960   15.8680 C.2   142  ALA142      0.2592
    100  O         -7.5820  -22.1040   14.7670 O.2   142  ALA142     -0.2718
    101  CB        -8.4560  -23.0770   17.9960 C.3   142  ALA142      0.0304
    102  N         -7.6900  -20.6720   16.5050 N.am  143  ASP143     -0.1974
    103  CA        -6.8060  -19.6450   15.9250 C.3   143  ASP143      0.1709
    104  C         -7.1620  -19.2450   14.4940 C.2   143  ASP143      0.2293
    105  O         -6.5550  -19.7380   13.5320 O.2   143  ASP143     -0.2864
    106  CB        -5.3440  -20.0860   15.9520 C.3   143  ASP143      0.1436
    107  CG        -4.3740  -18.9060   15.7950 C.2   143  ASP143      0.3671
    108  OD1       -4.8010  -17.7940   15.3780 O.co2 143  ASP143     -0.2456
    109  OD2       -3.1740  -19.0960   16.0880 O.co2 143  ASP143     -0.2456
@<TRIPOS>BOND
     1    34    35    1
     2   105   104    2
     3    35    36    1
     4    35    38    1
     5   104   103    1
     6    36    37    2
     7   100    99    2
     8    38    39    1
     9   108   107   ar
    10   107   106    1
    11   107   109   ar
    12    39    40    1
    13    97    98    1
    14    99   102   am
    15    99    98    1
    16   103   106    1
    17   103   102    1
    18    40    42   ar
    19    40    41   ar
    20    98   101    1
    21    43    44    1
    22    46    45    2
    23    48    47    1
    24    33    32    1
    25    89    90    1
    26    44    45    1
    27    44    47    1
    28    47    49    1
    29    92    91    2
    30    32    31    1
    31    90    91    1
    32    90    93    1
    33    58    60   ar
    34    58    56   ar
    35    60    59   ar
    36    94    93    1
    37    94    96    1
    38    94    95    1
    39    31    30    1
    40    56    55   ar
    41    69    67   ar
    42    59    57   ar
    43    30    29    1
    44    88    86    1
    45    55    57   ar
    46    55    54    1
    47    67    68   ar
    48    67    66    1
    49    87    86    1
    50    29    26    1
    51    66    65    1
    52    86    85    1
    53    54    51    1
    54    19    17    1
    55    85    82    1
    56    51    50    1
    57    51    52    1
    58    28    27    2
    59    26    27    1
    60    26    25    1
    61    65    62    1
    62    61    52   am
    63    61    62    1
    64    64    63    2
    65    11    10    1
    66    11    12    2
    67    52    53    2
    68    17    18    1
    69    17    14    1
    70    10     9    1
    71    62    63    1
    72    82    81    1
    73    82    83    1
    74    63    70   am
    75    81    72   am
    76    13    14    1
    77    83    84    2
    78    14    15    1
    79    24    21    1
    80    72    73    2
    81    72    71    1
    82    23    22    2
    83     4     3    2
    84     9     3   am
    85    70    71    1
    86    71    74    1
    87     3     2    1
    88    22    21    1
    89    21    20    1
    90     8     6    1
    91    15    16    2
    92     6     5    1
    93     5     2    1
    94     5     7    1
    95     2     1    1
    96    74    75    1
    97    76    75   ar
    98    76    78   ar
    99    75    77   ar
   100    78    80   ar
   101    77    79   ar
   102    80    79   ar
