@<TRIPOS>MOLECULE
tmp/3tnyA00.pdb
 153 146 0 0 0
SMALL
GASTEIGER

@<TRIPOS>ATOM
      1  N         20.1140   16.8370   15.1580 N.3    46  TRP46      -0.1241
      2  CA        21.1800   16.3540   16.0410 C.3    46  TRP46       0.1605
      3  C         22.5590   16.8860   15.6480 C.2    46  TRP46       0.2264
      4  O         23.3570   17.2510   16.5160 O.2    46  TRP46      -0.2867
      5  CB        21.2280   14.8230   16.0680 C.3    46  TRP46       0.0550
      6  CG        20.1900   14.1500   16.9290 C.ar   46  TRP46       0.0003
      7  CD1       19.2250   13.2820   16.5100 C.ar   46  TRP46       0.0946
      8  CD2       20.0380   14.2590   18.3520 C.ar   46  TRP46       0.0152
      9  NE1       18.4760   12.8480   17.5770 N.ar   46  TRP46      -0.2442
     10  CE2       18.9500   13.4350   18.7190 C.ar   46  TRP46       0.0810
     11  CE3       20.7090   14.9770   19.3500 C.ar   46  TRP46       0.0012
     12  CZ2       18.5230   13.3000   20.0450 C.ar   46  TRP46       0.0191
     13  CZ3       20.2770   14.8490   20.6680 C.ar   46  TRP46       0.0001
     14  CH2       19.1910   14.0210   21.0000 C.ar   46  TRP46       0.0015
     15  N         16.5940   15.7610   22.8050 N.3    69  GLY69      -0.1225
     16  CA        16.7440   15.2090   24.1490 C.3    69  GLY69       0.1811
     17  C         16.4520   16.1960   25.2650 C.2    69  GLY69       0.2280
     18  O         16.1580   15.7820   26.3880 O.2    69  GLY69      -0.2866
     19  N          9.4780    8.1140   24.5130 N.3    89  MET89      -0.1230
     20  CA        10.8320    7.7070   24.8780 C.3    89  MET89       0.1702
     21  C         11.7390    8.9100   25.1750 C.2    89  MET89       0.2592
     22  O         12.5310    8.8750   26.1110 O.2    89  MET89      -0.2718
     23  CB        11.4360    6.8290   23.7870 C.3    89  MET89       0.0401
     24  CG        12.8000    6.2710   24.1300 C.3    89  MET89       0.0596
     25  SD        14.1260    7.3030   23.5080 S.3    89  MET89      -0.1393
     26  CE        13.9970    6.9850   21.7460 C.3    89  MET89       0.0692
     27  N         11.6030    9.9770   24.3930 N.am   90  ARG90      -0.1980
     28  CA        12.4220   11.1770   24.5610 C.3    90  ARG90       0.1597
     29  C         11.8800   12.1740   25.5860 C.2    90  ARG90       0.2287
     30  O         12.6610   12.8620   26.2460 O.2    90  ARG90      -0.2864
     31  CB        12.5480   11.9230   23.2290 C.3    90  ARG90       0.0334
     32  CG        13.3230   11.1830   22.1580 C.3    90  ARG90       0.0492
     33  CD        14.7910   11.0520   22.5050 C.3    90  ARG90       0.2205
     34  NE        15.5710   10.6500   21.3330 N.pl3  90  ARG90      -0.0865
     35  CZ        16.6550    9.8750   21.3580 C.cat  90  ARG90       0.5346
     36  NH1       17.1220    9.3750   22.5000 N.pl3  90  ARG90       0.1354
     37  NH2       17.2650    9.5760   20.2180 N.pl3  90  ARG90       0.1354
     38  N          8.0410    5.3940   20.6000 N.3   109  THR109     -0.1203
     39  CA         9.4890    5.2510   20.5990 C.3   109  THR109      0.1994
     40  C         10.0620    5.5170   19.2080 C.2   109  THR109      0.2618
     41  O          9.3380    5.9400   18.3020 O.2   109  THR109     -0.2717
     42  CB         9.9060    3.8590   21.1210 C.3   109  THR109      0.1784
     43  OG1       11.3150    3.8590   21.3840 O.3   109  THR109     -0.2211
     44  CG2        9.5340    2.7590   20.1290 C.3   109  THR109      0.0376
     45  N         11.3680    5.3190   19.0630 N.am  110  LEU110     -0.1965
     46  CA        12.0330    5.4920   17.7790 C.3   110  LEU110      0.1728
     47  C         12.4030    4.1060   17.2480 C.2   110  LEU110      0.2616
     48  O         11.5730    3.4660   16.6040 O.2   110  LEU110     -0.2715
     49  CB        13.2340    6.4400   17.9070 C.3   110  LEU110      0.0311
     50  CG        12.8640    7.8660   18.3420 C.3   110  LEU110      0.0022
     51  CD1       14.1040    8.7390   18.4640 C.3   110  LEU110      0.0001
     52  CD2       11.8510    8.5080   17.3890 C.3   110  LEU110      0.0001
     53  N         13.6170    3.6300   17.5220 N.am  111  ARG111     -0.1977
     54  CA        14.0090    2.2670   17.1610 C.3   111  ARG111      0.1597
     55  C         13.6900    2.0100   15.6780 C.2   111  ARG111      0.2287
     56  O         14.1080    2.7950   14.8270 O.2   111  ARG111     -0.2864
     57  CB        13.3460    1.2550   18.1120 C.3   111  ARG111      0.0334
     58  CG        13.6710    1.4950   19.5830 C.3   111  ARG111      0.0492
     59  CD        12.8710    0.5730   20.5010 C.3   111  ARG111      0.2205
     60  NE        13.3710   -0.8050   20.5060 N.pl3 111  ARG111     -0.0865
     61  CZ        14.3420   -1.2670   21.2950 C.cat 111  ARG111      0.5346
     62  NH1       14.9570   -0.4700   22.1640 N.pl3 111  ARG111      0.1354
     63  NH2       14.7100   -2.5400   21.2090 N.pl3 111  ARG111      0.1354
     64  N         28.4030    1.2160   14.2630 N.3   161  ARG161     -0.1245
     65  CA        28.4130    2.6380   14.5890 C.3   161  ARG161      0.1563
     66  C         29.4710    2.9720   15.6310 C.2   161  ARG161      0.2260
     67  O         29.5770    2.2890   16.6470 O.2   161  ARG161     -0.2867
     68  CB        27.0450    3.0730   15.1060 C.3   161  ARG161      0.0307
     69  CG        26.8690    4.5700   15.1560 C.3   161  ARG161      0.0489
     70  CD        25.5640    4.9480   15.7880 C.3   161  ARG161      0.2205
     71  NE        25.2490    6.3510   15.5380 N.pl3 161  ARG161     -0.0865
     72  CZ        24.2880    7.0380   16.1530 C.cat 161  ARG161      0.5346
     73  NH1       23.5440    6.4730   17.0970 N.pl3 161  ARG161      0.1354
     74  NH2       24.0830    8.3090   15.8300 N.pl3 161  ARG161      0.1354
     75  N         30.4760    5.8200   18.2690 N.3   163  MET163     -0.1245
     76  CA        29.9660    6.9550   19.0230 C.3   163  MET163      0.1570
     77  C         30.9380    7.2070   20.1620 C.2   163  MET163      0.2261
     78  O         31.7550    6.3450   20.4690 O.2   163  MET163     -0.2867
     79  CB        28.6020    6.6270   19.6260 C.3   163  MET163      0.0387
     80  CG        27.6280    5.9790   18.6800 C.3   163  MET163      0.0595
     81  SD        26.0560    5.6890   19.5130 S.3   163  MET163     -0.1393
     82  CE        25.4170    7.3640   19.6360 C.3   163  MET163      0.0692
     83  N         28.9350    0.3030   18.5440 N.3   168  ARG168     -0.1245
     84  CA        27.7080   -0.4800   18.4730 C.3   168  ARG168      0.1563
     85  C         27.6350   -1.2700   17.1810 C.2   168  ARG168      0.2260
     86  O         28.1460   -0.8400   16.1470 O.2   168  ARG168     -0.2867
     87  CB        26.4910    0.4340   18.5250 C.3   168  ARG168      0.0307
     88  CG        26.3670    1.2490   19.7880 C.3   168  ARG168      0.0489
     89  CD        25.1170    2.0900   19.7160 C.3   168  ARG168      0.2205
     90  NE        24.8890    2.8620   20.9310 N.pl3 168  ARG168     -0.0865
     91  CZ        23.8870    3.7220   21.0930 C.cat 168  ARG168      0.5346
     92  NH1       23.0140    3.9400   20.1120 N.pl3 168  ARG168      0.1354
     93  NH2       23.7700    4.3810   22.2400 N.pl3 168  ARG168      0.1354
     94  N         24.5000   -2.5310   14.9710 N.3   170  TYR170     -0.1241
     95  CA        23.0660   -2.2850   14.9070 C.3   170  TYR170      0.1605
     96  C         22.3190   -3.5340   14.4440 C.2   170  TYR170      0.2264
     97  O         22.7850   -4.2520   13.5620 O.2   170  TYR170     -0.2867
     98  CB        22.7690   -1.0590   14.0140 C.3   170  TYR170      0.0534
     99  CG        22.7260    0.2320   14.8160 C.ar  170  TYR170     -0.0201
    100  CD1       23.8260    0.6490   15.5560 C.ar  170  TYR170     -0.0009
    101  CD2       21.5770    1.0230   14.8590 C.ar  170  TYR170     -0.0009
    102  CE1       23.7800    1.8050   16.3260 C.ar  170  TYR170      0.0417
    103  CE2       21.5270    2.1860   15.6270 C.ar  170  TYR170      0.0417
    104  CZ        22.6340    2.5740   16.3510 C.ar  170  TYR170      0.1957
    105  OH        22.6120    3.7230   17.1190 O.3   170  TYR170     -0.2866
    106  N         17.6850   -3.7170   19.4480 N.3   196  PHE196     -0.1241
    107  CA        18.2440   -2.4780   18.9210 C.3   196  PHE196      0.1605
    108  C         19.6960   -2.6310   18.4560 C.2   196  PHE196      0.2264
    109  O         19.9950   -2.4430   17.2790 O.2   196  PHE196     -0.2867
    110  CB        18.1190   -1.3570   19.9600 C.3   196  PHE196      0.0534
    111  CG        18.6110   -0.0310   19.4710 C.ar  196  PHE196     -0.0203
    112  CD1       17.8900    0.6820   18.5200 C.ar  196  PHE196     -0.0042
    113  CD2       19.7970    0.5010   19.9510 C.ar  196  PHE196     -0.0042
    114  CE1       18.3490    1.9060   18.0580 C.ar  196  PHE196     -0.0003
    115  CE2       20.2580    1.7200   19.4910 C.ar  196  PHE196     -0.0003
    116  CZ        19.5330    2.4210   18.5510 C.ar  196  PHE196     -0.0000
    117  N         25.9410   -3.3400   22.2640 N.3   199  ARG199     -0.1245
    118  CA        26.5280   -2.1120   22.7720 C.3   199  ARG199      0.1563
    119  C         27.9070   -2.3530   23.3560 C.2   199  ARG199      0.2260
    120  O         28.2200   -3.4680   23.7650 O.2   199  ARG199     -0.2867
    121  CB        25.6040   -1.5460   23.8390 C.3   199  ARG199      0.0307
    122  CG        24.2310   -1.2410   23.2750 C.3   199  ARG199      0.0489
    123  CD        23.9760    0.2230   23.2230 C.3   199  ARG199      0.2205
    124  NE        23.1560    0.6080   24.3670 N.pl3 199  ARG199     -0.0865
    125  CZ        23.3420    1.6850   25.1250 C.cat 199  ARG199      0.5346
    126  NH1       22.5130    1.9140   26.1350 N.pl3 199  ARG199      0.1354
    127  NH2       24.3500    2.5250   24.9030 N.pl3 199  ARG199      0.1354
    128  N         29.1570    9.0060   14.8630 N.3   219  PHE219     -0.1241
    129  CA        28.4770   10.1290   15.4690 C.3   219  PHE219      0.1605
    130  C         29.4550   10.8600   16.3740 C.2   219  PHE219      0.2264
    131  O         30.0790   10.2510   17.2370 O.2   219  PHE219     -0.2867
    132  CB        27.2750    9.6680   16.2900 C.3   219  PHE219      0.0534
    133  CG        26.4960   10.8000   16.8890 C.ar  219  PHE219     -0.0203
    134  CD1       25.6110   11.5320   16.1110 C.ar  219  PHE219     -0.0042
    135  CD2       26.6780   11.1630   18.2140 C.ar  219  PHE219     -0.0042
    136  CE1       24.8990   12.5950   16.6540 C.ar  219  PHE219     -0.0003
    137  CE2       25.9730   12.2250   18.7630 C.ar  219  PHE219     -0.0003
    138  CZ        25.0820   12.9380   17.9830 C.ar  219  PHE219     -0.0000
    139  N         20.8030    6.6340    9.8600 N.3   260  ASN260     -0.1225
    140  CA        20.3180    6.4330   11.2250 C.3   260  ASN260      0.1785
    141  C         19.6380    7.6090   11.9100 C.2   260  ASN260      0.2597
    142  O         18.5300    7.4840   12.4250 O.2   260  ASN260     -0.2718
    143  CB        21.4810    5.9920   12.1120 C.3   260  ASN260      0.1169
    144  CG        21.0290    5.5940   13.4960 C.2   260  ASN260      0.2627
    145  OD1       20.4360    4.5350   13.6840 O.2   260  ASN260     -0.2716
    146  ND2       21.2970    6.4520   14.4750 N.am  260  ASN260     -0.0877
    147  N         20.3240    8.7400   11.9420 N.am  261  THR261     -0.1953
    148  CA        20.0590    9.7560   12.9540 C.3   261  THR261      0.1897
    149  C         18.9000   10.7040   12.6460 C.2   261  THR261      0.2313
    150  O         18.1630   11.0950   13.5580 O.2   261  THR261     -0.2863
    151  CB        21.3650   10.4920   13.2710 C.3   261  THR261      0.1794
    152  OG1       22.3060    9.5210   13.7550 O.3   261  THR261     -0.2208
    153  CG2       21.1640   11.5640   14.3150 C.3   261  THR261      0.0378
@<TRIPOS>BOND
     1   139   140    1
     2   140   141    1
     3   140   143    1
     4   141   147   am
     5   141   142    2
     6   147   148    1
     7   143   144    1
     8   149   148    1
     9   149   150    2
    10   148   151    1
    11   151   152    1
    12   151   153    1
    13   144   145    2
    14   144   146   am
    15    97    96    2
    16    98    99    1
    17    98    95    1
    18    64    65    1
    19    96    95    1
    20    65    68    1
    21    65    66    1
    22    99   101   ar
    23    99   100   ar
    24    56    55    2
    25   101   103   ar
    26   128   129    1
    27    95    94    1
    28    68    69    1
    29    69    70    1
    30     1     2    1
    31   129   132    1
    32   129   130    1
    33    71    70    1
    34    71    72    2
    35   100   102   ar
    36   103   104   ar
    37    66    67    2
    38     3     2    1
    39     3     4    2
    40    55    54    1
    41    74    72    1
    42     2     5    1
    43     5     6    1
    44   134   136   ar
    45   134   133   ar
    46    86    85    2
    47    72    73    1
    48   132   133    1
    49   102   104   ar
    50   104   105    1
    51   130   131    2
    52     7     6   ar
    53     7     9   ar
    54    48    47    2
    55   136   138   ar
    56   133   135   ar
    57     6     8   ar
    58    54    53    1
    59    54    57    1
    60    85    84    1
    61    47    53   am
    62    47    46    1
    63   109   108    2
    64    52    50    1
    65     9    10   ar
    66    46    49    1
    67    46    45    1
    68    49    50    1
    69   138   137   ar
    70   114   112   ar
    71   114   116   ar
    72    57    58    1
    73   135   137   ar
    74    75    76    1
    75    41    40    2
    76    50    51    1
    77     8    10   ar
    78     8    11   ar
    79   108   107    1
    80    84    87    1
    81    84    83    1
    82   112   111   ar
    83    87    88    1
    84   116   115   ar
    85    80    81    1
    86    80    79    1
    87    10    12   ar
    88   107   106    1
    89   107   110    1
    90    76    79    1
    91    76    77    1
    92    45    40   am
    93    40    39    1
    94    11    13   ar
    95   111   113   ar
    96   111   110    1
    97   115   113   ar
    98    81    82    1
    99    58    59    1
   100    89    88    1
   101    89    90    1
   102    12    14   ar
   103    92    91    1
   104    44    42    1
   105    77    78    2
   106    37    35    1
   107    59    60    1
   108    60    61    2
   109    39    38    1
   110    39    42    1
   111    13    14   ar
   112    90    91    2
   113    91    93    1
   114    42    43    1
   115    63    61    1
   116    61    62    1
   117    34    35    2
   118    34    33    1
   119    35    36    1
   120    26    25    1
   121    32    33    1
   122    32    31    1
   123   117   118    1
   124   118   119    1
   125   118   121    1
   126    15    16    1
   127   123   122    1
   128   123   124    1
   129    31    28    1
   130   122   121    1
   131   119   120    2
   132    25    24    1
   133    23    24    1
   134    23    20    1
   135    16    17    1
   136   124   125    2
   137    27    28    1
   138    27    21   am
   139    19    20    1
   140    28    29    1
   141    20    21    1
   142   127   125    1
   143   125   126    1
   144    21    22    2
   145    17    18    2
   146    29    30    2
