@<TRIPOS>MOLECULE
tmp/3tnzA03.pdb
 78 77 0 0 0
SMALL
GASTEIGER

@<TRIPOS>ATOM
      1  N         27.8010   -8.9550    1.8040 N.3    56  THR56      -0.1203
      2  CA        26.4230   -8.6340    2.2100 C.3    56  THR56       0.1994
      3  C         26.3440   -7.5420    3.2760 C.2    56  THR56       0.2618
      4  O         25.2460   -7.1640    3.6700 O.2    56  THR56      -0.2717
      5  CB        25.6490   -9.8490    2.7510 C.3    56  THR56       0.1784
      6  OG1       26.1850  -10.2890    4.0200 O.3    56  THR56      -0.2211
      7  CG2       25.6420  -10.9990    1.7320 C.3    56  THR56       0.0376
      8  N         27.5070   -7.0450    3.7170 N.am   57  ALA57      -0.1966
      9  CA        27.5980   -6.0440    4.7780 C.3    57  ALA57       0.1713
     10  C         26.8730   -4.7880    4.4020 C.2    57  ALA57       0.2458
     11  O         26.7970   -4.4350    3.2470 O.2    57  ALA57      -0.2730
     12  CB        29.0740   -5.7010    5.1230 C.3    57  ALA57       0.0333
     13  N         26.3390   -4.1110    5.4010 N.am   58  PRO58      -0.2716
     14  CA        25.8680   -2.7610    5.1770 C.3    58  PRO58       0.1536
     15  C         27.0780   -1.8830    4.8550 C.2    58  PRO58       0.2599
     16  O         28.2210   -2.2800    5.1000 O.2    58  PRO58      -0.2715
     17  CB        25.2420   -2.3840    6.5390 C.3    58  PRO58       0.0310
     18  CG        26.0490   -3.1860    7.5450 C.3    58  PRO58       0.0237
     19  CD        26.3500   -4.4990    6.8300 C.3    58  PRO58       0.0939
     20  N         26.8380   -0.7030    4.3050 N.am   59  SER59      -0.1936
     21  CA        27.9390    0.2200    4.0220 C.3    59  SER59       0.2055
     22  C         27.3430    1.6130    3.9680 C.2    59  SER59       0.2644
     23  O         26.1570    1.7660    3.6260 O.2    59  SER59      -0.2714
     24  CB        28.6480   -0.1210    2.6770 C.3    59  SER59       0.2130
     25  OG        27.7830    0.0110    1.5330 O.3    59  SER59      -0.2179
     26  N         28.1510    2.6150    4.2840 N.am   60  GLY60      -0.1939
     27  CA        27.6770    3.9960    4.3710 C.3    60  GLY60       0.2014
     28  C         27.1090    4.4100    3.0230 C.2    60  GLY60       0.2639
     29  O         27.7780    4.2600    1.9900 O.2    60  GLY60      -0.2714
     30  N         25.8570    4.8740    3.0460 N.am   61  ALA61      -0.1963
     31  CA        25.1130    5.2840    1.8600 C.3    61  ALA61       0.1728
     32  C         25.1670    4.2650    0.7150 C.2    61  ALA61       0.2616
     33  O         25.2490    4.6540   -0.4500 O.2    61  ALA61      -0.2715
     34  CB        25.6000    6.6390    1.3780 C.3    61  ALA61       0.0334
     35  N         25.1620    2.9680    1.0400 N.am   62  HIS62      -0.1973
     36  CA        25.2800    1.9330   -0.0030 C.3    62  HIS62       0.1656
     37  C         26.4460    2.1300   -1.0070 C.2    62  HIS62       0.2291
     38  O         26.2420    2.2460   -2.2350 O.2    62  HIS62      -0.2864
     39  CB        23.9750    1.7740   -0.7970 C.3    62  HIS62       0.0771
     40  CG        23.9270    0.4900   -1.5450 C.ar   62  HIS62       0.0820
     41  ND1       24.3340   -0.7000   -0.9710 N.ar   62  HIS62      -0.2267
     42  CD2       23.6210    0.2050   -2.8310 C.ar   62  HIS62       0.1154
     43  CE1       24.2210   -1.6740   -1.8570 C.ar   62  HIS62       0.1986
     44  NE2       23.8020   -1.1510   -2.9970 N.ar   62  HIS62      -0.2212
     45  N         32.1650    6.6640    5.8920 N.3   143  TYR143     -0.1241
     46  CA        32.6160    5.6600    6.8590 C.3   143  TYR143      0.1605
     47  C         33.1720    4.3820    6.2320 C.2   143  TYR143      0.2264
     48  O         32.8570    3.2590    6.6440 O.2   143  TYR143     -0.2867
     49  CB        31.4940    5.3170    7.8170 C.3   143  TYR143      0.0534
     50  CG        30.8260    6.5290    8.4410 C.ar  143  TYR143     -0.0201
     51  CD1       29.6740    7.0590    7.8900 C.ar  143  TYR143     -0.0009
     52  CD2       31.3320    7.1210    9.5930 C.ar  143  TYR143     -0.0009
     53  CE1       29.0240    8.1430    8.4590 C.ar  143  TYR143      0.0417
     54  CE2       30.6860    8.2350   10.1900 C.ar  143  TYR143      0.0417
     55  CZ        29.5370    8.7380    9.6150 C.ar  143  TYR143      0.1957
     56  OH        28.8710    9.8230   10.1830 O.3   143  TYR143     -0.2866
     57  N         34.9840    1.8020    8.7700 N.3   146  ILE146     -0.1231
     58  CA        33.9940    1.0670    9.5470 C.3   146  ILE146      0.1692
     59  C         33.2140    0.0780    8.6490 C.2   146  ILE146      0.2592
     60  O         32.9930   -1.0580    9.0300 O.2   146  ILE146     -0.2718
     61  CB        32.9760    2.0390   10.1900 C.3   146  ILE146      0.0266
     62  CG1       33.6570    2.8930   11.2380 C.3   146  ILE146      0.0019
     63  CG2       31.8100    1.2770   10.8180 C.3   146  ILE146      0.0020
     64  CD1       32.7500    3.9930   11.7610 C.3   146  ILE146      0.0001
     65  N         32.7930    0.5320    7.4640 N.am  147  SER147     -0.1952
     66  CA        31.9890   -0.3040    6.5840 C.3   147  SER147      0.1924
     67  C         32.7880   -1.5560    6.2060 C.2   147  SER147      0.2314
     68  O         32.2880   -2.6690    6.3130 O.2   147  SER147     -0.2863
     69  CB        31.5380    0.4560    5.3210 C.3   147  SER147      0.2116
     70  OG        30.6860    1.5570    5.6050 O.3   147  SER147     -0.2180
     71  N         33.2250   -3.9800    9.1860 N.3   150  ILE150     -0.1245
     72  CA        32.0050   -4.7420    9.3950 C.3   150  ILE150      0.1561
     73  C         31.9690   -5.9190    8.4160 C.2   150  ILE150      0.2260
     74  O         31.6950   -7.0460    8.8140 O.2   150  ILE150     -0.2867
     75  CB        30.7850   -3.8360    9.2220 C.3   150  ILE150      0.0252
     76  CG1       30.7080   -2.8840   10.4170 C.3   150  ILE150      0.0019
     77  CG2       29.4930   -4.6520    9.0500 C.3   150  ILE150      0.0019
     78  CD1       29.5190   -1.9040   10.3800 C.3   150  ILE150      0.0001
@<TRIPOS>BOND
     1    44    42   ar
     2    44    43   ar
     3    42    40   ar
     4    38    37    2
     5    43    41   ar
     6    40    41   ar
     7    40    39    1
     8    37    36    1
     9    39    36    1
    10    33    32    2
    11    36    35    1
    12    32    35   am
    13    32    31    1
    14    34    31    1
    15    25    24    1
    16     7     5    1
    17     1     2    1
    18    31    30    1
    19    29    28    2
    20     2     5    1
    21     2     3    1
    22    24    21    1
    23     5     6    1
    24    28    30   am
    25    28    27    1
    26    11    10    2
    27     3     4    2
    28     3     8   am
    29    23    22    2
    30     8     9    1
    31    22    21    1
    32    22    26   am
    33    21    20    1
    34    26    27    1
    35    20    15   am
    36    10     9    1
    37    10    13   am
    38     9    12    1
    39    15    16    2
    40    15    14    1
    41    14    13    1
    42    14    17    1
    43    69    70    1
    44    69    66    1
    45    13    19    1
    46    45    46    1
    47    67    68    2
    48    67    66    1
    49    47    48    2
    50    47    46    1
    51    17    18    1
    52    66    65    1
    53    19    18    1
    54    46    49    1
    55    65    59   am
    56    49    50    1
    57    51    50   ar
    58    51    53   ar
    59    73    74    2
    60    73    72    1
    61    50    52   ar
    62    53    55   ar
    63    59    60    2
    64    59    58    1
    65    57    58    1
    66    77    75    1
    67    71    72    1
    68    75    72    1
    69    75    76    1
    70    58    61    1
    71    52    54   ar
    72    55    56    1
    73    55    54   ar
    74    61    63    1
    75    61    62    1
    76    78    76    1
    77    62    64    1
