@<TRIPOS>MOLECULE
tmp/3tnzA01.pdb
 127 119 0 0 0
SMALL
GASTEIGER

@<TRIPOS>ATOM
      1  N         47.6000  -18.9420   14.1690 N.3    35  ARG35      -0.1245
      2  CA        48.8270  -18.4920   13.5230 C.3    35  ARG35       0.1563
      3  C         49.6310  -19.6520   12.9320 C.2    35  ARG35       0.2260
      4  O         50.7270  -19.4640   12.3940 O.2    35  ARG35      -0.2867
      5  CB        49.6480  -17.6440   14.5080 C.3    35  ARG35       0.0307
      6  CG        48.9100  -16.3410   14.9120 C.3    35  ARG35       0.0489
      7  CD        49.7340  -15.3460   15.7860 C.3    35  ARG35       0.2205
      8  NE        48.9300  -14.1580   16.1420 N.pl3  35  ARG35      -0.0865
      9  CZ        48.1090  -14.0560   17.2010 C.cat  35  ARG35       0.5346
     10  NH1       48.0020  -15.0590   18.0830 N.pl3  35  ARG35       0.1354
     11  NH2       47.3940  -12.9370   17.3960 N.pl3  35  ARG35       0.1354
     12  N         57.7520   -5.8660    9.1070 N.3    88  GLU88      -0.1245
     13  CA        57.4440   -6.2090   10.4970 C.3    88  GLU88       0.1567
     14  C         58.7100   -6.2370   11.3430 C.2    88  GLU88       0.2260
     15  O         58.6860   -5.9500   12.5360 O.2    88  GLU88      -0.2867
     16  CB        56.7080   -7.5580   10.5930 C.3    88  GLU88       0.0388
     17  CG        55.2640   -7.5640    9.9930 C.3    88  GLU88       0.1160
     18  CD        54.2170   -6.8260   10.8640 C.2    88  GLU88       0.3649
     19  OE1       54.6250   -6.0810   11.7560 O.co2  88  GLU88      -0.2457
     20  OE2       52.9800   -6.9930   10.6540 O.co2  88  GLU88      -0.2457
     21  N         59.0250   -4.3260   14.8030 N.3    92  TYR92      -0.1241
     22  CA        59.3880   -4.8330   16.1220 C.3    92  TYR92       0.1605
     23  C         60.6610   -4.1630   16.6460 C.2    92  TYR92       0.2264
     24  O         60.7350   -3.7730   17.8180 O.2    92  TYR92      -0.2867
     25  CB        59.5670   -6.3670   16.1160 C.3    92  TYR92       0.0534
     26  CG        58.2700   -7.1530   16.2650 C.ar   92  TYR92      -0.0201
     27  CD1       57.5430   -7.5330   15.1400 C.ar   92  TYR92      -0.0009
     28  CD2       57.7840   -7.5330   17.5270 C.ar   92  TYR92      -0.0009
     29  CE1       56.3600   -8.2520   15.2520 C.ar   92  TYR92       0.0417
     30  CE2       56.5890   -8.2640   17.6530 C.ar   92  TYR92       0.0417
     31  CZ        55.8830   -8.6120   16.4950 C.ar   92  TYR92       0.1957
     32  OH        54.7010   -9.3160   16.5410 O.3    92  TYR92      -0.2866
     33  N         57.1160    0.2090   16.0910 N.3    96  MET96      -0.1245
     34  CA        55.9980    0.0880   17.0060 C.3    96  MET96       0.1570
     35  C         56.2700    0.7500   18.3510 C.2    96  MET96       0.2261
     36  O         55.3420    1.2110   19.0040 O.2    96  MET96      -0.2867
     37  CB        55.5770   -1.3740   17.1990 C.3    96  MET96       0.0387
     38  CG        54.8140   -1.9610   16.0170 C.3    96  MET96       0.0595
     39  SD        54.1590   -3.6540   16.2030 S.3    96  MET96      -0.1393
     40  CE        55.6480   -4.6760   16.2610 C.3    96  MET96       0.0692
     41  N         54.0880   -1.0390   22.7340 N.3   100  TRP100     -0.1241
     42  CA        53.4120   -1.9720   21.8280 C.3   100  TRP100      0.1605
     43  C         54.1390   -3.3320   21.8050 C.2   100  TRP100      0.2264
     44  O         53.4960   -4.4010   21.8690 O.2   100  TRP100     -0.2867
     45  CB        53.3600   -1.3600   20.4320 C.3   100  TRP100      0.0550
     46  CG        52.3820   -1.9850   19.4580 C.ar  100  TRP100      0.0003
     47  CD1       51.7210   -3.1770   19.5840 C.ar  100  TRP100      0.0946
     48  CD2       51.9700   -1.4240   18.1990 C.ar  100  TRP100      0.0152
     49  NE1       50.9390   -3.4020   18.4670 N.ar  100  TRP100     -0.2442
     50  CE2       51.0620   -2.3350   17.6100 C.ar  100  TRP100      0.0810
     51  CE3       52.2880   -0.2340   17.5130 C.ar  100  TRP100      0.0012
     52  CZ2       50.4470   -2.0910   16.3590 C.ar  100  TRP100      0.0191
     53  CZ3       51.6890    0.0120   16.2820 C.ar  100  TRP100      0.0001
     54  CH2       50.7690   -0.9200   15.7150 C.ar  100  TRP100      0.0015
     55  N         52.6640   -6.9740   22.9480 N.3   104  LEU104     -0.1245
     56  CA        52.5630   -8.1800   22.1170 C.3   104  LEU104      0.1561
     57  C         53.2260   -9.4240   22.7020 C.2   104  LEU104      0.2260
     58  O         52.9870  -10.5190   22.2020 O.2   104  LEU104     -0.2867
     59  CB        53.1110   -7.9320   20.7010 C.3   104  LEU104      0.0270
     60  CG        52.3950   -6.8410   19.9000 C.3   104  LEU104      0.0019
     61  CD1       53.0830   -6.5830   18.5730 C.3   104  LEU104      0.0001
     62  CD2       50.8830   -7.1710   19.7240 C.3   104  LEU104      0.0001
     63  N         51.4720  -12.7140   23.1120 N.3   107  LEU107     -0.1245
     64  CA        51.0580  -13.4590   21.9110 C.3   107  LEU107      0.1561
     65  C         52.1990  -14.2530   21.2230 C.2   107  LEU107      0.2260
     66  O         51.9440  -15.0910   20.3430 O.2   107  LEU107     -0.2867
     67  CB        50.4110  -12.5000   20.9110 C.3   107  LEU107      0.0270
     68  CG        49.3590  -11.5530   21.4910 C.3   107  LEU107      0.0019
     69  CD1       48.9370  -10.5350   20.4240 C.3   107  LEU107      0.0001
     70  CD2       48.1450  -12.3150   22.0340 C.3   107  LEU107      0.0001
     71  N         54.1770  -13.3380   19.0380 N.3   109  THR109     -0.1218
     72  CA        54.3720  -13.0080   17.6480 C.3   109  THR109      0.1862
     73  C         55.7580  -12.3670   17.4430 C.2   109  THR109      0.2287
     74  O         56.3030  -11.7350   18.3510 O.2   109  THR109     -0.2866
     75  CB        53.2870  -12.0370   17.1900 C.3   109  THR109      0.1770
     76  OG1       53.2450  -10.9370   18.1060 O.3   109  THR109     -0.2211
     77  CG2       51.9140  -12.7320   17.1440 C.3   109  THR109      0.0375
     78  N         56.6180  -14.8930    9.4380 N.3   113  LYS113     -0.1245
     79  CA        55.2050  -15.2140    9.2220 C.3   113  LYS113      0.1561
     80  C         55.0410  -16.4040    8.2750 C.2   113  LYS113      0.2260
     81  O         54.6060  -16.2320    7.1220 O.2   113  LYS113     -0.2867
     82  CB        54.4710  -14.0010    8.6350 C.3   113  LYS113      0.0271
     83  CG        54.4940  -12.7800    9.5130 C.3   113  LYS113      0.0035
     84  CD        54.0230  -13.0750   10.9530 C.3   113  LYS113      0.0206
     85  CE        53.9230  -11.7840   11.7940 C.3   113  LYS113      0.1093
     86  NZ        53.4140  -12.0830   13.1540 N.3   113  LYS113     -0.1314
     87  N         52.9190  -18.6060    7.9780 N.3   115  TYR115     -0.1241
     88  CA        51.5700  -18.8640    7.4750 C.3   115  TYR115      0.1605
     89  C         51.3130  -18.1890    6.1230 C.2   115  TYR115      0.2264
     90  O         50.4570  -18.6070    5.3510 O.2   115  TYR115     -0.2867
     91  CB        50.4870  -18.4880    8.5080 C.3   115  TYR115      0.0534
     92  CG        50.5450  -17.0520    8.9810 C.ar  115  TYR115     -0.0201
     93  CD1       50.9400  -16.7450   10.2880 C.ar  115  TYR115     -0.0009
     94  CD2       50.1930  -16.0110    8.1380 C.ar  115  TYR115     -0.0009
     95  CE1       50.9870  -15.4330   10.7390 C.ar  115  TYR115      0.0417
     96  CE2       50.2310  -14.6680    8.5810 C.ar  115  TYR115      0.0417
     97  CZ        50.6350  -14.3910    9.8680 C.ar  115  TYR115      0.1957
     98  OH        50.6770  -13.0780   10.2990 O.3   115  TYR115     -0.2866
     99  N         43.4220  -12.3410   11.9200 N.3   168  THR168     -0.1203
    100  CA        43.3140  -10.9680   11.4220 C.3   168  THR168      0.1994
    101  C         44.6380  -10.2600   11.6120 C.2   168  THR168      0.2619
    102  O         45.0940  -10.1270   12.7200 O.2   168  THR168     -0.2717
    103  CB        42.2610  -10.1870   12.2280 C.3   168  THR168      0.1784
    104  OG1       41.0430  -10.9320   12.2340 O.3   168  THR168     -0.2211
    105  CG2       42.0040   -8.7720   11.6150 C.3   168  THR168      0.0376
    106  N         45.2630   -9.7960   10.5400 N.am  169  THR169     -0.1938
    107  CA        46.5680   -9.1730   10.7110 C.3   169  THR169      0.2028
    108  C         46.5910   -7.7880   10.0980 C.2   169  THR169      0.2642
    109  O         45.8830   -7.5290    9.1240 O.2   169  THR169     -0.2714
    110  CB        47.7400  -10.0420   10.0990 C.3   169  THR169      0.1808
    111  OG1       47.6180  -10.1210    8.6740 O.3   169  THR169     -0.2208
    112  CG2       47.7580  -11.4580   10.7120 C.3   169  THR169      0.0379
    113  N         47.4020   -6.9120   10.6850 N.am  170  THR170     -0.1950
    114  CA        47.5930   -5.5500   10.1820 C.3   170  THR170      0.1897
    115  C         49.0910   -5.3210    9.9390 C.2   170  THR170      0.2313
    116  O         49.8190   -4.9440   10.8480 O.2   170  THR170     -0.2863
    117  CB        47.0980   -4.5200   11.2250 C.3   170  THR170      0.1794
    118  OG1       47.5030   -4.9610   12.5370 O.3   170  THR170     -0.2208
    119  CG2       45.5830   -4.3940   11.1800 C.3   170  THR170      0.0378
    120  N         51.6500   -3.4140    9.3890 N.3   172  LEU172     -0.1245
    121  CA        51.8850   -1.9820    9.4310 C.3   172  LEU172      0.1561
    122  C         53.0300   -1.5920    8.4900 C.2   172  LEU172      0.2260
    123  O         54.0850   -2.2370    8.4990 O.2   172  LEU172     -0.2867
    124  CB        52.1850   -1.5640   10.8700 C.3   172  LEU172      0.0270
    125  CG        52.4770   -0.0790   11.1490 C.3   172  LEU172      0.0019
    126  CD1       51.2000    0.7700   11.2040 C.3   172  LEU172      0.0001
    127  CD2       53.1910   -0.0010   12.4560 C.3   172  LEU172      0.0001
@<TRIPOS>BOND
     1    90    89    2
     2    89    88    1
     3    81    80    2
     4    88    87    1
     5    88    91    1
     6    94    96   ar
     7    94    92   ar
     8    80    79    1
     9   122   123    2
    10   122   121    1
    11    91    92    1
    12    96    97   ar
    13    82    79    1
    14    82    83    1
    15   111   110    1
    16    92    93   ar
    17    12    13    1
    18   109   108    2
    19    79    78    1
    20   120   121    1
    21   121   124    1
    22    83    84    1
    23    97    98    1
    24    97    95   ar
    25   115   114    1
    26   115   116    2
    27    17    16    1
    28    17    18    1
    29   108   113   am
    30   108   107    1
    31   110   107    1
    32   110   112    1
    33   114   113    1
    34   114   117    1
    35    93    95   ar
    36    13    16    1
    37    13    14    1
    38   106   107    1
    39   106   101   am
    40    20    18   ar
    41    18    19   ar
    42   124   125    1
    43    84    85    1
    44   125   126    1
    45   125   127    1
    46   119   117    1
    47   117   118    1
    48    14    15    2
    49   100   101    1
    50   100    99    1
    51   100   103    1
    52   101   102    2
    53   105   103    1
    54    85    86    1
    55   103   104    1
    56     4     3    2
    57     3     2    1
    58     2     1    1
    59     2     5    1
    60     5     6    1
    61    21    22    1
    62     6     7    1
    63    27    29   ar
    64    27    26   ar
    65    29    31   ar
    66    54    53   ar
    67    54    52   ar
    68     7     8    1
    69    38    39    1
    70    38    37    1
    71    33    34    1
    72    25    22    1
    73    25    26    1
    74    22    23    1
    75     8     9    2
    76    39    40    1
    77    26    28   ar
    78    53    51   ar
    79    52    50   ar
    80    31    32    1
    81    31    30   ar
    82    23    24    2
    83    34    37    1
    84    34    35    1
    85    77    75    1
    86    75    72    1
    87    75    76    1
    88     9    11    1
    89     9    10    1
    90    73    72    1
    91    73    74    2
    92    51    48   ar
    93    28    30   ar
    94    50    48   ar
    95    50    49   ar
    96    72    71    1
    97    48    46   ar
    98    35    36    2
    99    49    47   ar
   100    61    60    1
   101    46    47   ar
   102    46    45    1
   103    62    60    1
   104    60    59    1
   105    66    65    2
   106    69    68    1
   107    45    42    1
   108    59    56    1
   109    67    68    1
   110    67    64    1
   111    65    64    1
   112    68    70    1
   113    43    42    1
   114    43    44    2
   115    42    41    1
   116    64    63    1
   117    56    57    1
   118    56    55    1
   119    58    57    2
