@<TRIPOS>MOLECULE
tmp/3tnzA00.pdb
 138 128 0 0 0
SMALL
GASTEIGER

@<TRIPOS>ATOM
      1  N         35.7720  -19.3510   17.8100 N.3    31  ARG31      -0.1231
      2  CA        36.7390  -18.7260   16.8980 C.3    31  ARG31       0.1694
      3  C         37.9520  -18.2480   17.7100 C.2    31  ARG31       0.2592
      4  O         37.7980  -17.5370   18.6970 O.2    31  ARG31      -0.2718
      5  CB        36.1170  -17.5360   16.1520 C.3    31  ARG31       0.0321
      6  CG        37.0240  -16.8920   15.0710 C.3    31  ARG31       0.0489
      7  CD        36.7510  -15.3730   14.9140 C.3    31  ARG31       0.2205
      8  NE        36.8300  -14.7120   16.2120 N.pl3  31  ARG31      -0.0865
      9  CZ        37.9730  -14.4240   16.8150 C.cat  31  ARG31       0.5346
     10  NH1       39.1010  -14.6990   16.1790 N.pl3  31  ARG31       0.1354
     11  NH2       37.9850  -13.8570   18.0480 N.pl3  31  ARG31       0.1354
     12  N         39.1450  -18.6510   17.2950 N.am   32  ARG32      -0.1966
     13  CA        40.3720  -18.0950   17.8290 C.3    32  ARG32       0.1729
     14  C         41.2620  -17.6900   16.6680 C.2    32  ARG32       0.2616
     15  O         41.2140  -18.2840   15.5880 O.2    32  ARG32      -0.2715
     16  CB        41.1020  -19.1100   18.7350 C.3    32  ARG32       0.0348
     17  CG        40.3170  -19.5130   20.0160 C.3    32  ARG32       0.0492
     18  CD        40.0590  -18.3000   20.9040 C.3    32  ARG32       0.2205
     19  NE        41.3140  -17.6270   21.1870 N.pl3  32  ARG32      -0.0865
     20  CZ        42.1670  -17.9690   22.1530 C.cat  32  ARG32       0.5346
     21  NH1       41.9020  -18.9740   23.0140 N.pl3  32  ARG32       0.1354
     22  NH2       43.2980  -17.2860   22.2580 N.pl3  32  ARG32       0.1354
     23  N         42.0720  -16.6650   16.8730 N.am   33  SER33      -0.1950
     24  CA        43.0190  -16.2990   15.8340 C.3    33  SER33       0.1924
     25  C         44.0890  -17.3720   15.7750 C.2    33  SER33       0.2314
     26  O         44.7700  -17.6410   16.7880 O.2    33  SER33      -0.2863
     27  CB        43.6160  -14.9190   16.1380 C.3    33  SER33       0.2116
     28  OG        42.6350  -13.8980   15.9690 O.3    33  SER33      -0.2180
     29  N         47.6000  -18.9420   14.1690 N.3    35  ARG35      -0.1245
     30  CA        48.8270  -18.4920   13.5230 C.3    35  ARG35       0.1563
     31  C         49.6310  -19.6520   12.9320 C.2    35  ARG35       0.2260
     32  O         50.7270  -19.4640   12.3940 O.2    35  ARG35      -0.2867
     33  CB        49.6480  -17.6440   14.5080 C.3    35  ARG35       0.0307
     34  CG        48.9100  -16.3410   14.9120 C.3    35  ARG35       0.0489
     35  CD        49.7340  -15.3460   15.7860 C.3    35  ARG35       0.2205
     36  NE        48.9300  -14.1580   16.1420 N.pl3  35  ARG35      -0.0865
     37  CZ        48.1090  -14.0560   17.2010 C.cat  35  ARG35       0.5346
     38  NH1       48.0020  -15.0590   18.0830 N.pl3  35  ARG35       0.1354
     39  NH2       47.3940  -12.9370   17.3960 N.pl3  35  ARG35       0.1354
     40  N         57.7520   -5.8660    9.1070 N.3    88  GLU88      -0.1245
     41  CA        57.4440   -6.2090   10.4970 C.3    88  GLU88       0.1567
     42  C         58.7100   -6.2370   11.3430 C.2    88  GLU88       0.2260
     43  O         58.6860   -5.9500   12.5360 O.2    88  GLU88      -0.2867
     44  CB        56.7080   -7.5580   10.5930 C.3    88  GLU88       0.0388
     45  CG        55.2640   -7.5640    9.9930 C.3    88  GLU88       0.1160
     46  CD        54.2170   -6.8260   10.8640 C.2    88  GLU88       0.3649
     47  OE1       54.6250   -6.0810   11.7560 O.co2  88  GLU88      -0.2457
     48  OE2       52.9800   -6.9930   10.6540 O.co2  88  GLU88      -0.2457
     49  N         51.4720  -12.7140   23.1120 N.3   107  LEU107     -0.1245
     50  CA        51.0580  -13.4590   21.9110 C.3   107  LEU107      0.1561
     51  C         52.1990  -14.2530   21.2230 C.2   107  LEU107      0.2260
     52  O         51.9440  -15.0910   20.3430 O.2   107  LEU107     -0.2867
     53  CB        50.4110  -12.5000   20.9110 C.3   107  LEU107      0.0270
     54  CG        49.3590  -11.5530   21.4910 C.3   107  LEU107      0.0019
     55  CD1       48.9370  -10.5350   20.4240 C.3   107  LEU107      0.0001
     56  CD2       48.1450  -12.3150   22.0340 C.3   107  LEU107      0.0001
     57  N         54.1770  -13.3380   19.0380 N.3   109  THR109     -0.1218
     58  CA        54.3720  -13.0080   17.6480 C.3   109  THR109      0.1862
     59  C         55.7580  -12.3670   17.4430 C.2   109  THR109      0.2287
     60  O         56.3030  -11.7350   18.3510 O.2   109  THR109     -0.2866
     61  CB        53.2870  -12.0370   17.1900 C.3   109  THR109      0.1770
     62  OG1       53.2450  -10.9370   18.1060 O.3   109  THR109     -0.2211
     63  CG2       51.9140  -12.7320   17.1440 C.3   109  THR109      0.0375
     64  N         56.6180  -14.8930    9.4380 N.3   113  LYS113     -0.1245
     65  CA        55.2050  -15.2140    9.2220 C.3   113  LYS113      0.1561
     66  C         55.0410  -16.4040    8.2750 C.2   113  LYS113      0.2260
     67  O         54.6060  -16.2320    7.1220 O.2   113  LYS113     -0.2867
     68  CB        54.4710  -14.0010    8.6350 C.3   113  LYS113      0.0271
     69  CG        54.4940  -12.7800    9.5130 C.3   113  LYS113      0.0035
     70  CD        54.0230  -13.0750   10.9530 C.3   113  LYS113      0.0206
     71  CE        53.9230  -11.7840   11.7940 C.3   113  LYS113      0.1093
     72  NZ        53.4140  -12.0830   13.1540 N.3   113  LYS113     -0.1314
     73  N         52.9190  -18.6060    7.9780 N.3   115  TYR115     -0.1241
     74  CA        51.5700  -18.8640    7.4750 C.3   115  TYR115      0.1605
     75  C         51.3130  -18.1890    6.1230 C.2   115  TYR115      0.2264
     76  O         50.4570  -18.6070    5.3510 O.2   115  TYR115     -0.2867
     77  CB        50.4870  -18.4880    8.5080 C.3   115  TYR115      0.0534
     78  CG        50.5450  -17.0520    8.9810 C.ar  115  TYR115     -0.0201
     79  CD1       50.9400  -16.7450   10.2880 C.ar  115  TYR115     -0.0009
     80  CD2       50.1930  -16.0110    8.1380 C.ar  115  TYR115     -0.0009
     81  CE1       50.9870  -15.4330   10.7390 C.ar  115  TYR115      0.0417
     82  CE2       50.2310  -14.6680    8.5810 C.ar  115  TYR115      0.0417
     83  CZ        50.6350  -14.3910    9.8680 C.ar  115  TYR115      0.1957
     84  OH        50.6770  -13.0780   10.2990 O.3   115  TYR115     -0.2866
     85  N         43.9500  -15.5940   11.0630 N.3   167  VAL167     -0.1231
     86  CA        44.2950  -14.5870   12.0470 C.3   167  VAL167      0.1692
     87  C         44.1930  -13.2530   11.3400 C.2   167  VAL167      0.2593
     88  O         44.7570  -13.0840   10.2560 O.2   167  VAL167     -0.2718
     89  CB        45.6920  -14.8240   12.6910 C.3   167  VAL167      0.0266
     90  CG1       46.7330  -15.1900   11.6370 C.3   167  VAL167      0.0020
     91  CG2       46.1250  -13.5900   13.5180 C.3   167  VAL167      0.0020
     92  N         43.4220  -12.3410   11.9200 N.am  168  THR168     -0.1939
     93  CA        43.3140  -10.9680   11.4220 C.3   168  THR168      0.2028
     94  C         44.6380  -10.2600   11.6120 C.2   168  THR168      0.2643
     95  O         45.0940  -10.1270   12.7200 O.2   168  THR168     -0.2714
     96  CB        42.2610  -10.1870   12.2280 C.3   168  THR168      0.1808
     97  OG1       41.0430  -10.9320   12.2340 O.3   168  THR168     -0.2208
     98  CG2       42.0040   -8.7720   11.6150 C.3   168  THR168      0.0379
     99  N         45.2630   -9.7960   10.5400 N.am  169  THR169     -0.1936
    100  CA        46.5680   -9.1730   10.7110 C.3   169  THR169      0.2028
    101  C         46.5910   -7.7880   10.0980 C.2   169  THR169      0.2642
    102  O         45.8830   -7.5290    9.1240 O.2   169  THR169     -0.2714
    103  CB        47.7400  -10.0420   10.0990 C.3   169  THR169      0.1808
    104  OG1       47.6180  -10.1210    8.6740 O.3   169  THR169     -0.2208
    105  CG2       47.7580  -11.4580   10.7120 C.3   169  THR169      0.0379
    106  N         47.4020   -6.9120   10.6850 N.am  170  THR170     -0.1950
    107  CA        47.5930   -5.5500   10.1820 C.3   170  THR170      0.1897
    108  C         49.0910   -5.3210    9.9390 C.2   170  THR170      0.2313
    109  O         49.8190   -4.9440   10.8480 O.2   170  THR170     -0.2863
    110  CB        47.0980   -4.5200   11.2250 C.3   170  THR170      0.1794
    111  OG1       47.5030   -4.9610   12.5370 O.3   170  THR170     -0.2208
    112  CG2       45.5830   -4.3940   11.1800 C.3   170  THR170      0.0378
    113  N         43.1560   -5.2880    6.4200 N.3   192  VAL192     -0.1245
    114  CA        43.6430   -6.4520    7.1560 C.3   192  VAL192      0.1561
    115  C         44.0400   -7.5640    6.1620 C.2   192  VAL192      0.2260
    116  O         43.5990   -7.5740    5.0300 O.2   192  VAL192     -0.2867
    117  CB        42.5990   -6.9710    8.1920 C.3   192  VAL192      0.0252
    118  CG1       42.4060   -5.9540    9.3390 C.3   192  VAL192      0.0019
    119  CG2       41.2690   -7.2960    7.5560 C.3   192  VAL192      0.0019
    120  N         44.2050  -16.9440   26.2730 N.3   208  LEU208     -0.1245
    121  CA        43.4790  -15.7230   26.5800 C.3   208  LEU208      0.1561
    122  C         42.0150  -16.0150   26.9790 C.2   208  LEU208      0.2260
    123  O         41.4150  -17.0070   26.5370 O.2   208  LEU208     -0.2867
    124  CB        43.5130  -14.7980   25.3650 C.3   208  LEU208      0.0270
    125  CG        44.8810  -14.5380   24.7350 C.3   208  LEU208      0.0019
    126  CD1       44.7450  -13.7440   23.3890 C.3   208  LEU208      0.0001
    127  CD2       45.8140  -13.8380   25.7250 C.3   208  LEU208      0.0001
    128  N         38.0500  -14.1570   27.3590 N.3   210  ARG210     -0.1245
    129  CA        37.1990  -13.0240   26.9860 C.3   210  ARG210      0.1563
    130  C         36.5160  -12.4560   28.2220 C.2   210  ARG210      0.2260
    131  O         36.2920  -13.1600   29.1960 O.2   210  ARG210     -0.2867
    132  CB        36.1440  -13.4860   25.9690 C.3   210  ARG210      0.0307
    133  CG        36.7760  -13.8010   24.6540 C.3   210  ARG210      0.0489
    134  CD        35.8930  -14.3700   23.5850 C.3   210  ARG210      0.2205
    135  NE        36.7780  -14.5410   22.4320 N.pl3 210  ARG210     -0.0865
    136  CZ        36.8160  -15.5950   21.6300 C.cat 210  ARG210      0.5346
    137  NH1       35.9890  -16.6080   21.8020 N.pl3 210  ARG210      0.1354
    138  NH2       37.6870  -15.6170   20.6390 N.pl3 210  ARG210      0.1354
@<TRIPOS>BOND
     1   116   115    2
     2    76    75    2
     3    75    74    1
     4   115   114    1
     5   113   114    1
     6    67    66    2
     7   114   117    1
     8    74    73    1
     9    74    77    1
    10   119   117    1
    11    80    82   ar
    12    80    78   ar
    13   117   118    1
    14    66    65    1
    15    77    78    1
    16    82    83   ar
    17    68    65    1
    18    68    69    1
    19   104   103    1
    20    78    79   ar
    21    40    41    1
    22   102   101    2
    23    65    64    1
    24    69    70    1
    25    83    84    1
    26    83    81   ar
    27   108   107    1
    28   108   109    2
    29    45    44    1
    30    45    46    1
    31   101   106   am
    32   101   100    1
    33   103   100    1
    34   103   105    1
    35   107   106    1
    36   107   110    1
    37    88    87    2
    38    79    81   ar
    39    41    44    1
    40    41    42    1
    41    99   100    1
    42    99    94   am
    43    48    46   ar
    44    46    47   ar
    45    70    71    1
    46    85    86    1
    47   112   110    1
    48   110   111    1
    49    87    92   am
    50    87    86    1
    51    42    43    2
    52    93    94    1
    53    93    92    1
    54    93    96    1
    55    94    95    2
    56    98    96    1
    57    90    89    1
    58    71    72    1
    59    86    89    1
    60    96    97    1
    61    32    31    2
    62    89    91    1
    63    31    30    1
    64    30    29    1
    65    30    33    1
    66    33    34    1
    67    34    35    1
    68     7     6    1
    69     7     8    1
    70     6     5    1
    71    15    14    2
    72    25    24    1
    73    25    26    2
    74    35    36    1
    75    24    27    1
    76    24    23    1
    77    28    27    1
    78    36    37    2
    79     5     2    1
    80    10     9    1
    81     8     9    2
    82    14    23   am
    83    14    13    1
    84     9    11    1
    85     2     3    1
    86     2     1    1
    87    63    61    1
    88    61    58    1
    89    61    62    1
    90    37    39    1
    91    37    38    1
    92    12     3   am
    93    12    13    1
    94    59    58    1
    95    59    60    2
    96    58    57    1
    97     3     4    2
    98    13    16    1
    99    16    17    1
   100    17    18    1
   101    52    51    2
   102    55    54    1
   103   138   136    1
   104    18    19    1
   105    53    54    1
   106    53    50    1
   107    19    20    2
   108    51    50    1
   109    54    56    1
   110   136   137    1
   111   136   135    2
   112    50    49    1
   113    20    22    1
   114    20    21    1
   115   135   134    1
   116   126   125    1
   117   134   133    1
   118   133   132    1
   119   125   124    1
   120   125   127    1
   121   124   121    1
   122   132   129    1
   123   120   121    1
   124   123   122    2
   125   121   122    1
   126   129   128    1
   127   129   130    1
   128   130   131    2
