@<TRIPOS>MOLECULE
tmp/3to3B00.pdb
 214 206 0 0 0
SMALL
GASTEIGER

@<TRIPOS>ATOM
      1  N         -0.4510  -33.6610   25.7560 N.3   150  GLY150     -0.1210
      2  CA        -0.9130  -32.3220   26.0600 C.3   150  GLY150      0.1956
      3  C         -2.4070  -32.2180   25.8130 C.2   150  GLY150      0.2612
      4  O         -3.1330  -33.2140   25.7310 O.2   150  GLY150     -0.2717
      5  N         -2.8720  -30.9970   25.6740 N.am  151  HIS151     -0.1962
      6  CA        -4.2910  -30.7260   25.7120 C.3   151  HIS151      0.1772
      7  C         -5.0400  -31.1720   24.4520 C.2   151  HIS151      0.2462
      8  O         -4.6220  -30.8870   23.3340 O.2   151  HIS151     -0.2730
      9  CB        -4.4990  -29.2340   25.9530 C.3   151  HIS151      0.0785
     10  CG        -5.7350  -28.9270   26.7190 C.ar  151  HIS151      0.0821
     11  ND1       -6.9880  -28.9580   26.1390 N.ar  151  HIS151     -0.2267
     12  CD2       -5.9200  -28.5930   28.0230 C.ar  151  HIS151      0.1154
     13  CE1       -7.8920  -28.6530   27.0580 C.ar  151  HIS151      0.1986
     14  NE2       -7.2720  -28.4280   28.2100 N.ar  151  HIS151     -0.2212
     15  N         -6.1340  -31.9130   24.6560 N.am  152  PRO152     -0.2727
     16  CA        -7.1040  -32.4560   23.6750 C.3   152  PRO152      0.1402
     17  C         -8.0500  -31.3850   23.0610 C.2   152  PRO152      0.2269
     18  O         -8.7250  -31.6430   22.0520 O.2   152  PRO152     -0.2865
     19  CB        -7.8660  -33.5340   24.4830 C.3   152  PRO152      0.0296
     20  CG        -7.8340  -32.9700   25.9440 C.3   152  PRO152      0.0237
     21  CD        -6.5180  -32.1960   26.0650 C.3   152  PRO152      0.0939
     22  N         -7.2950  -27.3410   23.2870 N.3   154  HIS154     -0.1241
     23  CA        -6.5500  -26.1730   22.7940 C.3   154  HIS154      0.1621
     24  C         -5.7370  -26.5320   21.5680 C.2   154  HIS154      0.2264
     25  O         -4.8620  -27.3820   21.6430 O.2   154  HIS154     -0.2867
     26  CB        -5.5980  -25.5900   23.8560 C.3   154  HIS154      0.0745
     27  CG        -6.2960  -24.9480   25.0070 C.ar  154  HIS154      0.0817
     28  ND1       -7.0740  -23.8190   24.8660 N.ar  154  HIS154     -0.2268
     29  CD2       -6.3090  -25.2570   26.3280 C.ar  154  HIS154      0.1154
     30  CE1       -7.5450  -23.4660   26.0510 C.ar  154  HIS154      0.1986
     31  NE2       -7.0900  -24.3150   26.9550 N.ar  154  HIS154     -0.2212
     32  N         -1.2910  -26.6530   21.9630 N.3   157  TYR157     -0.1241
     33  CA        -1.0840  -27.2520   23.2770 C.3   157  TYR157      0.1605
     34  C          0.3770  -27.3750   23.7000 C.2   157  TYR157      0.2264
     35  O          0.6770  -27.7830   24.8180 O.2   157  TYR157     -0.2867
     36  CB        -1.7240  -28.6610   23.2600 C.3   157  TYR157      0.0534
     37  CG        -1.3850  -29.5190   22.0260 C.ar  157  TYR157     -0.0201
     38  CD1       -0.2040  -30.2550   21.9670 C.ar  157  TYR157     -0.0009
     39  CD2       -2.2200  -29.5580   20.9160 C.ar  157  TYR157     -0.0009
     40  CE1        0.1240  -31.0310   20.8550 C.ar  157  TYR157      0.0417
     41  CE2       -1.9020  -30.3370   19.7920 C.ar  157  TYR157      0.0417
     42  CZ        -0.7240  -31.0730   19.7780 C.ar  157  TYR157      0.1957
     43  OH        -0.3750  -31.8370   18.6900 O.3   157  TYR157     -0.2866
     44  N          9.3600  -31.4430   29.2460 N.3   173  TYR173     -0.1241
     45  CA         9.0830  -32.4950   30.1920 C.3   173  TYR173      0.1605
     46  C          9.1330  -33.8870   29.5400 C.2   173  TYR173      0.2264
     47  O          9.3280  -34.8880   30.2280 O.2   173  TYR173     -0.2867
     48  CB         7.7460  -32.2440   30.9030 C.3   173  TYR173      0.0534
     49  CG         6.4810  -32.5830   30.1130 C.ar  173  TYR173     -0.0201
     50  CD1        6.0630  -33.9100   29.9560 C.ar  173  TYR173     -0.0009
     51  CD2        5.6790  -31.5760   29.5670 C.ar  173  TYR173     -0.0009
     52  CE1        4.8830  -34.2300   29.2500 C.ar  173  TYR173      0.0417
     53  CE2        4.4960  -31.8800   28.8650 C.ar  173  TYR173      0.0417
     54  CZ         4.1090  -33.2080   28.7060 C.ar  173  TYR173      0.1957
     55  OH         2.9560  -33.5100   28.0070 O.3   173  TYR173     -0.2866
     56  N          4.3120  -32.2640   33.7440 N.3   270  GLN270     -0.1231
     57  CA         3.5760  -31.7860   32.5760 C.3   270  GLN270      0.1698
     58  C          3.5360  -30.2790   32.4970 C.2   270  GLN270      0.2592
     59  O          3.4170  -29.7260   31.4130 O.2   270  GLN270     -0.2718
     60  CB         2.1330  -32.2790   32.6100 C.3   270  GLN270      0.0381
     61  CG         1.9320  -33.7140   32.1370 C.3   270  GLN270      0.0905
     62  CD         0.4730  -34.1440   32.2170 C.2   270  GLN270      0.2608
     63  OE1       -0.1850  -34.2950   31.1900 O.2   270  GLN270     -0.2717
     64  NE2       -0.0450  -34.3250   33.4480 N.am  270  GLN270     -0.0878
     65  N          3.6160  -29.6170   33.6480 N.am  271  SER271     -0.1952
     66  CA         3.5030  -28.1580   33.7380 C.3   271  SER271      0.1924
     67  C          4.7930  -27.4560   33.3390 C.2   271  SER271      0.2314
     68  O          4.7850  -26.3030   32.8920 O.2   271  SER271     -0.2863
     69  CB         3.0100  -27.7360   35.1440 C.3   271  SER271      0.2116
     70  OG         3.9350  -26.9450   35.8850 O.3   271  SER271     -0.2180
     71  N          7.0660  -25.8260   34.8200 N.3   272  ARG272     -0.1231
     72  CA         7.6160  -24.9110   35.8170 C.3   272  ARG272      0.1694
     73  C          7.4690  -25.5550   37.1940 C.2   272  ARG272      0.2592
     74  O          7.8850  -25.0110   38.2010 O.2   272  ARG272     -0.2718
     75  CB         6.9720  -23.5220   35.7380 C.3   272  ARG272      0.0321
     76  CG         5.4810  -23.5750   35.7930 C.3   272  ARG272      0.0489
     77  CD         4.8810  -22.2190   36.0400 C.3   272  ARG272      0.2205
     78  NE         3.4280  -22.3000   36.0480 N.pl3 272  ARG272     -0.0865
     79  CZ         2.6200  -21.2930   36.3480 C.cat 272  ARG272      0.5346
     80  NH1        3.1330  -20.1180   36.6760 N.pl3 272  ARG272      0.1354
     81  NH2        1.2990  -21.4610   36.3180 N.pl3 272  ARG272      0.1354
     82  N          6.8620  -26.7270   37.2180 N.am  273  THR273     -0.1953
     83  CA         6.7260  -27.4850   38.4520 C.3   273  THR273      0.1897
     84  C          7.6760  -28.6560   38.4260 C.2   273  THR273      0.2313
     85  O          7.5880  -29.4890   37.5660 O.2   273  THR273     -0.2863
     86  CB         5.3200  -28.0470   38.6070 C.3   273  THR273      0.1794
     87  OG1        4.3740  -26.9690   38.5430 O.3   273  THR273     -0.2208
     88  CG2        5.2000  -28.7860   39.9570 C.3   273  THR273      0.0378
     89  N          7.3550  -25.1000   42.4040 N.3   286  LYS286     -0.1245
     90  CA         6.6930  -24.4410   41.2940 C.3   286  LYS286      0.1561
     91  C          7.3170  -23.0690   41.1670 C.2   286  LYS286      0.2260
     92  O          7.2260  -22.2440   42.1000 O.2   286  LYS286     -0.2867
     93  CB         5.1770  -24.3550   41.5030 C.3   286  LYS286      0.0271
     94  CG         4.4060  -23.6670   40.3790 C.3   286  LYS286      0.0035
     95  CD         2.8950  -23.7960   40.5770 C.3   286  LYS286      0.0206
     96  CE         2.1370  -23.4920   39.2960 C.3   286  LYS286      0.1093
     97  NZ         0.6510  -23.5190   39.5080 N.3   286  LYS286     -0.1314
     98  N          2.9540  -20.7710   26.9940 N.3   293  ASN293     -0.1225
     99  CA         2.3330  -22.0380   26.6660 C.3   293  ASN293      0.1785
    100  C          0.8370  -21.8890   26.7640 C.2   293  ASN293      0.2597
    101  O          0.3210  -21.5280   27.8280 O.2   293  ASN293     -0.2718
    102  CB         2.7760  -23.0930   27.6580 C.3   293  ASN293      0.1169
    103  CG         3.4750  -24.2150   26.9980 C.2   293  ASN293      0.2627
    104  OD1        3.4010  -24.3600   25.7810 O.2   293  ASN293     -0.2716
    105  ND2        4.1690  -25.0280   27.7850 N.am  293  ASN293     -0.0877
    106  N          0.1420  -22.1720   25.6680 N.am  294  THR294     -0.1953
    107  CA        -1.3100  -22.0160   25.6170 C.3   294  THR294      0.1897
    108  C         -1.7320  -20.5450   25.7580 C.2   294  THR294      0.2313
    109  O         -2.8030  -20.2350   26.2830 O.2   294  THR294     -0.2863
    110  CB        -2.0410  -22.9390   26.6480 C.3   294  THR294      0.1794
    111  OG1       -3.3390  -23.2820   26.1520 O.3   294  THR294     -0.2208
    112  CG2       -2.1770  -22.2780   28.0300 C.3   294  THR294      0.0378
    113  N          3.9500  -17.9300   32.0170 N.3   298  ARG298     -0.1245
    114  CA         4.1430  -18.9400   33.0780 C.3   298  ARG298      0.1563
    115  C          4.7330  -18.3060   34.3600 C.2   298  ARG298      0.2260
    116  O          5.4220  -18.9440   35.1590 O.2   298  ARG298     -0.2867
    117  CB         4.9060  -20.1730   32.5950 C.3   298  ARG298      0.0307
    118  CG         4.1640  -20.9900   31.5330 C.3   298  ARG298      0.0489
    119  CD         2.7870  -21.4610   32.0310 C.3   298  ARG298      0.2205
    120  NE         1.7320  -20.4740   31.7790 N.pl3 298  ARG298     -0.0865
    121  CZ         0.5540  -20.4490   32.4060 C.cat 298  ARG298      0.5346
    122  NH1        0.2630  -21.3570   33.3320 N.pl3 298  ARG298      0.1354
    123  NH2       -0.3420  -19.5130   32.1110 N.pl3 298  ARG298      0.1354
    124  N          5.2780  -27.4580   47.1910 N.3   357  ARG357     -0.1245
    125  CA         4.0590  -28.2530   47.3330 C.3   357  ARG357      0.1563
    126  C          4.3660  -29.6770   47.8200 C.2   357  ARG357      0.2260
    127  O          5.4120  -30.2350   47.4650 O.2   357  ARG357     -0.2867
    128  CB         3.2820  -28.2470   46.0140 C.3   357  ARG357      0.0307
    129  CG         2.4400  -29.4530   45.7780 C.3   357  ARG357      0.0489
    130  CD         1.3210  -29.1620   44.7820 C.3   357  ARG357      0.2205
    131  NE         1.7840  -28.9250   43.4290 N.pl3 357  ARG357     -0.0865
    132  CZ         1.2590  -28.0100   42.6150 C.cat 357  ARG357      0.5346
    133  NH1        0.2650  -27.2400   43.0190 N.pl3 357  ARG357      0.1354
    134  NH2        1.7290  -27.8640   41.3890 N.pl3 357  ARG357      0.1354
    135  N         -5.7720  -36.4960   33.5000 N.3   374  ASN374     -0.1240
    136  CA        -5.8500  -36.5300   32.0410 C.3   374  ASN374      0.1653
    137  C         -5.1840  -37.7780   31.4080 C.2   374  ASN374      0.2266
    138  O         -5.4110  -38.1010   30.2520 O.2   374  ASN374     -0.2867
    139  CB        -5.3070  -35.2420   31.4150 C.3   374  ASN374      0.1155
    140  CG        -3.8200  -35.0410   31.6760 C.2   374  ASN374      0.2627
    141  OD1       -3.3250  -35.2770   32.7840 O.2   374  ASN374     -0.2716
    142  ND2       -3.1030  -34.5830   30.6550 N.am  374  ASN374     -0.0877
    143  N         -7.8020  -40.4860   29.8690 N.3   377  TYR377     -0.1241
    144  CA        -8.1770  -40.4170   28.4560 C.3   377  TYR377      0.1605
    145  C         -7.0230  -40.3610   27.4570 C.2   377  TYR377      0.2264
    146  O         -7.2460  -40.1370   26.2840 O.2   377  TYR377     -0.2867
    147  CB        -9.2590  -39.3650   28.1850 C.3   377  TYR377      0.0534
    148  CG        -9.0840  -38.0460   28.8990 C.ar  377  TYR377     -0.0201
    149  CD1       -8.3300  -37.0050   28.3280 C.ar  377  TYR377     -0.0009
    150  CD2       -9.6750  -37.8220   30.1450 C.ar  377  TYR377     -0.0009
    151  CE1       -8.1690  -35.7620   28.9800 C.ar  377  TYR377      0.0417
    152  CE2       -9.5100  -36.5740   30.8180 C.ar  377  TYR377      0.0417
    153  CZ        -8.7730  -35.5530   30.2190 C.ar  377  TYR377      0.1957
    154  OH        -8.6180  -34.3310   30.8710 O.3   377  TYR377     -0.2866
    155  N         -9.9940  -29.0070   36.2470 N.3   425  HIS425     -0.1226
    156  CA        -9.5660  -29.5130   34.9470 C.3   425  HIS425      0.1752
    157  C         -8.6780  -30.7550   35.1540 C.2   425  HIS425      0.2597
    158  O         -8.3850  -31.1550   36.2900 O.2   425  HIS425     -0.2718
    159  CB        -8.7820  -28.4550   34.1660 C.3   425  HIS425      0.0759
    160  CG        -9.5420  -27.1880   33.8730 C.ar  425  HIS425      0.0818
    161  ND1       -9.1320  -25.9550   34.3340 N.ar  425  HIS425     -0.2268
    162  CD2      -10.6400  -26.9520   33.1120 C.ar  425  HIS425      0.1154
    163  CE1       -9.9550  -25.0170   33.8930 C.ar  425  HIS425      0.1986
    164  NE2      -10.8750  -25.5930   33.1420 N.ar  425  HIS425     -0.2212
    165  N         -8.2430  -31.3660   34.0580 N.am  426  GLY426     -0.1942
    166  CA        -7.5230  -32.6250   34.1360 C.3   426  GLY426      0.2014
    167  C         -6.1640  -32.6080   34.8160 C.2   426  GLY426      0.2638
    168  O         -5.7630  -33.6040   35.4310 O.2   426  GLY426     -0.2714
    169  N         -5.4580  -31.4870   34.7160 N.am  427  GLN427     -0.1977
    170  CA        -4.0920  -31.4140   35.2050 C.3   427  GLN427      0.1601
    171  C         -4.0360  -31.0750   36.7020 C.2   427  GLN427      0.2287
    172  O         -2.9650  -31.1090   37.3130 O.2   427  GLN427     -0.2864
    173  CB        -3.2920  -30.3990   34.3740 C.3   427  GLN427      0.0394
    174  CG        -1.8300  -30.8060   34.1120 C.3   427  GLN427      0.0908
    175  CD        -0.8300  -30.1170   35.0560 C.2   427  GLN427      0.2608
    176  OE1       -1.1160  -29.0480   35.6060 O.2   427  GLN427     -0.2717
    177  NE2        0.3460  -30.7320   35.2420 N.am  427  GLN427     -0.0878
    178  N         -4.5710  -30.5770   43.3290 N.3   443  LYS443     -0.1231
    179  CA        -3.4480  -29.6500   43.4220 C.3   443  LYS443      0.1693
    180  C         -3.7630  -28.3810   42.6440 C.2   443  LYS443      0.2592
    181  O         -4.8150  -28.3060   41.9980 O.2   443  LYS443     -0.2718
    182  CB        -2.1510  -30.2910   42.9140 C.3   443  LYS443      0.0285
    183  CG        -2.2030  -30.8670   41.4770 C.3   443  LYS443      0.0035
    184  CD        -0.8060  -31.4360   41.1360 C.3   443  LYS443      0.0206
    185  CE        -0.6590  -31.8540   39.6490 C.3   443  LYS443      0.1093
    186  NZ        -0.6850  -30.6710   38.7190 N.3   443  LYS443     -0.1314
    187  N         -2.8210  -27.4300   42.6910 N.am  444  ASP444     -0.1974
    188  CA        -2.9400  -26.1000   42.0950 C.3   444  ASP444      0.1709
    189  C         -4.1610  -25.2910   42.5470 C.2   444  ASP444      0.2293
    190  O         -5.0940  -25.0830   41.7680 O.2   444  ASP444     -0.2864
    191  CB        -2.8810  -26.1770   40.5630 C.3   444  ASP444      0.1436
    192  CG        -1.4720  -26.4260   40.0450 C.2   444  ASP444      0.3671
    193  OD1       -0.5090  -25.8730   40.6220 O.co2 444  ASP444     -0.2456
    194  OD2       -1.3220  -27.1920   39.0670 O.co2 444  ASP444     -0.2456
    195  N         -3.8460  -20.2500   42.1460 N.3   447  GLU447     -0.1245
    196  CA        -4.4560  -19.4830   41.0480 C.3   447  GLU447      0.1567
    197  C         -5.9500  -19.7020   40.7690 C.2   447  GLU447      0.2260
    198  O         -6.6890  -18.7370   40.5710 O.2   447  GLU447     -0.2867
    199  CB        -3.6590  -19.6800   39.7570 C.3   447  GLU447      0.0388
    200  CG        -3.3850  -21.1510   39.4190 C.3   447  GLU447      0.1160
    201  CD        -2.3760  -21.3170   38.2880 C.2   447  GLU447      0.3649
    202  OE1       -1.8970  -20.2840   37.7540 O.co2 447  GLU447     -0.2457
    203  OE2       -2.0680  -22.4840   37.9360 O.co2 447  GLU447     -0.2457
    204  N        -14.5380  -29.7800   29.7870 N.3   495  PHE495     -0.1241
    205  CA       -13.1250  -29.8070   29.3440 C.3   495  PHE495      0.1605
    206  C        -12.2930  -30.9550   29.9000 C.2   495  PHE495      0.2264
    207  O        -11.1230  -31.0680   29.5740 O.2   495  PHE495     -0.2867
    208  CB       -12.3800  -28.4910   29.6660 C.3   495  PHE495      0.0534
    209  CG       -12.8770  -27.3160   28.8880 C.ar  495  PHE495     -0.0203
    210  CD1      -12.8050  -27.3050   27.4990 C.ar  495  PHE495     -0.0042
    211  CD2      -13.4420  -26.2110   29.5470 C.ar  495  PHE495     -0.0042
    212  CE1      -13.2920  -26.2140   26.7720 C.ar  495  PHE495     -0.0003
    213  CE2      -13.9250  -25.1080   28.8300 C.ar  495  PHE495     -0.0003
    214  CZ       -13.8540  -25.1080   27.4440 C.ar  495  PHE495     -0.0000
@<TRIPOS>BOND
     1    43    42    1
     2    42    41   ar
     3    42    40   ar
     4    41    39   ar
     5    40    38   ar
     6    39    37   ar
     7    24    25    2
     8    24    23    1
     9    32    33    1
    10    38    37   ar
    11    37    36    1
    12    18    17    2
    13    23    22    1
    14    23    26    1
    15    17    16    1
    16    36    33    1
    17    33    34    1
    18     8     7    2
    19    16    19    1
    20    16    15    1
    21    34    35    2
    22    26    27    1
    23     7    15   am
    24     7     6    1
    25    19    20    1
    26    15    21    1
    27    28    27   ar
    28    28    30   ar
    29    27    29   ar
    30   107   106    1
    31   107   108    1
    32   107   110    1
    33   106   100   am
    34     5     6    1
    35     5     3   am
    36     6     9    1
    37     4     3    2
    38     1     2    1
    39   108   109    2
    40   104   103    2
    41     3     2    1
    42    20    21    1
    43     9    10    1
    44    30    31   ar
    45    11    10   ar
    46    11    13   ar
    47   111   110    1
    48   146   145    2
    49    29    31   ar
    50   110   112    1
    51    99   100    1
    52    99    98    1
    53    99   102    1
    54    10    12   ar
    55   100   101    2
    56   212   214   ar
    57   212   210   ar
    58   103   102    1
    59   103   105   am
    60    13    14   ar
    61   214   213   ar
    62   145   144    1
    63   210   209   ar
    64    55    54    1
    65    12    14   ar
    66   147   144    1
    67   147   148    1
    68   149   148   ar
    69   149   151   ar
    70   144   143    1
    71    54    53   ar
    72    54    52   ar
    73   213   211   ar
    74    53    51   ar
    75   209   211   ar
    76   209   208    1
    77   148   150   ar
    78   151   153   ar
    79    44    45    1
    80    52    50   ar
    81   205   208    1
    82   205   204    1
    83   205   206    1
    84    46    45    1
    85    46    47    2
    86    51    49   ar
    87   207   206    2
    88    50    49   ar
    89    49    48    1
    90   150   152   ar
    91    45    48    1
    92   153   152   ar
    93   153   154    1
    94   138   137    2
    95   142   140   am
    96    63    62    2
    97   137   136    1
    98    59    58    2
    99   139   140    1
   100   139   136    1
   101   118   119    1
   102   118   117    1
   103   140   141    2
   104   120   119    1
   105   120   121    2
   106   113   114    1
   107   136   135    1
   108   123   121    1
   109    61    62    1
   110    61    60    1
   111    62    64   am
   112   121   122    1
   113    58    57    1
   114    58    65   am
   115    57    60    1
   116    57    56    1
   117   117   114    1
   118    68    67    2
   119   114   115    1
   120   162   164   ar
   121   162   160   ar
   122   164   163   ar
   123    67    66    1
   124    65    66    1
   125    66    69    1
   126   160   159    1
   127   160   161   ar
   128   163   161   ar
   129   165   166    1
   130   165   157   am
   131   174   173    1
   132   174   175    1
   133   166   167    1
   134   159   156    1
   135   115   116    2
   136   173   170    1
   137   169   167   am
   138   169   170    1
   139   167   168    2
   140    71    72    1
   141   156   157    1
   142   156   155    1
   143   175   177   am
   144   175   176    2
   145    69    70    1
   146   157   158    2
   147   170   171    1
   148    75    76    1
   149    75    72    1
   150    76    77    1
   151    72    73    1
   152    77    78    1
   153    78    79    2
   154    81    79    1
   155    79    80    1
   156   171   172    2
   157    73    82   am
   158    73    74    2
   159    82    83    1
   160    85    84    2
   161   202   201   ar
   162   203   201   ar
   163   201   200    1
   164    84    83    1
   165    83    86    1
   166    87    86    1
   167    86    88    1
   168   186   185    1
   169   194   192   ar
   170    96    97    1
   171    96    95    1
   172   200   199    1
   173   185   184    1
   174   199   196    1
   175   192   191    1
   176   192   193   ar
   177    94    95    1
   178    94    93    1
   179   191   188    1
   180   198   197    2
   181   197   196    1
   182   196   195    1
   183   184   183    1
   184    91    90    1
   185    91    92    2
   186    90    93    1
   187    90    89    1
   188   134   132    1
   189   183   182    1
   190   190   189    2
   191   181   180    2
   192   188   189    1
   193   188   187    1
   194   132   133    1
   195   132   131    2
   196   180   187   am
   197   180   179    1
   198   182   179    1
   199   178   179    1
   200   131   130    1
   201   130   129    1
   202   129   128    1
   203   128   125    1
   204   124   125    1
   205   125   126    1
   206   127   126    2
