@<TRIPOS>MOLECULE
tmp/3to6A00.pdb
 98 93 0 0 0
SMALL
GASTEIGER

@<TRIPOS>ATOM
      1  N          2.2250   -0.0650   12.3420 N.3   100  LEU100     -0.1245
      2  CA         2.8880    1.1430   12.8500 C.3   100  LEU100      0.1561
      3  C          3.7100    1.8330   11.7600 C.2   100  LEU100      0.2260
      4  O          4.3870    1.1690   10.9560 O.2   100  LEU100     -0.2867
      5  CB         3.8250    0.7930   14.0010 C.3   100  LEU100      0.0270
      6  CG         3.2430    0.1740   15.2760 C.3   100  LEU100      0.0019
      7  CD1        4.3470   -0.5480   16.0490 C.3   100  LEU100      0.0001
      8  CD2        2.5720    1.2410   16.1450 C.3   100  LEU100      0.0001
      9  N          6.3520    3.6340   12.3190 N.3   102  HIS102     -0.1241
     10  CA         7.7370    3.4610   12.7110 C.3   102  HIS102      0.1621
     11  C          7.8520    2.6260   13.9520 C.2   102  HIS102      0.2264
     12  O          6.9260    2.5950   14.7910 O.2   102  HIS102     -0.2867
     13  CB         8.4040    4.8150   12.9270 C.3   102  HIS102      0.0745
     14  CG         9.7380    4.7320   13.6290 C.ar  102  HIS102      0.0817
     15  ND1        9.8680    4.9010   14.9570 N.ar  102  HIS102     -0.2268
     16  CD2       11.0190    4.4880   13.1360 C.ar  102  HIS102      0.1154
     17  CE1       11.1640    4.7730   15.3000 C.ar  102  HIS102      0.1986
     18  NE2       11.8670    4.5200   14.1840 N.ar  102  HIS102     -0.2212
     19  N         11.2050    0.6410   16.5270 N.3   103  THR103     -0.1218
     20  CA        12.6090    0.3020   16.7270 C.3   103  THR103      0.1862
     21  C         12.9430   -1.0540   16.1140 C.2   103  THR103      0.2287
     22  O         12.0670   -1.9000   15.9390 O.2   103  THR103     -0.2866
     23  CB        12.9780    0.2850   18.2220 C.3   103  THR103      0.1770
     24  OG1       14.3980    0.1580   18.3650 O.3   103  THR103     -0.2211
     25  CG2       12.2960   -0.8780   18.9250 C.3   103  THR103      0.0375
     26  N         13.3550   -4.8290   26.6120 N.3   111  PHE111     -0.1241
     27  CA        11.9180   -4.6260   26.8360 C.3   111  PHE111      0.1605
     28  C         11.2310   -5.7110   27.6610 C.2   111  PHE111      0.2264
     29  O         11.6010   -6.8860   27.5970 O.2   111  PHE111     -0.2867
     30  CB        11.1830   -4.5240   25.4960 C.3   111  PHE111      0.0534
     31  CG        11.5970   -3.3410   24.6550 C.ar  111  PHE111     -0.0203
     32  CD1       12.4920   -3.4960   23.6000 C.ar  111  PHE111     -0.0042
     33  CD2       11.0870   -2.0760   24.9140 C.ar  111  PHE111     -0.0042
     34  CE1       12.8780   -2.4080   22.8200 C.ar  111  PHE111     -0.0003
     35  CE2       11.4610   -0.9750   24.1300 C.ar  111  PHE111     -0.0003
     36  CZ        12.3620   -1.1420   23.0850 C.ar  111  PHE111     -0.0000
     37  N          4.5730   -2.8910   25.1610 N.3   131  SER131     -0.1217
     38  CA         5.9500   -3.1010   25.5790 C.3   131  SER131      0.1889
     39  C          6.3340   -1.9720   26.5260 C.2   131  SER131      0.2288
     40  O          5.6710   -0.9380   26.5810 O.2   131  SER131     -0.2866
     41  CB         6.8980   -3.1400   24.3620 C.3   131  SER131      0.2089
     42  OG         6.6900   -2.0230   23.5090 O.3   131  SER131     -0.2183
     43  N          4.8470    3.0880   28.9720 N.3   142  VAL142     -0.1231
     44  CA         4.5700    2.3310   27.7880 C.3   142  VAL142      0.1692
     45  C          5.5070    2.7810   26.6440 C.2   142  VAL142      0.2592
     46  O          5.6030    3.9360   26.3730 O.2   142  VAL142     -0.2718
     47  CB         3.0920    2.5350   27.3420 C.3   142  VAL142      0.0266
     48  CG1        2.8930    2.0770   25.9300 C.3   142  VAL142      0.0020
     49  CG2        2.0840    1.9310   28.2970 C.3   142  VAL142      0.0020
     50  N          6.1560    1.8400   26.0030 N.am  143  ALA143     -0.1966
     51  CA         6.9340    2.0970   24.8220 C.3   143  ALA143      0.1728
     52  C          6.1240    1.9760   23.5220 C.2   143  ALA143      0.2616
     53  O          5.9670    2.9260   22.8630 O.2   143  ALA143     -0.2715
     54  CB         8.1440    1.2230   24.7820 C.3   143  ALA143      0.0334
     55  N          5.5270    0.8370   23.2270 N.am  144  CYS144     -0.1954
     56  CA         4.5390    0.7070   22.1580 C.3   144  CYS144      0.1843
     57  C          3.2760    0.0120   22.6630 C.2   144  CYS144      0.2625
     58  O          3.3280   -0.7390   23.6290 O.2   144  CYS144     -0.2714
     59  CB         5.1310   -0.0930   21.0050 C.3   144  CYS144      0.0997
     60  SG         4.1360   -0.0560   19.5240 S.3   144  CYS144     -0.0797
     61  N          2.1480    0.2480   22.0030 N.am  145  ILE145     -0.1977
     62  CA         0.8980   -0.4250   22.3710 C.3   145  ILE145      0.1596
     63  C          0.1140   -0.7470   21.1100 C.2   145  ILE145      0.2287
     64  O          0.1030    0.0440   20.1610 O.2   145  ILE145     -0.2864
     65  CB         0.0520    0.4170   23.3590 C.3   145  ILE145      0.0276
     66  CG1       -1.2640   -0.2870   23.7190 C.3   145  ILE145      0.0022
     67  CG2       -0.2350    1.8040   22.7990 C.3   145  ILE145      0.0022
     68  CD1       -1.9870    0.4230   24.8690 C.3   145  ILE145      0.0001
     69  N          5.4090    6.7750   25.7460 N.3   178  GLU178     -0.1245
     70  CA         6.5420    7.3310   25.0020 C.3   178  GLU178      0.1567
     71  C          6.0140    8.2670   23.9060 C.2   178  GLU178      0.2260
     72  O          5.0080    7.9530   23.2880 O.2   178  GLU178     -0.2867
     73  CB         7.3630    6.1890   24.3740 C.3   178  GLU178      0.0388
     74  CG         8.5300    6.6550   23.4950 C.3   178  GLU178      0.1160
     75  CD         9.4610    5.5190   23.0580 C.2   178  GLU178      0.3649
     76  OE1        9.4050    4.4200   23.6450 O.co2 178  GLU178     -0.2457
     77  OE2       10.2670    5.7310   22.1220 O.co2 178  GLU178     -0.2457
     78  N          7.0170   10.4740   20.2330 N.3   180  PRO180     -0.2102
     79  CA         5.6790   10.8870   19.8080 C.3   180  PRO180      0.1504
     80  C          4.7380    9.6960   19.6920 C.2   180  PRO180      0.2576
     81  O          5.2050    8.5670   19.4670 O.2   180  PRO180     -0.2718
     82  CB         5.9360   11.4930   18.4200 C.3   180  PRO180      0.0282
     83  CG         7.0910   10.6970   17.9040 C.3   180  PRO180      0.0208
     84  CD         7.9680   10.4470   19.1060 C.3   180  PRO180      0.0893
     85  N          3.4390    9.9460   19.8670 N.am  181  LEU181     -0.1966
     86  CA         2.4010    8.9230   19.6970 C.3   181  LEU181      0.1728
     87  C          1.7760    9.0390   18.3170 C.2   181  LEU181      0.2616
     88  O          1.6340   10.1480   17.8090 O.2   181  LEU181     -0.2715
     89  CB         1.2710    9.1140   20.7190 C.3   181  LEU181      0.0311
     90  CG         1.4720    8.7250   22.1870 C.3   181  LEU181      0.0022
     91  CD1        2.1690    9.8500   22.9070 C.3   181  LEU181      0.0001
     92  CD2        0.1480    8.4340   22.8670 C.3   181  LEU181      0.0001
     93  N          1.3600    7.9140   17.7350 N.am  182  SER182     -0.1950
     94  CA         0.5110    7.9420   16.5450 C.3   182  SER182      0.1924
     95  C         -0.8170    8.6440   16.8770 C.2   182  SER182      0.2314
     96  O         -1.1800    8.7530   18.0420 O.2   182  SER182     -0.2863
     97  CB         0.2330    6.5150   16.0570 C.3   182  SER182      0.2116
     98  OG        -0.5630    5.7960   16.9970 O.3   182  SER182     -0.2180
@<TRIPOS>BOND
     1     4     3    2
     2     3     2    1
     3     9    10    1
     4     1     2    1
     5    10    13    1
     6    10    11    1
     7     2     5    1
     8    13    14    1
     9    16    14   ar
    10    16    18   ar
    11    14    15   ar
    12    11    12    2
    13     5     6    1
    14    18    17   ar
    15    15    17   ar
    16     6     7    1
    17     6     8    1
    18    22    21    2
    19    97    94    1
    20    97    98    1
    21    21    20    1
    22    19    20    1
    23    94    95    1
    24    94    93    1
    25    20    23    1
    26    95    96    2
    27    93    87   am
    28    88    87    2
    29    83    82    1
    30    83    84    1
    31    23    24    1
    32    23    25    1
    33    87    86    1
    34    82    79    1
    35    84    78    1
    36    81    80    2
    37    60    59    1
    38    80    79    1
    39    80    85   am
    40    86    85    1
    41    86    89    1
    42    79    78    1
    43    64    63    2
    44    89    90    1
    45    59    56    1
    46    63    62    1
    47    61    62    1
    48    61    57   am
    49    77    75   ar
    50    56    57    1
    51    56    55    1
    52    90    92    1
    53    90    91    1
    54    62    65    1
    55    57    58    2
    56    67    65    1
    57    34    36   ar
    58    34    32   ar
    59    53    52    2
    60    75    74    1
    61    75    76   ar
    62    36    35   ar
    63    55    52   am
    64    72    71    2
    65    65    66    1
    66    74    73    1
    67    42    41    1
    68    52    51    1
    69    32    31   ar
    70    66    68    1
    71    71    70    1
    72    35    33   ar
    73    41    38    1
    74    73    70    1
    75    31    33   ar
    76    31    30    1
    77    54    51    1
    78    51    50    1
    79    70    69    1
    80    37    38    1
    81    30    27    1
    82    38    39    1
    83    48    47    1
    84    50    45   am
    85    46    45    2
    86    39    40    2
    87    26    27    1
    88    45    44    1
    89    27    28    1
    90    47    44    1
    91    47    49    1
    92    29    28    2
    93    44    43    1
