@<TRIPOS>MOLECULE
tmp/3to8A00.pdb
 97 94 0 0 0
SMALL
GASTEIGER

@<TRIPOS>ATOM
      1  N         -6.6670    2.5650  -14.2740 N.3    20  ASN20      -0.1240
      2  CA        -5.6160    1.7370  -13.6890 C.3    20  ASN20       0.1653
      3  C         -4.3590    2.5920  -13.5770 C.2    20  ASN20       0.2266
      4  O         -4.3950    3.7700  -13.8940 O.2    20  ASN20      -0.2867
      5  CB        -5.3910    0.4310  -14.4880 C.3    20  ASN20       0.1155
      6  CG        -4.8450    0.6620  -15.8830 C.2    20  ASN20       0.2627
      7  OD1       -4.1650    1.6320  -16.1280 O.2    20  ASN20      -0.2716
      8  ND2       -5.1210   -0.2790  -16.8030 N.am   20  ASN20      -0.0877
      9  N         -1.3640    2.7200  -15.1350 N.3    22  ASP22      -0.1225
     10  CA        -0.8430    3.2240  -16.4100 C.3    22  ASP22       0.1805
     11  C         -1.7360    4.3140  -17.0130 C.2    22  ASP22       0.2597
     12  O         -1.2220    5.2860  -17.5680 O.2    22  ASP22      -0.2718
     13  CB        -0.6610    2.0860  -17.4220 C.3    22  ASP22       0.1424
     14  CG         0.5180    1.1880  -17.0980 C.2    22  ASP22       0.3668
     15  OD1        1.3600    1.5450  -16.2360 O.co2  22  ASP22      -0.2456
     16  OD2        0.6120    0.1130  -17.7220 O.co2  22  ASP22      -0.2456
     17  N         -3.0590    4.1580  -16.9130 N.am   23  ARG23      -0.1979
     18  CA        -3.9790    5.1750  -17.4390 C.3    23  ARG23       0.1597
     19  C         -3.9630    6.4780  -16.6170 C.2    23  ARG23       0.2287
     20  O         -4.1040    7.5770  -17.1630 O.2    23  ARG23      -0.2864
     21  CB        -5.3920    4.6140  -17.6090 C.3    23  ARG23       0.0334
     22  CG        -5.3970    3.4620  -18.6230 C.3    23  ARG23       0.0492
     23  CD        -6.7280    2.7620  -18.7320 C.3    23  ARG23       0.2205
     24  NE        -6.6040    1.6390  -19.6740 N.pl3  23  ARG23      -0.0865
     25  CZ        -7.3140    0.5220  -19.6110 C.cat  23  ARG23       0.5346
     26  NH1       -8.2400    0.3710  -18.6650 N.pl3  23  ARG23       0.1354
     27  NH2       -7.1080   -0.4470  -20.5120 N.pl3  23  ARG23       0.1354
     28  N         -0.9290    8.1030  -17.7750 N.3    26  ASN26      -0.1240
     29  CA        -1.2120    8.6870  -19.0860 C.3    26  ASN26       0.1653
     30  C         -1.7950   10.1030  -19.0640 C.2    26  ASN26       0.2266
     31  O         -1.5220   10.8940  -19.9590 O.2    26  ASN26      -0.2867
     32  CB        -2.0910    7.7400  -19.9110 C.3    26  ASN26       0.1155
     33  CG        -1.3210    6.5140  -20.3800 C.2    26  ASN26       0.2627
     34  OD1       -0.0830    6.4690  -20.3000 O.2    26  ASN26      -0.2716
     35  ND2       -2.0450    5.5050  -20.8470 N.am   26  ASN26      -0.0877
     36  N          9.0300    7.2930  -20.2490 N.3   107  ASN107     -0.1240
     37  CA         7.9360    8.1420  -20.7170 C.3   107  ASN107      0.1653
     38  C          7.6580    9.3720  -19.8510 C.2   107  ASN107      0.2266
     39  O          6.8050   10.1820  -20.1860 O.2   107  ASN107     -0.2867
     40  CB         6.6620    7.3210  -20.9030 C.3   107  ASN107      0.1155
     41  CG         6.7740    6.3500  -22.0590 C.2   107  ASN107      0.2627
     42  OD1        7.2970    6.6920  -23.1220 O.2   107  ASN107     -0.2716
     43  ND2        6.2790    5.1400  -21.8620 N.am  107  ASN107     -0.0877
     44  N         -6.2820    9.1200  -21.5500 N.3   181  GLY181     -0.1210
     45  CA        -6.0300    8.0290  -20.5880 C.3   181  GLY181      0.1956
     46  C         -5.7550    6.6860  -21.2340 C.2   181  GLY181      0.2611
     47  O         -4.8920    5.9230  -20.7650 O.2   181  GLY181     -0.2717
     48  N         -6.4900    6.3800  -22.3130 N.am  182  PHE182     -0.1976
     49  CA        -6.3260    5.1040  -23.0020 C.3   182  PHE182      0.1639
     50  C         -5.2530    5.0480  -24.0740 C.2   182  PHE182      0.2290
     51  O         -4.6210    4.0080  -24.2480 O.2   182  PHE182     -0.2864
     52  CB        -7.6480    4.6320  -23.6030 C.3   182  PHE182      0.0560
     53  CG        -8.5510    3.9840  -22.6010 C.ar  182  PHE182     -0.0200
     54  CD1       -9.1510    4.7420  -21.6040 C.ar  182  PHE182     -0.0042
     55  CD2       -8.7800    2.6130  -22.6390 C.ar  182  PHE182     -0.0042
     56  CE1       -9.9730    4.1400  -20.6490 C.ar  182  PHE182     -0.0003
     57  CE2       -9.6090    2.0130  -21.6940 C.ar  182  PHE182     -0.0003
     58  CZ       -10.2050    2.7940  -20.6980 C.ar  182  PHE182     -0.0000
     59  N         -2.5340    7.3890  -24.7560 N.3   184  ASN184     -0.1225
     60  CA        -1.1880    7.8930  -24.5550 C.3   184  ASN184      0.1785
     61  C         -0.2210    6.7110  -24.4400 C.2   184  ASN184      0.2597
     62  O         -0.5160    5.7320  -23.7600 O.2   184  ASN184     -0.2718
     63  CB        -1.1230    8.8150  -23.3180 C.3   184  ASN184      0.1169
     64  CG        -0.0240    9.8670  -23.4060 C.2   184  ASN184      0.2627
     65  OD1        0.7570    9.9180  -24.3770 O.2   184  ASN184     -0.2716
     66  ND2        0.0530   10.7290  -22.3740 N.am  184  ASN184     -0.0877
     67  N          0.8910    6.8040  -25.1620 N.am  185  HIS185     -0.1961
     68  CA         1.9670    5.7960  -25.1750 C.3   185  HIS185      0.1787
     69  C          1.6050    4.4970  -25.8830 C.2   185  HIS185      0.2620
     70  O          2.3060    3.5030  -25.7540 O.2   185  HIS185     -0.2715
     71  CB         2.5220    5.5490  -23.7680 C.3   185  HIS185      0.0785
     72  CG         2.8460    6.8160  -23.0530 C.ar  185  HIS185      0.0821
     73  ND1        2.1180    7.2670  -21.9710 N.ar  185  HIS185     -0.2267
     74  CD2        3.7450    7.7870  -23.3380 C.ar  185  HIS185      0.1154
     75  CE1        2.5990    8.4390  -21.5830 C.ar  185  HIS185      0.1986
     76  NE2        3.5840    8.7780  -22.3950 N.ar  185  HIS185     -0.2212
     77  N          0.5020    4.5170  -26.6340 N.am  186  TYR186     -0.1960
     78  CA         0.1380    3.4020  -27.4890 C.3   186  TYR186      0.1771
     79  C          1.2810    3.0730  -28.4490 C.2   186  TYR186      0.2619
     80  O          1.8820    3.9710  -29.0850 O.2   186  TYR186     -0.2715
     81  CB        -1.1280    3.7530  -28.2780 C.3   186  TYR186      0.0574
     82  CG        -1.6450    2.6380  -29.1250 C.ar  186  TYR186     -0.0198
     83  CD1       -1.2850    2.5410  -30.4720 C.ar  186  TYR186     -0.0009
     84  CD2       -2.5190    1.6840  -28.5920 C.ar  186  TYR186     -0.0009
     85  CE1       -1.7570    1.5050  -31.2720 C.ar  186  TYR186      0.0417
     86  CE2       -3.0100    0.6420  -29.3990 C.ar  186  TYR186      0.0417
     87  CZ        -2.6260    0.5710  -30.7300 C.ar  186  TYR186      0.1957
     88  OH        -3.0970   -0.4360  -31.5330 O.3   186  TYR186     -0.2866
     89  N          1.5770    1.7810  -28.5600 N.am  187  GLN187     -0.1977
     90  CA         2.6790    1.2820  -29.3840 C.3   187  GLN187      0.1601
     91  C          2.2720    1.0660  -30.8310 C.2   187  GLN187      0.2287
     92  O          1.3530    0.3050  -31.0860 O.2   187  GLN187     -0.2864
     93  CB         3.1740   -0.0510  -28.8250 C.3   187  GLN187      0.0394
     94  CG         3.7690    0.0800  -27.4710 C.3   187  GLN187      0.0908
     95  CD         4.9530    1.0100  -27.4970 C.2   187  GLN187      0.2608
     96  OE1        5.9880    0.6810  -28.0620 O.2   187  GLN187     -0.2717
     97  NE2        4.8000    2.1820  -26.9080 N.am  187  GLN187     -0.0878
@<TRIPOS>BOND
     1    88    87    1
     2    85    87   ar
     3    85    83   ar
     4    92    91    2
     5    91    90    1
     6    87    86   ar
     7    83    82   ar
     8    86    84   ar
     9    90    93    1
    10    90    89    1
    11    82    84   ar
    12    82    81    1
    13    80    79    2
    14    93    94    1
    15    89    79   am
    16    79    78    1
    17    81    78    1
    18    96    95    2
    19    95    94    1
    20    95    97   am
    21    78    77    1
    22    77    69   am
    23    69    70    2
    24    69    68    1
    25    68    67    1
    26    68    71    1
    27    67    61   am
    28    59    60    1
    29    60    61    1
    30    60    63    1
    31    61    62    2
    32    65    64    2
    33    51    50    2
    34    50    49    1
    35    71    72    1
    36    52    49    1
    37    52    53    1
    38    64    63    1
    39    64    66   am
    40    74    72   ar
    41    74    76   ar
    42    42    41    2
    43    72    73   ar
    44    49    48    1
    45    55    53   ar
    46    55    57   ar
    47    53    54   ar
    48    76    75   ar
    49    48    46   am
    50    41    43   am
    51    41    40    1
    52    73    75   ar
    53    57    58   ar
    54    54    56   ar
    55    44    45    1
    56    46    47    2
    57    46    45    1
    58    40    37    1
    59    35    33   am
    60    37    36    1
    61    37    38    1
    62    58    56   ar
    63    27    25    1
    64    33    34    2
    65    33    32    1
    66    39    38    2
    67    31    30    2
    68    32    29    1
    69    24    25    2
    70    24    23    1
    71    25    26    1
    72    29    30    1
    73    29    28    1
    74    23    22    1
    75    22    21    1
    76    16    14   ar
    77    21    18    1
    78    12    11    2
    79    18    17    1
    80    18    19    1
    81    13    14    1
    82    13    10    1
    83    20    19    2
    84    14    15   ar
    85    11    17   am
    86    11    10    1
    87     8     6   am
    88    10     9    1
    89     7     6    2
    90     6     5    1
    91     5     2    1
    92     1     2    1
    93     4     3    2
    94     2     3    1
