@<TRIPOS>MOLECULE
tmp/3todA03.pdb
 80 79 0 0 0
SMALL
GASTEIGER

@<TRIPOS>ATOM
      1  N         18.3710   16.3110   10.4430 N.3    89  THR89      -0.1203
      2  CA        17.9390   14.8980   10.1820 C.3    89  THR89       0.1994
      3  C         16.5180   14.8560    9.5440 C.2    89  THR89       0.2618
      4  O         15.7530   15.8190    9.6570 O.2    89  THR89      -0.2717
      5  CB        17.9840   13.9830   11.4600 C.3    89  THR89       0.1784
      6  OG1       17.0410   14.4590   12.4530 O.3    89  THR89      -0.2211
      7  CG2       19.4470   13.8960   12.0310 C.3    89  THR89       0.0376
      8  N         16.1940   13.7730    8.8200 N.am   90  GLU90      -0.1965
      9  CA        14.8840   13.6620    8.1330 C.3    90  GLU90       0.1733
     10  C         13.8140   12.7040    8.7330 C.2    90  GLU90       0.2616
     11  O         12.6160   12.6910    8.3620 O.2    90  GLU90      -0.2715
     12  CB        15.1230   13.2840    6.6640 C.3    90  GLU90       0.0429
     13  CG        15.8800   14.3810    5.8730 C.3    90  GLU90       0.1163
     14  CD        15.7810   14.1150    4.3710 C.2    90  GLU90       0.3649
     15  OE1       16.4560   13.1750    3.8650 O.co2  90  GLU90      -0.2457
     16  OE2       14.9680   14.8050    3.7130 O.co2  90  GLU90      -0.2457
     17  N         14.2550   11.8790    9.5900 N.am   91  GLY91      -0.1955
     18  CA        13.3750   10.8630   10.1720 C.3    91  GLY91       0.1869
     19  C         13.2400    9.7650    9.1490 C.2    91  GLY91       0.2309
     20  O         13.2010    9.9720    7.8990 O.2    91  GLY91      -0.2863
     21  N          6.4060    8.6710   10.8440 N.3   250  VAL250     -0.1231
     22  CA         7.7680    9.0620   10.6570 C.3   250  VAL250      0.1692
     23  C          8.5130    9.0620   12.0060 C.2   250  VAL250      0.2592
     24  O          7.9660    9.5740   13.0460 O.2   250  VAL250     -0.2718
     25  CB         7.8170   10.5280   10.1640 C.3   250  VAL250      0.0266
     26  CG1        9.2330   11.0090   10.0560 C.3   250  VAL250      0.0020
     27  CG2        7.2010   10.5940    8.7410 C.3   250  VAL250      0.0020
     28  N          9.5540    8.2640   12.0880 N.am  251  ALA251     -0.1966
     29  CA        10.3290    8.0400   13.3530 C.3   251  ALA251      0.1713
     30  C         11.4620    8.9930   13.4740 C.2   251  ALA251      0.2458
     31  O         12.1670    9.3180   12.4690 O.2   251  ALA251     -0.2730
     32  CB        10.8900    6.6690   13.2930 C.3   251  ALA251      0.0333
     33  N         11.8820    9.4220   14.7020 N.am  252  PRO252     -0.2716
     34  CA        13.0970   10.1720   14.9040 C.3   252  PRO252      0.1535
     35  C         14.3520    9.2980   14.7180 C.2   252  PRO252      0.2595
     36  O         14.3490    8.0940   15.0950 O.2   252  PRO252     -0.2716
     37  CB        12.9690   10.7290   16.3520 C.3   252  PRO252      0.0310
     38  CG        12.1600    9.6060   16.9870 C.3   252  PRO252      0.0237
     39  CD        11.1760    9.1250   15.9570 C.3   252  PRO252      0.0939
     40  N         15.3770    9.7810   14.0830 N.am  253  ASN253     -0.2026
     41  CA        16.5520    8.9580   13.8030 C.3   253  ASN253      0.1374
     42  C         17.2290    8.3960   15.0190 C.3   253  ASN253      0.2041
     43  O         17.1180    8.9850   16.1720 O.3   253  ASN253     -0.2185
     44  CB        17.6050    9.6770   12.9990 C.3   253  ASN253      0.1128
     45  CG        17.2700    9.7770   11.5210 C.2   253  ASN253      0.2626
     46  OD1       16.3980    9.1630   10.9920 O.2   253  ASN253     -0.2716
     47  ND2       18.1030   10.5350   10.8370 N.am  253  ASN253     -0.0877
     48  N         12.3110   16.7960   23.3190 N.3   318  GLU318     -0.1231
     49  CA        12.3840   17.6730   22.1560 C.3   318  GLU318      0.1699
     50  C         12.9120   16.9190   20.9360 C.2   318  GLU318      0.2592
     51  O         12.4770   17.1600   19.8100 O.2   318  GLU318     -0.2718
     52  CB        13.2710   18.8840   22.4510 C.3   318  GLU318      0.0402
     53  CG        12.6240   19.9220   23.3520 C.3   318  GLU318      0.1161
     54  CD        13.5290   21.1100   23.6150 C.2   318  GLU318      0.3649
     55  OE1       14.7080   20.8940   23.9680 O.co2 318  GLU318     -0.2457
     56  OE2       13.0620   22.2590   23.4690 O.co2 318  GLU318     -0.2457
     57  N         13.8500   16.0060   21.1700 N.am  319  TYR319     -0.1962
     58  CA        14.4590   15.1780   20.0630 C.3   319  TYR319      0.1771
     59  C         13.3630   14.2250   19.5960 C.2   319  TYR319      0.2619
     60  O         13.2130   14.0930   18.3290 O.2   319  TYR319     -0.2715
     61  CB        15.6640   14.4780   20.6360 C.3   319  TYR319      0.0574
     62  CG        16.3090   13.6420   19.5200 C.ar  319  TYR319     -0.0198
     63  CD1       17.0110   14.2990   18.5090 C.ar  319  TYR319     -0.0009
     64  CD2       16.0770   12.3260   19.4350 C.ar  319  TYR319     -0.0009
     65  CE1       17.5320   13.6130   17.3780 C.ar  319  TYR319      0.0417
     66  CE2       16.5070   11.5950   18.3280 C.ar  319  TYR319      0.0417
     67  CZ        17.2170   12.2630   17.3140 C.ar  319  TYR319      0.1957
     68  OH        17.6730   11.5430   16.2090 O.3   319  TYR319     -0.2866
     69  N         12.6710   13.4960   20.4970 N.am  320  LEU320     -0.1963
     70  CA        11.7010   12.5110   20.0420 C.3   320  LEU320      0.1728
     71  C         10.4770   13.1600   19.3890 C.2   320  LEU320      0.2616
     72  O          9.8240   12.5130   18.5260 O.2   320  LEU320     -0.2715
     73  CB        11.2550   11.5700   21.1770 C.3   320  LEU320      0.0311
     74  CG        12.3750   10.7330   21.7150 C.3   320  LEU320      0.0022
     75  CD1       11.9310    9.8620   22.8600 C.3   320  LEU320      0.0001
     76  CD2       12.9600    9.7500   20.5700 C.3   320  LEU320      0.0001
     77  N         10.0860   14.3470   19.9320 N.am  321  GLY321     -0.1955
     78  CA         8.9190   15.0070   19.4790 C.3   321  GLY321      0.1869
     79  C          7.7760   14.7680   20.3810 C.2   321  GLY321      0.2309
     80  O          7.5550   13.6190   20.8410 O.2   321  GLY321     -0.2863
@<TRIPOS>BOND
     1    16    14   ar
     2    15    14   ar
     3    14    13    1
     4    13    12    1
     5    12     9    1
     6    20    19    2
     7     9    10    1
     8     9     8    1
     9    11    10    2
    10    10    17   am
    11    27    25    1
    12     8     3   am
    13    19    18    1
    14     3     4    2
    15     3     2    1
    16    17    18    1
    17    26    25    1
    18    25    22    1
    19     2     1    1
    20     2     5    1
    21    22    21    1
    22    22    23    1
    23    47    45   am
    24    46    45    2
    25     5     7    1
    26     5     6    1
    27    45    44    1
    28    23    28   am
    29    23    24    2
    30    28    29    1
    31    31    30    2
    32    44    41    1
    33    32    29    1
    34    29    30    1
    35    30    33   am
    36    41    40    1
    37    41    42    1
    38    40    35   am
    39    33    34    1
    40    33    39    1
    41    35    34    1
    42    35    36    2
    43    34    37    1
    44    42    43    1
    45    39    38    1
    46    68    67    1
    47    37    38    1
    48    67    65   ar
    49    67    66   ar
    50    65    63   ar
    51    66    64   ar
    52    60    59    2
    53    63    62   ar
    54    72    71    2
    55    71    77   am
    56    71    70    1
    57    64    62   ar
    58    78    77    1
    59    78    79    1
    60    62    61    1
    61    59    58    1
    62    59    69   am
    63    51    50    2
    64    70    69    1
    65    70    73    1
    66    58    61    1
    67    58    57    1
    68    79    80    2
    69    76    74    1
    70    50    57   am
    71    50    49    1
    72    73    74    1
    73    74    75    1
    74    49    52    1
    75    49    48    1
    76    52    53    1
    77    53    54    1
    78    56    54   ar
    79    54    55   ar
