@<TRIPOS>MOLECULE
tmp/3tofA00.pdb
 116 109 0 0 0
SMALL
GASTEIGER

@<TRIPOS>ATOM
      1  N         19.4630   17.2420   14.8520 N.3     8  ARG8       -0.1245
      2  CA        18.7440   18.4510   15.2720 C.3     8  ARG8        0.1563
      3  C         17.7550   18.0750   16.3900 C.2     8  ARG8        0.2260
      4  O         17.0150   17.1110   16.2320 O.2     8  ARG8       -0.2867
      5  CB        18.0080   19.0430   14.0680 C.3     8  ARG8        0.0307
      6  CG        18.9460   19.5730   13.0020 C.3     8  ARG8        0.0489
      7  CD        18.1670   20.2950   11.9020 C.3     8  ARG8        0.2205
      8  NE        19.0530   21.1170   11.1080 N.pl3   8  ARG8       -0.0865
      9  CZ        19.0750   21.1450    9.7790 C.cat   8  ARG8        0.5346
     10  NH1       18.3080   20.2980    9.0790 N.pl3   8  ARG8        0.1354
     11  NH2       19.8910   21.9960    9.1510 N.pl3   8  ARG8        0.1354
     12  N         12.5450   23.2000   16.6410 N.3    23  LEU23      -0.1245
     13  CA        13.9240   22.9930   17.0530 C.3    23  LEU23       0.1561
     14  C         14.1130   23.6360   18.3950 C.2    23  LEU23       0.2260
     15  O         13.8270   24.8190   18.5060 O.2    23  LEU23      -0.2867
     16  CB        14.8040   23.6950   15.9950 C.3    23  LEU23       0.0270
     17  CG        16.3180   23.6350   16.0970 C.3    23  LEU23       0.0019
     18  CD1       16.7440   22.2310   15.9340 C.3    23  LEU23       0.0001
     19  CD2       16.8430   24.4220   14.8840 C.3    23  LEU23       0.0001
     20  N         16.2890   25.6120   20.5570 N.3    25  ASP25      -0.1239
     21  CA        17.4570   26.3790   20.1640 C.3    25  ASP25       0.1674
     22  C         17.9910   27.3110   21.2610 C.2    25  ASP25       0.2266
     23  O         17.4940   28.4550   21.4410 O.2    25  ASP25      -0.2867
     24  CB        17.0510   27.2430   18.9670 C.3    25  ASP25       0.1410
     25  CG        18.2420   27.9290   18.3120 C.2    25  ASP25       0.3668
     26  OD1       19.3450   27.7620   18.8820 O.co2  25  ASP25      -0.2456
     27  OD2       18.0600   28.5420   17.2180 O.co2  25  ASP25      -0.2456
     28  N         20.5560   28.9920   21.1780 N.3    27  GLY27      -0.1210
     29  CA        21.1910   30.1140   20.5310 C.3    27  GLY27       0.1956
     30  C         20.1620   31.1370   20.0460 C.2    27  GLY27       0.2612
     31  O         20.5260   32.1420   19.3990 O.2    27  GLY27      -0.2717
     32  N         18.8690   30.9180   20.3570 N.am   28  ALA28      -0.1965
     33  CA        17.8410   31.8790   19.8830 C.3    28  ALA28       0.1728
     34  C         17.2970   32.6480   21.0860 C.2    28  ALA28       0.2616
     35  O         16.8410   31.9820   22.0550 O.2    28  ALA28      -0.2715
     36  CB        16.6820   31.1910   19.2570 C.3    28  ALA28       0.0334
     37  N         17.3110   33.9930   21.0580 N.am   29  ASP29      -0.1957
     38  CA        16.6860   34.7450   22.1780 C.3    29  ASP29       0.1840
     39  C         15.1520   34.5620   22.1160 C.2    29  ASP29       0.2622
     40  O         14.5080   34.5370   23.1740 O.2    29  ASP29      -0.2715
     41  CB        16.9410   36.2470   21.9920 C.3    29  ASP29       0.1450
     42  CG        18.4270   36.6110   22.0800 C.2    29  ASP29       0.3671
     43  OD1       19.2400   35.8220   22.5850 O.co2  29  ASP29      -0.2456
     44  OD2       18.7820   37.7510   21.6840 O.co2  29  ASP29      -0.2456
     45  N         14.6120   34.4350   20.8820 N.am   30  ASP30      -0.1971
     46  CA        13.1630   34.4840   20.6430 C.3    30  ASP30       0.1709
     47  C         12.7000   33.2000   19.9980 C.2    30  ASP30       0.2293
     48  O         13.5260   32.4380   19.5450 O.2    30  ASP30      -0.2864
     49  CB        12.8020   35.6600   19.6820 C.3    30  ASP30       0.1436
     50  CG        13.3160   37.0150   20.1910 C.2    30  ASP30       0.3671
     51  OD1       13.1780   37.3000   21.4060 O.co2  30  ASP30      -0.2456
     52  OD2       13.8020   37.8280   19.3680 O.co2  30  ASP30      -0.2456
     53  N         10.4370   31.5620   16.9800 N.3    32  VAL32      -0.1245
     54  CA        10.0860   31.9650   15.6100 C.3    32  VAL32       0.1561
     55  C          9.4220   30.7920   14.9400 C.2    32  VAL32       0.2260
     56  O         10.0000   29.7130   14.8420 O.2    32  VAL32      -0.2867
     57  CB        11.2960   32.4750   14.7970 C.3    32  VAL32       0.0252
     58  CG1       10.7440   33.1880   13.5600 C.3    32  VAL32       0.0019
     59  CG2       12.2080   33.4120   15.6510 C.3    32  VAL32       0.0019
     60  N         13.8820   40.3450   13.0000 N.3    47  ILE47      -0.1231
     61  CA        14.8640   39.5710   13.7590 C.3    47  ILE47       0.1692
     62  C         15.9980   39.1560   12.8280 C.2    47  ILE47       0.2593
     63  O         15.7760   38.9550   11.6250 O.2    47  ILE47      -0.2718
     64  CB        14.1870   38.3730   14.4880 C.3    47  ILE47       0.0266
     65  CG1       13.4590   37.5060   13.4510 C.3    47  ILE47       0.0019
     66  CG2       13.3490   39.0080   15.5870 C.3    47  ILE47       0.0020
     67  CD1       13.2550   36.1000   13.8310 C.3    47  ILE47       0.0001
     68  N         17.1720   38.9460   13.4180 N.am   48  GLY48      -0.1942
     69  CA        18.3400   38.7150   12.6100 C.3    48  GLY48       0.2014
     70  C         19.0810   37.4990   13.0270 C.2    48  GLY48       0.2639
     71  O         18.9130   36.9740   14.1480 O.2    48  GLY48      -0.2714
     72  N         19.9630   37.0810   12.1510 N.am   49  GLY49      -0.1939
     73  CA        20.8310   35.9370   12.4920 C.3    49  GLY49       0.2014
     74  C         21.8900   35.8860   11.4390 C.2    49  GLY49       0.2638
     75  O         22.1760   36.8910   10.8270 O.2    49  GLY49      -0.2714
     76  N         22.4410   34.7060   11.1700 N.am   50  ILE50      -0.1977
     77  CA        23.4190   34.6310   10.1130 C.3    50  ILE50       0.1596
     78  C         22.6120   34.8310    8.7940 C.2    50  ILE50       0.2287
     79  O         21.5390   34.1970    8.6030 O.2    50  ILE50      -0.2864
     80  CB        24.1050   33.2050   10.1440 C.3    50  ILE50       0.0276
     81  CG1       25.2600   33.1930   11.1630 C.3    50  ILE50       0.0022
     82  CG2       24.5680   32.7810    8.7210 C.3    50  ILE50       0.0022
     83  CD1       26.1190   31.9440   11.2320 C.3    50  ILE50       0.0001
     84  N         18.3990   39.8000    8.2340 N.3    53  PHE53      -0.1241
     85  CA        17.1550   39.9140    8.9900 C.3    53  PHE53       0.1605
     86  C         15.9570   39.4420    8.1890 C.2    53  PHE53       0.2264
     87  O         15.9680   39.5670    6.9190 O.2    53  PHE53      -0.2867
     88  CB        16.9380   41.3730    9.3790 C.3    53  PHE53       0.0534
     89  CG        17.8200   41.8230   10.5600 C.ar   53  PHE53      -0.0203
     90  CD1       19.1980   42.1600   10.3980 C.ar   53  PHE53      -0.0042
     91  CD2       17.2790   41.9640   11.8190 C.ar   53  PHE53      -0.0042
     92  CE1       19.9890   42.5070   11.4800 C.ar   53  PHE53      -0.0003
     93  CE2       18.0940   42.3720   12.9310 C.ar   53  PHE53      -0.0003
     94  CZ        19.4470   42.6940   12.7440 C.ar   53  PHE53      -0.0000
     95  N         12.9770   29.4380    8.0040 N.3    81  PRO81      -0.2102
     96  CA        13.1880   28.1470    7.3910 C.3    81  PRO81       0.1504
     97  C         12.9200   26.9350    8.3090 C.2    81  PRO81       0.2575
     98  O         12.7290   25.8200    7.8420 O.2    81  PRO81      -0.2718
     99  CB        14.6700   28.1960    6.9780 C.3    81  PRO81       0.0282
    100  CG        15.2840   29.2160    7.8500 C.3    81  PRO81       0.0208
    101  CD        14.2170   30.1760    8.2650 C.3    81  PRO81       0.0893
    102  N         12.8570   27.1510    9.6250 N.am   82  VAL82      -0.1980
    103  CA        12.5730   26.0600   10.5890 C.3    82  VAL82       0.1595
    104  C         11.8910   26.7100   11.8160 C.2    82  VAL82       0.2287
    105  O         12.1690   27.8820   12.1620 O.2    82  VAL82      -0.2864
    106  CB        13.9120   25.4260   11.0780 C.3    82  VAL82       0.0276
    107  CG1       13.7560   24.4450   12.2240 C.3    82  VAL82       0.0022
    108  CG2       14.6370   24.7660    9.9020 C.3    82  VAL82       0.0022
    109  N         11.4840   27.4650   15.5000 N.3    84  ILE84      -0.1245
    110  CA        12.5370   27.6000   16.4990 C.3    84  ILE84       0.1561
    111  C         11.9730   27.9490   17.8880 C.2    84  ILE84       0.2260
    112  O         11.2380   28.9360   17.9510 O.2    84  ILE84      -0.2867
    113  CB        13.4760   28.7670   16.1110 C.3    84  ILE84       0.0252
    114  CG1       14.1870   28.4320   14.7940 C.3    84  ILE84       0.0019
    115  CG2       14.3630   29.0610   17.2630 C.3    84  ILE84       0.0019
    116  CD1       14.8390   29.6150   14.0870 C.3    84  ILE84       0.0001
@<TRIPOS>BOND
     1    87    86    2
     2    99    96    1
     3    99   100    1
     4    96    95    1
     5    96    97    1
     6    98    97    2
     7   100   101    1
     8    95   101    1
     9    86    85    1
    10    84    85    1
    11    97   102   am
    12    79    78    2
    13    82    80    1
    14    78    77    1
    15    85    88    1
    16    10     9    1
    17    11     9    1
    18    88    89    1
    19   102   103    1
    20     9     8    2
    21   108   106    1
    22    77    80    1
    23    77    76    1
    24    80    81    1
    25    90    89   ar
    26    90    92   ar
    27    89    91   ar
    28   103   106    1
    29   103   104    1
    30    75    74    2
    31   106   107    1
    32     8     7    1
    33    81    83    1
    34    76    74   am
    35    74    73    1
    36    92    94   ar
    37    63    62    2
    38   104   105    2
    39    91    93   ar
    40     7     6    1
    41    72    73    1
    42    72    70   am
    43    69    70    1
    44    69    68    1
    45    94    93   ar
    46    62    68   am
    47    62    61    1
    48    60    61    1
    49     6     5    1
    50    70    71    2
    51    65    67    1
    52    65    64    1
    53    58    57    1
    54    61    64    1
    55     5     2    1
    56   116   114    1
    57    64    66    1
    58   114   113    1
    59    57    54    1
    60    57    59    1
    61    56    55    2
    62     1     2    1
    63    19    17    1
    64    55    54    1
    65     2     3    1
    66   109   110    1
    67    54    53    1
    68    18    17    1
    69    16    17    1
    70    16    13    1
    71   113   110    1
    72   113   115    1
    73     4     3    2
    74   110   111    1
    75    12    13    1
    76    13    14    1
    77    27    25   ar
    78   111   112    2
    79    25    26   ar
    80    25    24    1
    81    14    15    2
    82    24    21    1
    83    36    33    1
    84    52    50   ar
    85    31    30    2
    86    48    47    2
    87    49    50    1
    88    49    46    1
    89    33    32    1
    90    33    34    1
    91    47    46    1
    92    30    32   am
    93    30    29    1
    94    21    20    1
    95    21    22    1
    96    50    51   ar
    97    29    28    1
    98    46    45    1
    99    45    39   am
   100    37    34   am
   101    37    38    1
   102    34    35    2
   103    22    23    2
   104    44    42   ar
   105    41    42    1
   106    41    38    1
   107    42    43   ar
   108    39    38    1
   109    39    40    2
