@<TRIPOS>MOLECULE
tmp/3tohA00.pdb
 116 109 0 0 0
SMALL
GASTEIGER

@<TRIPOS>ATOM
      1  N         19.3850   17.2680   15.0080 N.3     8  ARG8       -0.1245
      2  CA        18.6730   18.4620   15.4540 C.3     8  ARG8        0.1563
      3  C         17.6780   18.1000   16.5520 C.2     8  ARG8        0.2260
      4  O         16.9530   17.1190   16.4150 O.2     8  ARG8       -0.2867
      5  CB        17.9560   19.0960   14.2650 C.3     8  ARG8        0.0307
      6  CG        18.9030   19.6730   13.2420 C.3     8  ARG8        0.0489
      7  CD        18.1810   20.4640   12.1510 C.3     8  ARG8        0.2205
      8  NE        19.1420   20.9870   11.1780 N.pl3   8  ARG8       -0.0865
      9  CZ        19.0060   20.9220    9.8550 C.cat   8  ARG8        0.5346
     10  NH1       17.9360   20.3600    9.3010 N.pl3   8  ARG8        0.1354
     11  NH2       19.9450   21.4430    9.0820 N.pl3   8  ARG8        0.1354
     12  N         12.4800   23.1940   16.7740 N.3    23  LEU23      -0.1245
     13  CA        13.8450   23.0140   17.2320 C.3    23  LEU23       0.1561
     14  C         14.0380   23.6750   18.5760 C.2    23  LEU23       0.2260
     15  O         13.7830   24.8780   18.7150 O.2    23  LEU23      -0.2867
     16  CB        14.7230   23.6570   16.1610 C.3    23  LEU23       0.0270
     17  CG        16.2320   23.5960   16.2350 C.3    23  LEU23       0.0019
     18  CD1       16.6430   22.1530   16.1020 C.3    23  LEU23       0.0001
     19  CD2       16.7880   24.4690   15.1170 C.3    23  LEU23       0.0001
     20  N         16.2230   25.5910   20.7860 N.3    25  ASP25      -0.1239
     21  CA        17.3650   26.3800   20.3510 C.3    25  ASP25       0.1674
     22  C         17.9100   27.3040   21.4290 C.2    25  ASP25       0.2266
     23  O         17.4040   28.4090   21.6570 O.2    25  ASP25      -0.2867
     24  CB        16.9910   27.1740   19.1200 C.3    25  ASP25       0.1410
     25  CG        18.1790   27.8810   18.5280 C.2    25  ASP25       0.3668
     26  OD1       19.3020   27.7360   19.0830 O.co2  25  ASP25      -0.2456
     27  OD2       18.0060   28.5290   17.4730 O.co2  25  ASP25      -0.2456
     28  N         20.5070   28.9600   21.3160 N.3    27  GLY27      -0.1210
     29  CA        21.0990   30.1340   20.6740 C.3    27  GLY27       0.1956
     30  C         20.0920   31.1490   20.2150 C.2    27  GLY27       0.2612
     31  O         20.4510   32.1200   19.5550 O.2    27  GLY27      -0.2717
     32  N         18.8150   30.9620   20.5080 N.am   28  ALA28      -0.1965
     33  CA        17.7750   31.9170   20.0970 C.3    28  ALA28       0.1728
     34  C         17.2090   32.6430   21.2890 C.2    28  ALA28       0.2616
     35  O         16.7550   32.0180   22.2610 O.2    28  ALA28      -0.2715
     36  CB        16.6470   31.1800   19.3680 C.3    28  ALA28       0.0334
     37  N         17.1960   33.9640   21.2350 N.am   29  ASP29      -0.1957
     38  CA        16.5730   34.7320   22.2900 C.3    29  ASP29       0.1840
     39  C         15.0530   34.5680   22.2740 C.2    29  ASP29       0.2622
     40  O         14.4130   34.5860   23.3200 O.2    29  ASP29      -0.2715
     41  CB        16.8860   36.2200   22.0740 C.3    29  ASP29       0.1450
     42  CG        18.3540   36.5850   22.2490 C.2    29  ASP29       0.3671
     43  OD1       19.1530   35.8170   22.8130 O.co2  29  ASP29      -0.2456
     44  OD2       18.6950   37.7080   21.8170 O.co2  29  ASP29      -0.2456
     45  N         14.5200   34.4410   21.0710 N.am   30  ASP30      -0.1971
     46  CA        13.0920   34.4980   20.7900 C.3    30  ASP30       0.1709
     47  C         12.6300   33.2110   20.1560 C.2    30  ASP30       0.2293
     48  O         13.4330   32.4090   19.6690 O.2    30  ASP30      -0.2864
     49  CB        12.8060   35.6450   19.8130 C.3    30  ASP30       0.1436
     50  CG        13.2480   37.0350   20.3610 C.2    30  ASP30       0.3671
     51  OD1       13.0960   37.2960   21.5670 O.co2  30  ASP30      -0.2456
     52  OD2       13.7410   37.8490   19.5740 O.co2  30  ASP30      -0.2456
     53  N         10.3610   31.5990   17.1590 N.3    32  VAL32      -0.1245
     54  CA        10.0370   32.0160   15.8000 C.3    32  VAL32       0.1561
     55  C          9.3520   30.8360   15.1320 C.2    32  VAL32       0.2260
     56  O          9.9610   29.7680   14.9720 O.2    32  VAL32      -0.2867
     57  CB        11.2800   32.4630   14.9860 C.3    32  VAL32       0.0252
     58  CG1       10.8370   33.0940   13.6810 C.3    32  VAL32       0.0019
     59  CG2       12.1660   33.4300   15.7890 C.3    32  VAL32       0.0019
     60  N         13.8900   40.3920   13.1330 N.3    47  ILE47      -0.1231
     61  CA        14.8500   39.5990   13.9060 C.3    47  ILE47       0.1692
     62  C         15.9350   39.1250   12.9930 C.2    47  ILE47       0.2593
     63  O         15.7280   38.9580   11.7770 O.2    47  ILE47      -0.2718
     64  CB        14.1940   38.4350   14.6360 C.3    47  ILE47       0.0266
     65  CG1       13.4660   37.5530   13.6240 C.3    47  ILE47       0.0019
     66  CG2       13.3560   39.0000   15.7820 C.3    47  ILE47       0.0020
     67  CD1       13.0420   36.1990   14.1340 C.3    47  ILE47       0.0001
     68  N         17.1210   38.9600   13.5520 N.am   48  GLY48      -0.1942
     69  CA        18.2720   38.6400   12.7380 C.3    48  GLY48       0.2014
     70  C         19.0880   37.5050   13.2490 C.2    48  GLY48       0.2639
     71  O         18.9010   36.9910   14.3600 O.2    48  GLY48      -0.2714
     72  N         20.0550   37.1270   12.4230 N.am   49  GLY49      -0.1939
     73  CA        21.1000   36.1810   12.8080 C.3    49  GLY49       0.2014
     74  C         21.9700   36.0030   11.5990 C.2    49  GLY49       0.2638
     75  O         22.1730   36.9330   10.8710 O.2    49  GLY49      -0.2714
     76  N         22.5080   34.7940   11.3940 N.am   50  ILE50      -0.1977
     77  CA        23.3920   34.5790   10.2630 C.3    50  ILE50       0.1596
     78  C         22.5700   34.8050    8.9730 C.2    50  ILE50       0.2287
     79  O         21.4540   34.2700    8.8390 O.2    50  ILE50      -0.2864
     80  CB        24.0870   33.1770   10.3180 C.3    50  ILE50       0.0276
     81  CG1       25.2740   33.2120   11.3090 C.3    50  ILE50       0.0022
     82  CG2       24.5670   32.7490    8.8930 C.3    50  ILE50       0.0022
     83  CD1       25.8630   31.8520   11.6200 C.3    50  ILE50       0.0001
     84  N         18.3440   39.7420    8.3780 N.3    53  PHE53      -0.1241
     85  CA        17.0960   39.9140    9.1290 C.3    53  PHE53       0.1605
     86  C         15.8860   39.4470    8.3270 C.2    53  PHE53       0.2264
     87  O         15.8730   39.4990    7.0850 O.2    53  PHE53      -0.2867
     88  CB        16.8970   41.3720    9.5290 C.3    53  PHE53       0.0534
     89  CG        17.7940   41.8110   10.6550 C.ar   53  PHE53      -0.0203
     90  CD1       19.1370   42.0960   10.4250 C.ar   53  PHE53      -0.0042
     91  CD2       17.2960   41.9450   11.9380 C.ar   53  PHE53      -0.0042
     92  CE1       19.9590   42.5160   11.4700 C.ar   53  PHE53      -0.0003
     93  CE2       18.1050   42.3490   12.9960 C.ar   53  PHE53      -0.0003
     94  CZ        19.4680   42.6340   12.7500 C.ar   53  PHE53      -0.0000
     95  N         12.9850   29.6000    8.1820 N.3    81  PRO81      -0.2102
     96  CA        13.2000   28.2920    7.5700 C.3    81  PRO81       0.1504
     97  C         12.9390   27.0650    8.4690 C.2    81  PRO81       0.2575
     98  O         12.7660   25.9400    7.9900 O.2    81  PRO81      -0.2718
     99  CB        14.6790   28.3220    7.1770 C.3    81  PRO81       0.0282
    100  CG        15.2890   29.4150    7.9010 C.3    81  PRO81       0.0208
    101  CD        14.2300   30.3780    8.3210 C.3    81  PRO81       0.0893
    102  N         12.9270   27.2560    9.7830 N.am   82  VAL82      -0.1980
    103  CA        12.6710   26.1680   10.7640 C.3    82  VAL82       0.1595
    104  C         11.9160   26.7820   11.9560 C.2    82  VAL82       0.2287
    105  O         12.1540   27.9490   12.3100 O.2    82  VAL82      -0.2864
    106  CB        14.0020   25.4950   11.2250 C.3    82  VAL82       0.0276
    107  CG1       13.8010   24.4400   12.3180 C.3    82  VAL82       0.0022
    108  CG2       14.6970   24.8020   10.0700 C.3    82  VAL82       0.0022
    109  N         11.4520   27.5170   15.6600 N.3    84  ILE84      -0.1245
    110  CA        12.4960   27.6650   16.6750 C.3    84  ILE84       0.1561
    111  C         11.8640   27.9830   18.0210 C.2    84  ILE84       0.2260
    112  O         11.1430   28.9800   18.1380 O.2    84  ILE84      -0.2867
    113  CB        13.4170   28.8270   16.2800 C.3    84  ILE84       0.0252
    114  CG1       14.1800   28.4760   15.0010 C.3    84  ILE84       0.0019
    115  CG2       14.3230   29.2270   17.4410 C.3    84  ILE84       0.0019
    116  CD1       14.7280   29.6620   14.2390 C.3    84  ILE84       0.0001
@<TRIPOS>BOND
     1    87    86    2
     2    99    96    1
     3    99   100    1
     4    96    95    1
     5    96    97    1
     6   100   101    1
     7    98    97    2
     8    95   101    1
     9    86    85    1
    10    84    85    1
    11    97   102   am
    12    79    78    2
    13    82    80    1
    14    78    77    1
    15    11     9    1
    16    85    88    1
    17    10     9    1
    18    88    89    1
    19   102   103    1
    20     9     8    2
    21   108   106    1
    22    77    80    1
    23    77    76    1
    24    80    81    1
    25    90    89   ar
    26    90    92   ar
    27    89    91   ar
    28   103   106    1
    29   103   104    1
    30    75    74    2
    31     8     7    1
    32   106   107    1
    33    81    83    1
    34    76    74   am
    35    92    94   ar
    36    74    73    1
    37    63    62    2
    38    91    93   ar
    39   104   105    2
    40     7     6    1
    41    72    73    1
    42    72    70   am
    43    69    70    1
    44    69    68    1
    45    94    93   ar
    46    62    68   am
    47    62    61    1
    48    60    61    1
    49     6     5    1
    50    70    71    2
    51    65    67    1
    52    65    64    1
    53    58    57    1
    54    61    64    1
    55   116   114    1
    56     5     2    1
    57    64    66    1
    58    56    55    2
    59    57    59    1
    60    57    54    1
    61   114   113    1
    62     1     2    1
    63    19    17    1
    64    55    54    1
    65     2     3    1
    66   109   110    1
    67    54    53    1
    68    18    17    1
    69    16    17    1
    70    16    13    1
    71   113   110    1
    72   113   115    1
    73     4     3    2
    74   110   111    1
    75    12    13    1
    76    13    14    1
    77    27    25   ar
    78   111   112    2
    79    25    26   ar
    80    25    24    1
    81    14    15    2
    82    24    21    1
    83    36    33    1
    84    31    30    2
    85    52    50   ar
    86    48    47    2
    87    49    50    1
    88    49    46    1
    89    33    32    1
    90    33    34    1
    91    47    46    1
    92    30    32   am
    93    30    29    1
    94    21    20    1
    95    21    22    1
    96    50    51   ar
    97    29    28    1
    98    46    45    1
    99    45    39   am
   100    37    34   am
   101    37    38    1
   102    34    35    2
   103    22    23    2
   104    44    42   ar
   105    41    42    1
   106    41    38    1
   107    42    43   ar
   108    39    38    1
   109    39    40    2
