@<TRIPOS>MOLECULE
tmp/3topA00.pdb
 243 238 0 0 0
SMALL
GASTEIGER

@<TRIPOS>ATOM
      1  N        -27.0050   29.7180   20.3310 N.3   198  ASP198     -0.1225
      2  CA       -27.8050   30.3920   21.3380 C.3   198  ASP198      0.1805
      3  C        -28.1790   31.7940   20.8450 C.2   198  ASP198      0.2598
      4  O        -27.5470   32.7920   21.2170 O.2   198  ASP198     -0.2718
      5  CB       -27.0390   30.4100   22.6620 C.3   198  ASP198      0.1424
      6  CG       -27.7190   31.2280   23.7410 C.2   198  ASP198      0.3668
      7  OD1      -26.9920   31.7070   24.6330 O.co2 198  ASP198     -0.2456
      8  OD2      -28.9580   31.3990   23.7200 O.co2 198  ASP198     -0.2456
      9  N        -29.2100   31.8390   19.9950 N.am  199  GLN199     -0.1966
     10  CA       -29.7200   33.0710   19.3700 C.3   199  GLN199      0.1718
     11  C        -31.2030   33.2710   19.6540 C.2   199  GLN199      0.2458
     12  O        -32.0340   32.4700   19.2380 O.2   199  GLN199     -0.2730
     13  CB       -29.5450   33.0260   17.8380 C.3   199  GLN199      0.0407
     14  CG       -28.5860   34.0630   17.2720 C.3   199  GLN199      0.0908
     15  CD       -29.0330   35.4560   17.5860 C.2   199  GLN199      0.2608
     16  OE1      -30.2350   35.7130   17.7040 O.2   199  GLN199     -0.2717
     17  NE2      -28.0760   36.3720   17.7450 N.am  199  GLN199     -0.0878
     18  N        -31.5480   34.3390   20.3710 N.am  200  PRO200     -0.2727
     19  CA       -32.9810   34.6200   20.4360 C.3   200  PRO200      0.1402
     20  C        -33.5600   34.7410   19.0230 C.2   200  PRO200      0.2269
     21  O        -32.9530   35.4100   18.1710 O.2   200  PRO200     -0.2865
     22  CB       -33.0420   35.9700   21.1720 C.3   200  PRO200      0.0296
     23  CG       -31.8030   36.0160   21.9850 C.3   200  PRO200      0.0237
     24  CD       -30.7570   35.2060   21.2600 C.3   200  PRO200      0.0939
     25  N        -31.7890   34.7130   11.2630 N.3   205  LYS205     -0.1245
     26  CA       -30.8280   34.3400   12.3110 C.3   205  LYS205      0.1561
     27  C        -30.9460   32.8580   12.6970 C.2   205  LYS205      0.2260
     28  O        -32.0270   32.3930   13.0610 O.2   205  LYS205     -0.2867
     29  CB       -31.0450   35.1890   13.5600 C.3   205  LYS205      0.0271
     30  CG       -30.6060   36.6400   13.4720 C.3   205  LYS205      0.0035
     31  CD       -31.2490   37.4400   14.6030 C.3   205  LYS205      0.0206
     32  CE       -30.5540   38.7690   14.8910 C.3   205  LYS205      0.1093
     33  NZ       -31.0310   39.3120   16.1990 N.3   205  LYS205     -0.1314
     34  N        -36.9910   33.5950   35.4650 N.3   292  TYR292     -0.1241
     35  CA       -35.5780   33.6830   35.7440 C.3   292  TYR292      0.1605
     36  C        -35.4510   34.7710   36.8080 C.2   292  TYR292      0.2264
     37  O        -35.7500   35.9400   36.5550 O.2   292  TYR292     -0.2867
     38  CB       -34.8330   34.0470   34.4510 C.3   292  TYR292      0.0534
     39  CG       -33.3220   34.1280   34.5560 C.ar  292  TYR292     -0.0201
     40  CD1      -32.6170   35.0390   33.7950 C.ar  292  TYR292     -0.0009
     41  CD2      -32.6010   33.2890   35.3970 C.ar  292  TYR292     -0.0009
     42  CE1      -31.2410   35.1310   33.8710 C.ar  292  TYR292      0.0417
     43  CE2      -31.2120   33.3720   35.4740 C.ar  292  TYR292      0.0417
     44  CZ       -30.5440   34.2970   34.7010 C.ar  292  TYR292      0.1957
     45  OH       -29.1710   34.4050   34.7350 O.3   292  TYR292     -0.2866
     46  N        -35.9580   28.4480   38.0630 N.3   320  ASP320     -0.1225
     47  CA       -34.8550   28.5720   37.1130 C.3   320  ASP320      0.1805
     48  C        -33.5480   28.2430   37.8260 C.2   320  ASP320      0.2597
     49  O        -33.5680   27.6920   38.9240 O.2   320  ASP320     -0.2718
     50  CB       -34.8240   29.9760   36.5020 C.3   320  ASP320      0.1424
     51  CG       -34.3190   29.9800   35.0700 C.2   320  ASP320      0.3668
     52  OD1      -33.5070   29.1000   34.7280 O.co2 320  ASP320     -0.2456
     53  OD2      -34.7280   30.8660   34.2930 O.co2 320  ASP320     -0.2456
     54  N        -32.4140   28.5860   37.2270 N.am  321  ILE321     -0.1980
     55  CA       -31.1200   28.2410   37.8150 C.3   321  ILE321      0.1595
     56  C        -30.8800   28.8860   39.1730 C.2   321  ILE321      0.2287
     57  O        -29.8580   28.6480   39.8200 O.2   321  ILE321     -0.2864
     58  CB       -29.9560   28.6070   36.8960 C.3   321  ILE321      0.0276
     59  CG1      -30.1590   30.0080   36.3080 C.3   321  ILE321      0.0022
     60  CG2      -29.7950   27.5530   35.8230 C.3   321  ILE321      0.0022
     61  CD1      -29.1220   30.3920   35.2710 C.3   321  ILE321      0.0001
     62  N        -34.6960   22.9170   35.8290 N.3   356  ILE356     -0.1245
     63  CA       -33.8020   23.1520   34.7110 C.3   356  ILE356      0.1561
     64  C        -32.4380   22.5270   34.9490 C.2   356  ILE356      0.2260
     65  O        -32.0110   22.3610   36.0810 O.2   356  ILE356     -0.2867
     66  CB       -33.6160   24.6600   34.4640 C.3   356  ILE356      0.0252
     67  CG1      -32.8710   24.8970   33.1510 C.3   356  ILE356      0.0019
     68  CG2      -32.8700   25.3030   35.6190 C.3   356  ILE356      0.0019
     69  CD1      -32.7610   26.3560   32.7560 C.3   356  ILE356      0.0001
     70  N        -28.3780   22.6720   32.9830 N.3   358  ASP358     -0.1239
     71  CA       -27.5500   23.0780   31.8770 C.3   358  ASP358      0.1674
     72  C        -26.5970   21.9110   31.6880 C.2   358  ASP358      0.2266
     73  O        -26.5050   21.0440   32.5600 O.2   358  ASP358     -0.2867
     74  CB       -26.8170   24.3870   32.1790 C.3   358  ASP358      0.1410
     75  CG       -27.7750   25.5550   32.5010 C.2   358  ASP358      0.3668
     76  OD1      -28.8520   25.6940   31.8620 O.co2 358  ASP358     -0.2456
     77  OD2      -27.4400   26.3480   33.4090 O.co2 358  ASP358     -0.2456
     78  N        -22.9960   29.8750   32.9560 N.3   396  TRP396     -0.1241
     79  CA       -23.6800   30.4940   34.0910 C.3   396  TRP396      0.1605
     80  C        -22.9210   30.3760   35.4260 C.2   396  TRP396      0.2264
     81  O        -22.8540   31.3400   36.1990 O.2   396  TRP396     -0.2867
     82  CB       -25.0780   29.9060   34.2770 C.3   396  TRP396      0.0550
     83  CG       -26.0580   30.1350   33.1690 C.ar  396  TRP396      0.0003
     84  CD1      -26.7970   29.1820   32.5360 C.ar  396  TRP396      0.0946
     85  CD2      -26.4330   31.3870   32.5810 C.ar  396  TRP396      0.0152
     86  NE1      -27.5940   29.7540   31.5850 N.ar  396  TRP396     -0.2442
     87  CE2      -27.3910   31.1090   31.5920 C.ar  396  TRP396      0.0810
     88  CE3      -26.0400   32.7130   32.7850 C.ar  396  TRP396      0.0012
     89  CZ2      -27.9670   32.1090   30.8090 C.ar  396  TRP396      0.0191
     90  CZ3      -26.6210   33.7040   32.0130 C.ar  396  TRP396      0.0001
     91  CH2      -27.5700   33.3960   31.0360 C.ar  396  TRP396      0.0015
     92  N        -21.8190   43.0900   30.5370 N.3   410  TRP410     -0.1241
     93  CA       -22.0590   41.6640   30.3690 C.3   410  TRP410      0.1605
     94  C        -20.7480   40.9570   30.0260 C.2   410  TRP410      0.2264
     95  O        -20.5160   39.8210   30.4540 O.2   410  TRP410     -0.2867
     96  CB       -23.1290   41.3960   29.3110 C.3   410  TRP410      0.0550
     97  CG       -23.5700   39.9530   29.2560 C.ar  410  TRP410      0.0003
     98  CD1      -24.6010   39.3790   29.9500 C.ar  410  TRP410      0.0946
     99  CD2      -22.9920   38.9080   28.4630 C.ar  410  TRP410      0.0152
    100  NE1      -24.7000   38.0420   29.6360 N.ar  410  TRP410     -0.2442
    101  CE2      -23.7240   37.7300   28.7250 C.ar  410  TRP410      0.0810
    102  CE3      -21.9230   38.8540   27.5570 C.ar  410  TRP410      0.0012
    103  CZ2      -23.4220   36.5130   28.1150 C.ar  410  TRP410      0.0191
    104  CZ3      -21.6260   37.6440   26.9470 C.ar  410  TRP410      0.0001
    105  CH2      -22.3730   36.4910   27.2300 C.ar  410  TRP410      0.0015
    106  N        -36.0260   20.0920   32.3680 N.3   459  TRP459     -0.1241
    107  CA       -35.9250   21.0840   31.3240 C.3   459  TRP459      0.1605
    108  C        -34.4420   21.2730   30.9800 C.2   459  TRP459      0.2264
    109  O        -33.7870   22.1510   31.5180 O.2   459  TRP459     -0.2867
    110  CB       -36.5560   22.3660   31.8610 C.3   459  TRP459      0.0550
    111  CG       -36.3310   23.6220   31.0850 C.ar  459  TRP459      0.0003
    112  CD1      -36.0020   23.7330   29.7730 C.ar  459  TRP459      0.0946
    113  CD2      -36.4290   24.9610   31.5920 C.ar  459  TRP459      0.0152
    114  NE1      -35.8880   25.0590   29.4260 N.ar  459  TRP459     -0.2442
    115  CE2      -36.1430   25.8300   30.5270 C.ar  459  TRP459      0.0810
    116  CE3      -36.7360   25.5050   32.8450 C.ar  459  TRP459      0.0012
    117  CZ2      -36.1500   27.2090   30.6720 C.ar  459  TRP459      0.0191
    118  CZ3      -36.7400   26.8700   32.9880 C.ar  459  TRP459      0.0001
    119  CH2      -36.4510   27.7100   31.9090 C.ar  459  TRP459      0.0015
    120  N        -31.5130   22.6950   28.8970 N.3   461  ASP461     -0.1225
    121  CA       -31.4360   23.9360   28.1400 C.3   461  ASP461      0.1805
    122  C        -29.9900   24.3660   27.9630 C.2   461  ASP461      0.2597
    123  O        -29.0780   23.7390   28.5100 O.2   461  ASP461     -0.2718
    124  CB       -32.2650   25.0220   28.8390 C.3   461  ASP461      0.1424
    125  CG       -31.6110   26.3960   28.8030 C.2   461  ASP461      0.3668
    126  OD1      -30.9490   26.7780   29.7940 O.co2 461  ASP461     -0.2456
    127  OD2      -31.7750   27.1000   27.7900 O.co2 461  ASP461     -0.2456
    128  N        -29.7830   25.4150   27.1780 N.am  462  MET462     -0.1979
    129  CA       -28.4600   25.9870   27.0080 C.3   462  MET462      0.1605
    130  C        -27.5510   24.9810   26.3100 C.2   462  MET462      0.2287
    131  O        -26.3280   25.1230   26.2960 O.2   462  MET462     -0.2864
    132  CB       -27.8970   26.3660   28.3700 C.3   462  MET462      0.0413
    133  CG       -27.0110   27.5870   28.3620 C.3   462  MET462      0.0598
    134  SD       -27.9790   29.0350   27.9630 S.3   462  MET462     -0.1393
    135  CE       -29.3080   28.8870   29.1430 C.3   462  MET462      0.0692
    136  N        -20.3510   31.3180   26.4500 N.3   468  PHE468     -0.1241
    137  CA       -20.2110   32.7790   26.4140 C.3   468  PHE468      0.1605
    138  C        -18.8100   33.2200   26.0220 C.2   468  PHE468      0.2264
    139  O        -18.4670   34.3920   26.1460 O.2   468  PHE468     -0.2867
    140  CB       -20.5560   33.4080   27.7590 C.3   468  PHE468      0.0534
    141  CG       -21.9800   33.1720   28.2130 C.ar  468  PHE468     -0.0203
    142  CD1      -22.9240   32.6750   27.3620 C.ar  468  PHE468     -0.0042
    143  CD2      -22.3610   33.4800   29.5060 C.ar  468  PHE468     -0.0042
    144  CE1      -24.2200   32.4790   27.7930 C.ar  468  PHE468     -0.0003
    145  CE2      -23.6500   33.2860   29.9310 C.ar  468  PHE468     -0.0003
    146  CZ       -24.5770   32.7860   29.0730 C.ar  468  PHE468     -0.0000
    147  N        -19.9460   31.6870   19.9340 N.3   501  LYS501     -0.1245
    148  CA       -20.9030   31.3040   20.9740 C.3   501  LYS501      0.1561
    149  C        -21.0550   29.7980   21.1970 C.2   501  LYS501      0.2260
    150  O        -22.1580   29.3200   21.4390 O.2   501  LYS501     -0.2867
    151  CB       -22.2740   31.9560   20.7320 C.3   501  LYS501      0.0271
    152  CG       -22.3580   33.4190   21.1770 C.3   501  LYS501      0.0035
    153  CD       -23.7500   33.7670   21.7300 C.3   501  LYS501      0.0206
    154  CE       -24.5790   34.6030   20.7530 C.3   501  LYS501      0.1093
    155  NZ       -25.1920   35.8210   21.3820 N.3   501  LYS501     -0.1314
    156  N        -34.0070   22.6030   24.4140 N.3   551  ARG551     -0.1245
    157  CA       -33.8560   23.7560   23.5350 C.3   551  ARG551      0.1563
    158  C        -33.3340   23.3890   22.1320 C.2   551  ARG551      0.2260
    159  O        -33.9860   23.6810   21.1300 O.2   551  ARG551     -0.2867
    160  CB       -32.9840   24.8240   24.1950 C.3   551  ARG551      0.0307
    161  CG       -33.1650   26.1800   23.5780 C.3   551  ARG551      0.0489
    162  CD       -32.6850   27.2620   24.4850 C.3   551  ARG551      0.2205
    163  NE       -31.2570   27.4800   24.3550 N.pl3 551  ARG551     -0.0865
    164  CZ       -30.6370   28.5610   24.8150 C.cat 551  ARG551      0.5346
    165  NH1      -31.3410   29.5070   25.4260 N.pl3 551  ARG551      0.1354
    166  NH2      -29.3220   28.7050   24.6570 N.pl3 551  ARG551      0.1354
    167  N        -39.6900   24.3360   23.4930 N.3   564  TRP564     -0.1241
    168  CA       -40.3230   25.6220   23.7030 C.3   564  TRP564      0.1605
    169  C        -39.5320   26.5090   22.7710 C.2   564  TRP564      0.2264
    170  O        -38.3840   26.2100   22.4720 O.2   564  TRP564     -0.2867
    171  CB       -40.2540   26.0570   25.2010 C.3   564  TRP564      0.0550
    172  CG       -39.0570   26.8960   25.5850 C.ar  564  TRP564      0.0003
    173  CD1      -38.9970   28.2660   25.6730 C.ar  564  TRP564      0.0946
    174  CD2      -37.7550   26.4210   25.9200 C.ar  564  TRP564      0.0152
    175  NE1      -37.7320   28.6630   26.0420 N.ar  564  TRP564     -0.2442
    176  CE2      -36.9520   27.5460   26.1910 C.ar  564  TRP564      0.0810
    177  CE3      -37.1860   25.1570   26.0100 C.ar  564  TRP564      0.0012
    178  CZ2      -35.6230   27.4330   26.5380 C.ar  564  TRP564      0.0191
    179  CZ3      -35.8700   25.0520   26.3450 C.ar  564  TRP564      0.0001
    180  CH2      -35.1000   26.1780   26.6080 C.ar  564  TRP564      0.0015
    181  N        -36.0700   32.3030   23.5110 N.3   567  ASP567     -0.1239
    182  CA       -36.0050   33.6710   24.0370 C.3   567  ASP567      0.1674
    183  C        -36.7390   34.7510   23.2270 C.2   567  ASP567      0.2266
    184  O        -36.1170   35.6940   22.7020 O.2   567  ASP567     -0.2867
    185  CB       -34.5410   34.0660   24.2540 C.3   567  ASP567      0.1410
    186  CG       -33.8260   33.1240   25.2220 C.2   567  ASP567      0.3668
    187  OD1      -34.5250   32.5500   26.0850 O.co2 567  ASP567     -0.2456
    188  OD2      -32.5870   32.9420   25.1060 O.co2 567  ASP567     -0.2456
    189  N        -39.3560   38.0510   22.8670 N.3   569  THR569     -0.1218
    190  CA       -39.4130   39.3120   23.5940 C.3   569  THR569      0.1862
    191  C        -40.8720   39.6810   23.7880 C.2   569  THR569      0.2287
    192  O        -41.7240   39.2370   23.0260 O.2   569  THR569     -0.2866
    193  CB       -38.6670   40.4460   22.8510 C.3   569  THR569      0.1770
    194  OG1      -37.2590   40.3500   23.1100 O.3   569  THR569     -0.2211
    195  CG2      -39.1440   41.8060   23.3190 C.3   569  THR569      0.0375
    196  N        -40.5640   36.4000   27.2050 N.3   600  PHE600     -0.1227
    197  CA       -39.3650   36.2970   28.0130 C.3   600  PHE600      0.1736
    198  C        -38.6910   37.6590   28.1860 C.2   600  PHE600      0.2595
    199  O        -38.9420   38.3680   29.1620 O.2   600  PHE600     -0.2718
    200  CB       -38.4200   35.2820   27.3820 C.3   600  PHE600      0.0547
    201  CG       -37.2220   34.9750   28.2080 C.ar  600  PHE600     -0.0202
    202  CD1      -37.2570   33.9590   29.1360 C.ar  600  PHE600     -0.0042
    203  CD2      -36.0560   35.6960   28.0520 C.ar  600  PHE600     -0.0042
    204  CE1      -36.1480   33.6660   29.8970 C.ar  600  PHE600     -0.0003
    205  CE2      -34.9400   35.4050   28.8010 C.ar  600  PHE600     -0.0003
    206  CZ       -34.9850   34.3920   29.7300 C.ar  600  PHE600     -0.0000
    207  N        -37.8530   38.0250   27.2260 N.am  601  PHE601     -0.1962
    208  CA       -37.1190   39.2830   27.2720 C.3   601  PHE601      0.1771
    209  C        -38.0360   40.4890   27.3850 C.2   601  PHE601      0.2619
    210  O        -39.0430   40.5900   26.6900 O.2   601  PHE601     -0.2715
    211  CB       -36.2430   39.4450   26.0300 C.3   601  PHE601      0.0574
    212  CG       -35.0310   38.5660   26.0180 C.ar  601  PHE601     -0.0200
    213  CD1      -34.1190   38.6120   27.0510 C.ar  601  PHE601     -0.0042
    214  CD2      -34.7950   37.7050   24.9660 C.ar  601  PHE601     -0.0042
    215  CE1      -32.9990   37.8130   27.0340 C.ar  601  PHE601     -0.0003
    216  CE2      -33.6780   36.9100   24.9490 C.ar  601  PHE601     -0.0003
    217  CZ       -32.7790   36.9640   25.9820 C.ar  601  PHE601     -0.0000
    218  N        -37.6690   41.4060   28.2680 N.am  602  GLN602     -0.1977
    219  CA       -38.3850   42.6680   28.4220 C.3   602  GLN602      0.1601
    220  C        -39.6630   42.6130   29.2750 C.2   602  GLN602      0.2287
    221  O        -40.2050   41.5310   29.5870 O.2   602  GLN602     -0.2864
    222  CB       -38.6370   43.3150   27.0610 C.3   602  GLN602      0.0394
    223  CG       -37.3770   43.9370   26.4750 C.3   602  GLN602      0.0908
    224  CD       -37.5840   44.4400   25.0600 C.2   602  GLN602      0.2608
    225  OE1      -38.7160   44.5440   24.5800 O.2   602  GLN602     -0.2717
    226  NE2      -36.4890   44.7530   24.3800 N.am  602  GLN602     -0.0878
    227  N        -43.2270   32.1850   31.1730 N.3   625  HIS625     -0.1241
    228  CA       -41.8350   32.2610   31.5910 C.3   625  HIS625      0.1621
    229  C        -41.3030   33.6310   31.2190 C.2   625  HIS625      0.2264
    230  O        -41.9050   34.3230   30.4100 O.2   625  HIS625     -0.2867
    231  CB       -41.0190   31.1460   30.9310 C.3   625  HIS625      0.0745
    232  CG       -39.5630   31.1680   31.2700 C.ar  625  HIS625      0.0817
    233  ND1      -39.0870   31.5790   32.4960 N.ar  625  HIS625     -0.2268
    234  CD2      -38.4760   30.8060   30.5500 C.ar  625  HIS625      0.1154
    235  CE1      -37.7700   31.4880   32.5080 C.ar  625  HIS625      0.1986
    236  NE2      -37.3740   31.0190   31.3390 N.ar  625  HIS625     -0.2212
    237  N        -37.6090   36.5140   31.6440 N.3   627  THR627     -0.1218
    238  CA       -36.1950   36.7140   31.9560 C.3   627  THR627      0.1862
    239  C        -35.9880   37.3590   33.3250 C.2   627  THR627      0.2287
    240  O        -36.9440   37.5970   34.0550 O.2   627  THR627     -0.2866
    241  CB       -35.5050   37.5510   30.8840 C.3   627  THR627      0.1770
    242  OG1      -34.1040   37.6300   31.1640 O.3   627  THR627     -0.2211
    243  CG2      -36.0950   38.9390   30.8280 C.3   627  THR627      0.0375
@<TRIPOS>BOND
     1    25    26    1
     2    26    27    1
     3    26    29    1
     4    27    28    2
     5    30    29    1
     6    30    31    1
     7    31    32    1
     8    32    33    1
     9    14    15    1
    10    14    13    1
    11    15    16    2
    12    15    17   am
    13    13    10    1
    14    21    20    2
    15    20    19    1
    16    12    11    2
    17    10    11    1
    18    10     9    1
    19    11    18   am
    20   147   148    1
    21     9     3   am
    22     1     2    1
    23    18    19    1
    24    18    24    1
    25    19    22    1
    26   151   148    1
    27   151   152    1
    28   154   155    1
    29   154   153    1
    30     3     4    2
    31     3     2    1
    32   148   149    1
    33   159   158    2
    34    22    23    1
    35   152   153    1
    36   149   150    2
    37    24    23    1
    38     2     5    1
    39   158   157    1
    40   170   169    2
    41     5     6    1
    42   184   183    2
    43   169   168    1
    44   193   194    1
    45   193   195    1
    46   193   190    1
    47   189   190    1
    48   192   191    2
    49   183   182    1
    50   167   168    1
    51   181   182    1
    52   157   160    1
    53   157   156    1
    54   161   160    1
    55   161   162    1
    56   190   191    1
    57   168   171    1
    58     8     6   ar
    59     6     7   ar
    60   182   185    1
    61   185   186    1
    62   163   162    1
    63   163   164    2
    64   226   224   am
    65   225   224    2
    66   166   164    1
    67   164   165    1
    68   216   214   ar
    69   216   217   ar
    70   214   212   ar
    71   224   223    1
    72   188   186   ar
    73   171   172    1
    74   186   187   ar
    75   172   173   ar
    76   172   174   ar
    77   173   175   ar
    78   174   177   ar
    79   174   176   ar
    80   217   215   ar
    81   177   179   ar
    82   212   211    1
    83   212   213   ar
    84   138   139    2
    85   138   137    1
    86   211   208    1
    87   175   176   ar
    88   176   178   ar
    89   131   130    2
    90   130   129    1
    91   179   180   ar
    92   137   136    1
    93   137   140    1
    94   223   222    1
    95   178   180   ar
    96   210   209    2
    97   104   105   ar
    98   104   102   ar
    99   129   128    1
   100   129   132    1
   101   215   213   ar
   102   222   219    1
   103   128   122   am
   104   196   197    1
   105   207   208    1
   106   207   198   am
   107   105   103   ar
   108   208   209    1
   109   142   144   ar
   110   142   141   ar
   111   200   197    1
   112   200   201    1
   113   209   218   am
   114   102    99   ar
   115   140   141    1
   116   127   125   ar
   117   144   146   ar
   118   134   133    1
   119   134   135    1
   120   122   121    1
   121   122   123    2
   122   197   198    1
   123   203   201   ar
   124   203   205   ar
   125   103   101   ar
   126   121   124    1
   127   121   120    1
   128   198   199    2
   129   201   202   ar
   130   141   143   ar
   131   218   219    1
   132   133   132    1
   133   219   220    1
   134    99   101   ar
   135    99    97   ar
   136   101   100   ar
   137   205   206   ar
   138   125   124    1
   139   125   126   ar
   140   146   145   ar
   141   202   204   ar
   142    97    96    1
   143    97    98   ar
   144   220   221    2
   145    96    93    1
   146   114   112   ar
   147   114   115   ar
   148   143   145   ar
   149   100    98   ar
   150   206   204   ar
   151   112   111   ar
   152    94    93    1
   153    94    95    2
   154    93    92    1
   155   230   229    2
   156   115   117   ar
   157   115   113   ar
   158   234   232   ar
   159   234   236   ar
   160   117   119   ar
   161    89    91   ar
   162    89    87   ar
   163   243   241    1
   164   241   242    1
   165   241   238    1
   166   231   232    1
   167   231   228    1
   168   108   107    1
   169   108   109    2
   170    91    90   ar
   171   111   113   ar
   172   111   110    1
   173   227   228    1
   174   229   228    1
   175   232   233   ar
   176   107   110    1
   177   107   106    1
   178   236   235   ar
   179    86    87   ar
   180    86    84   ar
   181   113   116   ar
   182    87    85   ar
   183   237   238    1
   184    72    71    1
   185    72    73    2
   186    76    75   ar
   187    71    74    1
   188    71    70    1
   189   119   118   ar
   190   238   239    1
   191    90    88   ar
   192    74    75    1
   193   233   235   ar
   194    75    77   ar
   195    84    83   ar
   196    85    88   ar
   197    85    83   ar
   198    69    67    1
   199   116   118   ar
   200    78    79    1
   201    67    66    1
   202    83    82    1
   203   239   240    2
   204    40    42   ar
   205    40    39   ar
   206    42    44   ar
   207    79    82    1
   208    79    80    1
   209    53    51   ar
   210    38    39    1
   211    38    35    1
   212    66    63    1
   213    66    68    1
   214    39    41   ar
   215    44    45    1
   216    44    43   ar
   217    63    64    1
   218    63    62    1
   219    52    51   ar
   220    64    65    2
   221    51    50    1
   222    61    59    1
   223    41    43   ar
   224    80    81    2
   225    34    35    1
   226    35    36    1
   227    60    58    1
   228    59    58    1
   229    50    47    1
   230    37    36    2
   231    58    55    1
   232    47    48    1
   233    47    46    1
   234    54    55    1
   235    54    48   am
   236    55    56    1
   237    48    49    2
   238    56    57    2
