@<TRIPOS>MOLECULE
tmp/3tosB01.pdb
 125 119 0 0 0
SMALL
GASTEIGER

@<TRIPOS>ATOM
      1  N         -2.8470  -23.8340  -59.2770 N.3    51  HIS51      -0.1241
      2  CA        -1.4670  -23.3620  -59.2700 C.3    51  HIS51       0.1621
      3  C         -1.4180  -21.8150  -59.3420 C.2    51  HIS51       0.2264
      4  O         -0.6060  -21.1520  -58.6400 O.2    51  HIS51      -0.2867
      5  CB        -0.6820  -23.9310  -60.4740 C.3    51  HIS51       0.0745
      6  CG         0.7180  -23.4200  -60.5420 C.ar   51  HIS51       0.0817
      7  ND1        1.6940  -23.8580  -59.6650 N.ar   51  HIS51      -0.2268
      8  CD2        1.2940  -22.4620  -61.3200 C.ar   51  HIS51       0.1154
      9  CE1        2.8270  -23.2430  -59.9430 C.ar   51  HIS51       0.1986
     10  NE2        2.6070  -22.3720  -60.9210 N.ar   51  HIS51      -0.2212
     11  N          7.7940  -10.0480  -66.9750 N.3    76  ARG76      -0.1245
     12  CA         7.2130  -10.8320  -68.0930 C.3    76  ARG76       0.1563
     13  C          5.8900  -10.2410  -68.5840 C.2    76  ARG76       0.2260
     14  O          5.9000   -9.0680  -69.0010 O.2    76  ARG76      -0.2867
     15  CB         7.0940  -12.3430  -67.7760 C.3    76  ARG76       0.0307
     16  CG         7.0720  -13.2350  -69.0650 C.3    76  ARG76       0.0489
     17  CD         6.7920  -14.6550  -68.6490 C.3    76  ARG76       0.2205
     18  NE         6.6690  -15.5280  -69.8050 N.pl3  76  ARG76      -0.0865
     19  CZ         6.4320  -16.8490  -69.7510 C.cat  76  ARG76       0.5346
     20  NH1        6.2070  -17.4580  -68.6050 N.pl3  76  ARG76       0.1354
     21  NH2        6.3130  -17.5740  -70.8810 N.pl3  76  ARG76       0.1354
     22  N          1.8200  -10.7050  -64.6060 N.3    79  ARG79      -0.1245
     23  CA         0.9380  -11.3920  -63.6550 C.3    79  ARG79       0.1563
     24  C          0.8980  -10.7550  -62.2720 C.2    79  ARG79       0.2260
     25  O         -0.1720  -10.4930  -61.7030 O.2    79  ARG79      -0.2867
     26  CB         1.4470  -12.8290  -63.4730 C.3    79  ARG79       0.0307
     27  CG         0.6000  -13.5900  -62.4180 C.3    79  ARG79       0.0489
     28  CD         0.9540  -15.0930  -62.2850 C.3    79  ARG79       0.2205
     29  NE         2.3830  -15.2820  -61.9960 N.pl3  79  ARG79      -0.0865
     30  CZ         2.9430  -16.4290  -61.6000 C.cat  79  ARG79       0.5346
     31  NH1        2.1900  -17.5100  -61.3780 N.pl3  79  ARG79       0.1354
     32  NH2        4.2630  -16.4670  -61.3330 N.pl3  79  ARG79       0.1354
     33  N         16.4540  -23.8280  -70.2820 N.3   121  THR121     -0.1218
     34  CA        15.8800  -22.5250  -70.6740 C.3   121  THR121      0.1862
     35  C         16.7070  -21.3240  -70.2590 C.2   121  THR121      0.2287
     36  O         16.2780  -20.1690  -70.4080 O.2   121  THR121     -0.2866
     37  CB        14.4170  -22.3370  -70.2140 C.3   121  THR121      0.1770
     38  OG1       14.3590  -22.4800  -68.7950 O.3   121  THR121     -0.2211
     39  CG2       13.5170  -23.3580  -70.8890 C.3   121  THR121      0.0375
     40  N         15.1420  -15.8090  -73.4710 N.3   126  ARG126     -0.1231
     41  CA        14.1130  -16.6250  -72.8420 C.3   126  ARG126      0.1694
     42  C         13.1940  -15.6970  -72.0670 C.2   126  ARG126      0.2592
     43  O         13.6820  -14.7670  -71.4130 O.2   126  ARG126     -0.2718
     44  CB        14.7110  -17.6790  -71.8990 C.3   126  ARG126      0.0321
     45  CG        13.6340  -18.4750  -71.1750 C.3   126  ARG126      0.0489
     46  CD        12.9870  -19.4880  -72.2180 C.3   126  ARG126      0.2205
     47  NE        11.8970  -20.3090  -71.6840 N.pl3 126  ARG126     -0.0865
     48  CZ        11.3210  -21.3210  -72.3310 C.cat 126  ARG126      0.5346
     49  NH1       11.7240  -21.6920  -73.5420 N.pl3 126  ARG126      0.1354
     50  NH2       10.3460  -22.0090  -71.7490 N.pl3 126  ARG126      0.1354
     51  N         11.8710  -15.9250  -72.1730 N.am  127  PHE127     -0.1976
     52  CA        10.8650  -15.1020  -71.5260 C.3   127  PHE127      0.1639
     53  C         10.5590  -13.7590  -72.2180 C.2   127  PHE127      0.2290
     54  O          9.8340  -12.9270  -71.6440 O.2   127  PHE127     -0.2864
     55  CB        11.0650  -14.8570  -70.0150 C.3   127  PHE127      0.0560
     56  CG        11.1100  -16.0870  -69.1660 C.ar  127  PHE127     -0.0200
     57  CD1       10.0250  -16.9380  -69.0670 C.ar  127  PHE127     -0.0042
     58  CD2       12.2260  -16.3330  -68.3920 C.ar  127  PHE127     -0.0042
     59  CE1       10.0790  -18.0810  -68.2760 C.ar  127  PHE127     -0.0003
     60  CE2       12.2980  -17.4550  -67.5860 C.ar  127  PHE127     -0.0003
     61  CZ        11.1980  -18.3380  -67.5160 C.ar  127  PHE127     -0.0000
     62  N         12.2230  -11.8400  -59.1110 N.3   186  ASP186     -0.1239
     63  CA        11.8240  -12.8920  -60.0450 C.3   186  ASP186      0.1674
     64  C         12.6000  -12.7900  -61.3550 C.2   186  ASP186      0.2266
     65  O         12.0400  -12.9260  -62.4680 O.2   186  ASP186     -0.2867
     66  CB        10.3140  -12.8340  -60.3370 C.3   186  ASP186      0.1410
     67  CG         9.7750  -14.1390  -60.8950 C.2   186  ASP186      0.3668
     68  OD1       10.5450  -15.1040  -60.9990 O.co2 186  ASP186     -0.2456
     69  OD2        8.5620  -14.1850  -61.2260 O.co2 186  ASP186     -0.2456
     70  N         15.3970  -14.7660  -61.8540 N.3   188  ASP188     -0.1239
     71  CA        16.0240  -16.1180  -62.0470 C.3   188  ASP188      0.1674
     72  C         17.5450  -16.1570  -61.9940 C.2   188  ASP188      0.2266
     73  O         18.1090  -17.0910  -61.4590 O.2   188  ASP188     -0.2867
     74  CB        15.5270  -16.8280  -63.3310 C.3   188  ASP188      0.1410
     75  CG        14.0280  -17.0360  -63.3080 C.2   188  ASP188      0.3668
     76  OD1       13.5180  -17.5340  -62.2680 O.co2 188  ASP188     -0.2456
     77  OD2       13.3300  -16.6690  -64.2990 O.co2 188  ASP188     -0.2456
     78  N         11.4650  -15.7180  -55.8930 N.3   213  ASP213     -0.1225
     79  CA        10.5750  -16.6570  -56.5970 C.3   213  ASP213      0.1805
     80  C         11.1860  -18.0380  -56.8010 C.2   213  ASP213      0.2597
     81  O         10.4550  -18.9980  -56.9510 O.2   213  ASP213     -0.2718
     82  CB        10.1490  -16.0470  -57.9680 C.3   213  ASP213      0.1424
     83  CG         8.9260  -16.7060  -58.5480 C.2   213  ASP213      0.3668
     84  OD1        9.0700  -17.5440  -59.4530 O.co2 213  ASP213     -0.2456
     85  OD2        7.8110  -16.3240  -58.1390 O.co2 213  ASP213     -0.2456
     86  N         12.5280  -18.1130  -56.7880 N.am  214  GLU214     -0.1979
     87  CA        13.2320  -19.4110  -57.1120 C.3   214  GLU214      0.1602
     88  C         14.4720  -19.6520  -56.2340 C.2   214  GLU214      0.2287
     89  O         15.4200  -20.2790  -56.6900 O.2   214  GLU214     -0.2864
     90  CB        13.6210  -19.4810  -58.6120 C.3   214  GLU214      0.0415
     91  CG        12.4070  -19.3670  -59.5760 C.3   214  GLU214      0.1163
     92  CD        11.5190  -20.6010  -59.5990 C.2   214  GLU214      0.3649
     93  OE1       11.8330  -21.5320  -58.8630 O.co2 214  GLU214     -0.2457
     94  OE2       10.5200  -20.6350  -60.3620 O.co2 214  GLU214     -0.2457
     95  N         15.4630  -23.4150  -55.8950 N.3   217  ASN217     -0.1240
     96  CA        15.1360  -24.2590  -57.0470 C.3   217  ASN217      0.1653
     97  C         16.4060  -24.7480  -57.7780 C.2   217  ASN217      0.2266
     98  O         17.2110  -23.9370  -58.2470 O.2   217  ASN217     -0.2867
     99  CB        14.2370  -23.4460  -57.9800 C.3   217  ASN217      0.1155
    100  CG        13.7310  -24.2570  -59.1880 C.2   217  ASN217      0.2627
    101  OD1       14.3160  -25.2620  -59.5650 O.2   217  ASN217     -0.2716
    102  ND2       12.6630  -23.8250  -59.7840 N.am  217  ASN217     -0.0877
    103  N         16.8940  -25.6880  -60.6560 N.3   219  LYS219     -0.1231
    104  CA        16.9980  -25.1990  -62.0180 C.3   219  LYS219      0.1693
    105  C         17.5920  -23.7680  -62.0680 C.2   219  LYS219      0.2592
    106  O         18.1620  -23.3690  -63.0760 O.2   219  LYS219     -0.2718
    107  CB        15.6090  -25.1960  -62.6600 C.3   219  LYS219      0.0285
    108  CG        15.6440  -24.8780  -64.1310 C.3   219  LYS219      0.0035
    109  CD        14.1710  -24.8000  -64.6030 C.3   219  LYS219      0.0206
    110  CE        13.9930  -25.2830  -65.9390 C.3   219  LYS219      0.1093
    111  NZ        12.5210  -25.2220  -66.2620 N.3   219  LYS219     -0.1314
    112  N         17.4610  -23.0140  -60.9540 N.am  220  TRP220     -0.1976
    113  CA        17.8310  -21.5850  -60.9710 C.3   220  TRP220      0.1640
    114  C         18.5400  -21.2320  -59.6850 C.2   220  TRP220      0.2290
    115  O         17.9640  -20.5870  -58.7860 O.2   220  TRP220     -0.2864
    116  CB        16.5750  -20.6750  -61.0870 C.3   220  TRP220      0.0576
    117  CG        15.7350  -20.9010  -62.3200 C.ar  220  TRP220      0.0006
    118  CD1       14.4650  -21.3970  -62.3540 C.ar  220  TRP220      0.0946
    119  CD2       16.0920  -20.5930  -63.6710 C.ar  220  TRP220      0.0152
    120  NE1       14.0000  -21.4150  -63.6550 N.ar  220  TRP220     -0.2442
    121  CE2       14.9840  -20.9370  -64.4830 C.ar  220  TRP220      0.0810
    122  CE3       17.2430  -20.0640  -64.2770 C.ar  220  TRP220      0.0012
    123  CZ2       14.9760  -20.7520  -65.8530 C.ar  220  TRP220      0.0191
    124  CZ3       17.2240  -19.8770  -65.6620 C.ar  220  TRP220      0.0001
    125  CH2       16.1040  -20.2470  -66.4300 C.ar  220  TRP220      0.0015
@<TRIPOS>BOND
     1    49    48    1
     2    40    41    1
     3    41    42    1
     4    41    44    1
     5    48    50    1
     6    48    47    2
     7    46    47    1
     8    46    45    1
     9    53    54    2
    10    53    52    1
    11    51    42   am
    12    51    52    1
    13    42    43    2
    14    44    45    1
    15    52    55    1
    16    39    37    1
    17    21    19    1
    18    34    33    1
    19    34    35    1
    20    34    37    1
    21    36    35    2
    22    37    38    1
    23    55    56    1
    24    18    19    2
    25    18    17    1
    26    19    20    1
    27    56    57   ar
    28    56    58   ar
    29    57    59   ar
    30    16    17    1
    31    16    15    1
    32    14    13    2
    33    13    12    1
    34    58    60   ar
    35    59    61   ar
    36    12    15    1
    37    12    11    1
    38    60    61   ar
    39   125   123   ar
    40   125   124   ar
    41   111   110    1
    42   110   109    1
    43   123   121   ar
    44   124   122   ar
    45    22    23    1
    46   109   108    1
    47   121   119   ar
    48   121   120   ar
    49    77    75   ar
    50   122   119   ar
    51   108   107    1
    52   119   117   ar
    53    23    26    1
    54    23    24    1
    55   120   118   ar
    56    26    27    1
    57    74    75    1
    58    74    71    1
    59    75    76   ar
    60   106   105    2
    61   107   104    1
    62    65    64    2
    63    27    28    1
    64   118   117   ar
    65   117   116    1
    66    28    29    1
    67    24    25    2
    68   105   104    1
    69   105   112   am
    70    71    72    1
    71    71    70    1
    72   104   103    1
    73    29    30    2
    74    72    73    2
    75    30    31    1
    76    30    32    1
    77    64    63    1
    78     8    10   ar
    79     8     6   ar
    80    69    67   ar
    81   116   113    1
    82    68    67   ar
    83   113   112    1
    84   113   114    1
    85    10     9   ar
    86    67    66    1
    87     6     5    1
    88     6     7   ar
    89     5     2    1
    90    94    92   ar
    91    66    63    1
    92    63    62    1
    93     9     7   ar
    94   102   100   am
    95   114   115    2
    96    92    91    1
    97    92    93   ar
    98    91    90    1
    99   101   100    2
   100    84    83   ar
   101     3     2    1
   102     3     4    2
   103     1     2    1
   104   100    99    1
   105    90    87    1
   106    83    85   ar
   107    83    82    1
   108    98    97    2
   109    99    96    1
   110    82    79    1
   111    97    96    1
   112    87    86    1
   113    87    88    1
   114    96    95    1
   115    81    80    2
   116    80    86   am
   117    80    79    1
   118    89    88    2
   119    79    78    1
