@<TRIPOS>MOLECULE
tmp/3tosB00.pdb
 202 201 0 0 0
SMALL
GASTEIGER

@<TRIPOS>ATOM
      1  N          8.8760   -5.1110  -58.4530 N.3    72  GLU72      -0.1245
      2  CA         9.0640   -6.4780  -58.9640 C.3    72  GLU72       0.1567
      3  C         10.1950   -6.4150  -59.9450 C.2    72  GLU72       0.2260
      4  O         10.1860   -5.5710  -60.8310 O.2    72  GLU72      -0.2867
      5  CB         7.8130   -7.0650  -59.6380 C.3    72  GLU72       0.0388
      6  CG         8.1590   -8.5260  -60.0840 C.3    72  GLU72       0.1160
      7  CD         6.9920   -9.2580  -60.6870 C.2    72  GLU72       0.3649
      8  OE1        6.2270   -8.6390  -61.4860 O.co2  72  GLU72      -0.2457
      9  OE2        6.8630  -10.4480  -60.3950 O.co2  72  GLU72      -0.2457
     10  N         11.5960   -8.5090  -62.7280 N.3    74  GLY74      -0.1210
     11  CA        11.2370   -9.6720  -63.5830 C.3    74  GLY74       0.1956
     12  C          9.7200   -9.6960  -63.6650 C.2    74  GLY74       0.2612
     13  O          9.0510  -10.2740  -62.7980 O.2    74  GLY74      -0.2717
     14  N          9.1770   -9.0870  -64.7270 N.am   75  VAL75      -0.1965
     15  CA         7.7330   -8.8400  -64.8490 C.3    75  VAL75       0.1727
     16  C          7.1120   -9.7730  -65.8690 C.2    75  VAL75       0.2616
     17  O          5.9940  -10.2240  -65.6610 O.2    75  VAL75      -0.2715
     18  CB         7.5540   -7.3740  -65.3330 C.3    75  VAL75       0.0290
     19  CG1        6.0960   -7.0180  -65.6610 C.3    75  VAL75       0.0023
     20  CG2        8.0520   -6.4290  -64.1860 C.3    75  VAL75       0.0023
     21  N          7.7940  -10.0480  -66.9750 N.am   76  ARG76      -0.1963
     22  CA         7.2130  -10.8320  -68.0930 C.3    76  ARG76       0.1729
     23  C          5.8900  -10.2410  -68.5840 C.2    76  ARG76       0.2616
     24  O          5.9000   -9.0680  -69.0010 O.2    76  ARG76      -0.2715
     25  CB         7.0940  -12.3430  -67.7760 C.3    76  ARG76       0.0348
     26  CG         7.0720  -13.2350  -69.0650 C.3    76  ARG76       0.0492
     27  CD         6.7920  -14.6550  -68.6490 C.3    76  ARG76       0.2205
     28  NE         6.6690  -15.5280  -69.8050 N.pl3  76  ARG76      -0.0865
     29  CZ         6.4320  -16.8490  -69.7510 C.cat  76  ARG76       0.5346
     30  NH1        6.2070  -17.4580  -68.6050 N.pl3  76  ARG76       0.1354
     31  NH2        6.3130  -17.5740  -70.8810 N.pl3  76  ARG76       0.1354
     32  N          4.7760  -10.9800  -68.5620 N.am   77  PHE77      -0.1974
     33  CA         3.5010  -10.3930  -69.0420 C.3    77  PHE77       0.1639
     34  C          2.8080   -9.5410  -67.9470 C.2    77  PHE77       0.2290
     35  O          1.7980   -8.8730  -68.2230 O.2    77  PHE77      -0.2864
     36  CB         2.5120  -11.4820  -69.5310 C.3    77  PHE77       0.0560
     37  CG         3.0230  -12.2550  -70.7050 C.ar   77  PHE77      -0.0200
     38  CD1        3.0100  -11.6490  -71.9590 C.ar   77  PHE77      -0.0042
     39  CD2        3.4690  -13.5620  -70.5900 C.ar   77  PHE77      -0.0042
     40  CE1        3.4200  -12.3030  -73.0900 C.ar   77  PHE77      -0.0003
     41  CE2        3.9200  -14.2810  -71.7570 C.ar   77  PHE77      -0.0003
     42  CZ         3.9250  -13.6070  -73.0110 C.ar   77  PHE77      -0.0000
     43  N          1.8200  -10.7050  -64.6060 N.3    79  ARG79      -0.1231
     44  CA         0.9380  -11.3920  -63.6550 C.3    79  ARG79       0.1694
     45  C          0.8980  -10.7550  -62.2720 C.2    79  ARG79       0.2592
     46  O         -0.1720  -10.4930  -61.7030 O.2    79  ARG79      -0.2718
     47  CB         1.4470  -12.8290  -63.4730 C.3    79  ARG79       0.0321
     48  CG         0.6000  -13.5900  -62.4180 C.3    79  ARG79       0.0489
     49  CD         0.9540  -15.0930  -62.2850 C.3    79  ARG79       0.2205
     50  NE         2.3830  -15.2820  -61.9960 N.pl3  79  ARG79      -0.0865
     51  CZ         2.9430  -16.4290  -61.6000 C.cat  79  ARG79       0.5346
     52  NH1        2.1900  -17.5100  -61.3780 N.pl3  79  ARG79       0.1354
     53  NH2        4.2630  -16.4670  -61.3330 N.pl3  79  ARG79       0.1354
     54  N          2.0800  -10.5720  -61.6870 N.am   80  HIS80      -0.1976
     55  CA         2.1340  -10.0400  -60.3300 C.3    80  HIS80       0.1656
     56  C          1.7620   -8.5580  -60.2540 C.2    80  HIS80       0.2291
     57  O          1.2080   -8.1250  -59.2490 O.2    80  HIS80      -0.2864
     58  CB         3.5250  -10.2530  -59.7260 C.3    80  HIS80       0.0771
     59  CG         3.8350  -11.6910  -59.4550 C.ar   80  HIS80       0.0820
     60  ND1        5.1200  -12.1490  -59.4000 N.ar   80  HIS80      -0.2267
     61  CD2        3.0290  -12.7560  -59.1770 C.ar   80  HIS80       0.1154
     62  CE1        5.1040  -13.4570  -59.1260 C.ar   80  HIS80       0.1986
     63  NE2        3.8470  -13.8390  -58.9720 N.ar   80  HIS80      -0.2212
     64  N         10.3010   -3.8350  -63.2330 N.3   103  PHE103     -0.1227
     65  CA        11.5190   -3.7280  -64.0480 C.3   103  PHE103      0.1736
     66  C         11.6810   -4.9760  -64.8940 C.2   103  PHE103      0.2595
     67  O         11.6130   -6.1110  -64.3780 O.2   103  PHE103     -0.2718
     68  CB        12.8080   -3.6150  -63.1690 C.3   103  PHE103      0.0547
     69  CG        12.8540   -2.4250  -62.2650 C.ar  103  PHE103     -0.0202
     70  CD1       12.1970   -2.4350  -61.0250 C.ar  103  PHE103     -0.0042
     71  CD2       13.6180   -1.2940  -62.6110 C.ar  103  PHE103     -0.0042
     72  CE1       12.2790   -1.2970  -60.1560 C.ar  103  PHE103     -0.0003
     73  CE2       13.6680   -0.1680  -61.7540 C.ar  103  PHE103     -0.0003
     74  CZ        13.0030   -0.1700  -60.5470 C.ar  103  PHE103     -0.0000
     75  N         11.9580   -4.8050  -66.1830 N.am  104  ASP104     -0.1960
     76  CA        12.2710   -5.9470  -67.0380 C.3   104  ASP104      0.1840
     77  C         12.9260   -5.3960  -68.2960 C.2   104  ASP104      0.2623
     78  O         12.7240   -4.2180  -68.6360 O.2   104  ASP104     -0.2715
     79  CB        10.9520   -6.6940  -67.4300 C.3   104  ASP104      0.1450
     80  CG        11.1680   -8.1360  -67.7680 C.2   104  ASP104      0.3671
     81  OD1       11.9490   -8.4610  -68.7120 O.co2 104  ASP104     -0.2456
     82  OD2       10.5490   -8.9740  -67.1110 O.co2 104  ASP104     -0.2456
     83  N         13.6570   -6.2150  -69.0350 N.am  105  THR105     -0.1937
     84  CA        14.0550   -5.8550  -70.3890 C.3   105  THR105      0.2028
     85  C         12.8340   -5.8700  -71.3070 C.2   105  THR105      0.2642
     86  O         12.7730   -5.1060  -72.2910 O.2   105  THR105     -0.2714
     87  CB        15.0250   -6.8870  -70.9830 C.3   105  THR105      0.1808
     88  OG1       14.3960   -8.1600  -70.9000 O.3   105  THR105     -0.2208
     89  CG2       16.3750   -6.9380  -70.2210 C.3   105  THR105      0.0379
     90  N         11.8610   -6.7300  -70.9600 N.am  106  PHE106     -0.1973
     91  CA        10.7200   -7.1040  -71.8240 C.3   106  PHE106      0.1639
     92  C         11.1650   -7.7790  -73.0910 C.2   106  PHE106      0.2290
     93  O         10.3520   -8.0280  -73.9650 O.2   106  PHE106     -0.2864
     94  CB         9.7410   -5.9360  -72.0370 C.3   106  PHE106      0.0560
     95  CG         9.1240   -5.4570  -70.7600 C.ar  106  PHE106     -0.0200
     96  CD1        8.0410   -6.1650  -70.2050 C.ar  106  PHE106     -0.0042
     97  CD2        9.6410   -4.3210  -70.0860 C.ar  106  PHE106     -0.0042
     98  CE1        7.4480   -5.7200  -69.0150 C.ar  106  PHE106     -0.0003
     99  CE2        9.0580   -3.8610  -68.9090 C.ar  106  PHE106     -0.0003
    100  CZ         7.9840   -4.5820  -68.3490 C.ar  106  PHE106     -0.0000
    101  N         13.3090  -10.6000  -72.6170 N.3   108  GLY108     -0.1210
    102  CA        13.8790  -11.8530  -72.1390 C.3   108  GLY108      0.1956
    103  C         15.2260  -11.7060  -71.4810 C.2   108  GLY108      0.2612
    104  O         15.7820  -10.6070  -71.4020 O.2   108  GLY108     -0.2717
    105  N         15.7950  -12.8120  -71.0310 N.am  109  PHE109     -0.1962
    106  CA        17.1100  -12.7100  -70.3940 C.3   109  PHE109      0.1756
    107  C         18.1260  -11.9980  -71.2910 C.2   109  PHE109      0.2461
    108  O         18.2670  -12.3530  -72.4630 O.2   109  PHE109     -0.2730
    109  CB        17.6890  -14.1280  -70.1310 C.3   109  PHE109      0.0574
    110  CG        16.9420  -14.9560  -69.1380 C.ar  109  PHE109     -0.0200
    111  CD1       16.3150  -14.4170  -68.0280 C.ar  109  PHE109     -0.0042
    112  CD2       16.9580  -16.3470  -69.2840 C.ar  109  PHE109     -0.0042
    113  CE1       15.6370  -15.2220  -67.1190 C.ar  109  PHE109     -0.0003
    114  CE2       16.2960  -17.1730  -68.3500 C.ar  109  PHE109     -0.0003
    115  CZ        15.6410  -16.6050  -67.2660 C.ar  109  PHE109     -0.0000
    116  N         18.8690  -10.9950  -70.7800 N.am  110  PRO110     -0.2727
    117  CA        19.8020  -10.2910  -71.6900 C.3   110  PRO110      0.1402
    118  C         21.1720  -10.9650  -71.8530 C.2   110  PRO110      0.2269
    119  O         21.8770  -10.7190  -72.8470 O.2   110  PRO110     -0.2865
    120  CB        19.9930   -8.9300  -71.0070 C.3   110  PRO110      0.0296
    121  CG        19.8610   -9.2820  -69.5310 C.3   110  PRO110      0.0237
    122  CD        18.7740  -10.3360  -69.4540 C.3   110  PRO110      0.0939
    123  N         11.8710  -15.9250  -72.1730 N.3   127  PHE127     -0.1241
    124  CA        10.8650  -15.1020  -71.5260 C.3   127  PHE127      0.1605
    125  C         10.5590  -13.7590  -72.2180 C.2   127  PHE127      0.2264
    126  O          9.8340  -12.9270  -71.6440 O.2   127  PHE127     -0.2867
    127  CB        11.0650  -14.8570  -70.0150 C.3   127  PHE127      0.0534
    128  CG        11.1100  -16.0870  -69.1660 C.ar  127  PHE127     -0.0203
    129  CD1       10.0250  -16.9380  -69.0670 C.ar  127  PHE127     -0.0042
    130  CD2       12.2260  -16.3330  -68.3920 C.ar  127  PHE127     -0.0042
    131  CE1       10.0790  -18.0810  -68.2760 C.ar  127  PHE127     -0.0003
    132  CE2       12.2980  -17.4550  -67.5860 C.ar  127  PHE127     -0.0003
    133  CZ        11.1980  -18.3380  -67.5160 C.ar  127  PHE127     -0.0000
    134  N         14.5590   -2.1470  -69.4780 N.3   162  GLY162     -0.1210
    135  CA        15.9920   -2.3070  -69.6800 C.3   162  GLY162      0.1956
    136  C         16.6130   -3.2790  -68.6910 C.2   162  GLY162      0.2612
    137  O         15.9120   -3.9680  -67.9320 O.2   162  GLY162     -0.2717
    138  N         17.9530   -3.3630  -68.7100 N.am  163  ASP163     -0.1959
    139  CA        18.6700   -4.2820  -67.8200 C.3   163  ASP163      0.1840
    140  C         18.7290   -3.7040  -66.4290 C.2   163  ASP163      0.2622
    141  O         19.1990   -2.5730  -66.2560 O.2   163  ASP163     -0.2715
    142  CB        20.0620   -4.4340  -68.4050 C.3   163  ASP163      0.1450
    143  CG        20.8740   -5.4590  -67.7150 C.2   163  ASP163      0.3671
    144  OD1       20.6810   -5.7510  -66.5240 O.co2 163  ASP163     -0.2456
    145  OD2       21.7050   -6.0620  -68.4000 O.co2 163  ASP163     -0.2456
    146  N         18.2260   -4.4480  -65.4360 N.am  164  VAL164     -0.1963
    147  CA        18.1790   -3.9800  -64.0160 C.3   164  VAL164      0.1727
    148  C         19.5150   -3.5520  -63.4840 C.2   164  VAL164      0.2616
    149  O         19.5750   -2.7190  -62.5530 O.2   164  VAL164     -0.2715
    150  CB        17.5210   -4.9850  -63.0260 C.3   164  VAL164      0.0290
    151  CG1       15.9940   -5.1580  -63.3320 C.3   164  VAL164      0.0023
    152  CG2       18.2540   -6.3190  -63.0100 C.3   164  VAL164      0.0023
    153  N         20.6000   -4.0880  -64.0130 N.am  165  ARG165     -0.1977
    154  CA        21.9380   -3.6550  -63.5630 C.3   165  ARG165      0.1597
    155  C         22.1350   -2.1550  -63.7460 C.2   165  ARG165      0.2287
    156  O         22.8510   -1.4950  -62.9630 O.2   165  ARG165     -0.2864
    157  CB        23.0460   -4.4370  -64.2740 C.3   165  ARG165      0.0334
    158  CG        23.0300   -5.8960  -63.8480 C.3   165  ARG165      0.0492
    159  CD        23.9870   -6.7630  -64.6370 C.3   165  ARG165      0.2205
    160  NE        23.3710   -7.1170  -65.8940 N.pl3 165  ARG165     -0.0865
    161  CZ        23.7030   -8.1740  -66.6220 C.cat 165  ARG165      0.5346
    162  NH1       24.6420   -9.0310  -66.2160 N.pl3 165  ARG165      0.1354
    163  NH2       23.0750   -8.3760  -67.7460 N.pl3 165  ARG165      0.1354
    164  N         12.2230  -11.8400  -59.1110 N.3   186  ASP186     -0.1225
    165  CA        11.8240  -12.8920  -60.0450 C.3   186  ASP186      0.1805
    166  C         12.6000  -12.7900  -61.3550 C.2   186  ASP186      0.2598
    167  O         12.0400  -12.9260  -62.4680 O.2   186  ASP186     -0.2718
    168  CB        10.3140  -12.8340  -60.3370 C.3   186  ASP186      0.1424
    169  CG         9.7750  -14.1390  -60.8950 C.2   186  ASP186      0.3668
    170  OD1       10.5450  -15.1040  -60.9990 O.co2 186  ASP186     -0.2456
    171  OD2        8.5620  -14.1850  -61.2260 O.co2 186  ASP186     -0.2456
    172  N         13.9170  -12.5980  -61.2330 N.am  187  LEU187     -0.1966
    173  CA        14.7780  -12.4920  -62.4220 C.3   187  LEU187      0.1728
    174  C         15.4110  -13.8000  -62.7850 C.2   187  LEU187      0.2616
    175  O         15.9640  -13.9100  -63.9030 O.2   187  LEU187     -0.2715
    176  CB        15.9420  -11.5060  -62.1500 C.3   187  LEU187      0.0311
    177  CG        15.5710  -10.0850  -61.7150 C.3   187  LEU187      0.0022
    178  CD1       16.7680   -9.4920  -60.9490 C.3   187  LEU187      0.0001
    179  CD2       15.3230   -9.2560  -62.9840 C.3   187  LEU187      0.0001
    180  N         15.3970  -14.7660  -61.8540 N.am  188  ASP188     -0.1957
    181  CA        16.0240  -16.1180  -62.0470 C.3   188  ASP188      0.1840
    182  C         17.5450  -16.1570  -61.9940 C.2   188  ASP188      0.2621
    183  O         18.1090  -17.0910  -61.4590 O.2   188  ASP188     -0.2715
    184  CB        15.5270  -16.8280  -63.3310 C.3   188  ASP188      0.1450
    185  CG        14.0280  -17.0360  -63.3080 C.2   188  ASP188      0.3671
    186  OD1       13.5180  -17.5340  -62.2680 O.co2 188  ASP188     -0.2456
    187  OD2       13.3300  -16.6690  -64.2990 O.co2 188  ASP188     -0.2456
    188  N         18.2020  -15.1400  -62.5770 N.am  189  LEU189     -0.1977
    189  CA        19.6370  -15.1950  -62.8890 C.3   189  LEU189      0.1596
    190  C         20.4580  -14.5790  -61.7770 C.2   189  LEU189      0.2287
    191  O         20.0570  -13.5640  -61.1470 O.2   189  LEU189     -0.2864
    192  CB        19.9100  -14.4020  -64.1670 C.3   189  LEU189      0.0297
    193  CG        19.0720  -14.9050  -65.3440 C.3   189  LEU189      0.0022
    194  CD1       19.3870  -13.9660  -66.5400 C.3   189  LEU189      0.0001
    195  CD2       19.5190  -16.3670  -65.6810 C.3   189  LEU189      0.0001
    196  N         22.0540  -10.2690  -62.2430 N.3   192  PRO192     -0.2116
    197  CA        21.1700   -9.1450  -61.9670 C.3   192  PRO192      0.1372
    198  C         20.5790   -9.2290  -60.5680 C.2   192  PRO192      0.2244
    199  O         20.3310   -8.1870  -59.9560 O.2   192  PRO192     -0.2868
    200  CB        20.0730   -9.3200  -63.0380 C.3   192  PRO192      0.0268
    201  CG        20.1370  -10.7200  -63.4610 C.3   192  PRO192      0.0207
    202  CD        21.6040  -11.0690  -63.4100 C.3   192  PRO192      0.0892
@<TRIPOS>BOND
     1    93    92    2
     2    92    91    1
     3    40    42   ar
     4    40    38   ar
     5    42    41   ar
     6   119   118    2
     7   101   102    1
     8   108   107    2
     9    86    85    2
    10   125   126    2
    11   125   124    1
    12   123   124    1
    13   102   103    1
    14    94    91    1
    15    94    95    1
    16    38    37   ar
    17   118   117    1
    18    91    90    1
    19    41    39   ar
    20   117   120    1
    21   117   116    1
    22   124   127    1
    23   103   104    2
    24   103   105   am
    25    85    90   am
    26    85    84    1
    27   107   116   am
    28   107   106    1
    29   105   106    1
    30   120   121    1
    31    87    88    1
    32    87    84    1
    33    87    89    1
    34    31    29    1
    35   116   122    1
    36    95    96   ar
    37    95    97   ar
    38    37    39   ar
    39    37    36    1
    40   106   109    1
    41    84    83    1
    42    96    98   ar
    43   109   110    1
    44    97    99   ar
    45   127   128    1
    46    28    29    2
    47    28    27    1
    48    29    30    1
    49   135   134    1
    50   135   136    1
    51    36    33    1
    52   121   122    1
    53   112   110   ar
    54   112   114   ar
    55   128   129   ar
    56   128   130   ar
    57   110   111   ar
    58   129   131   ar
    59    26    27    1
    60    26    25    1
    61    33    32    1
    62    33    34    1
    63    83    77   am
    64    98   100   ar
    65    24    23    2
    66    99   100   ar
    67    81    80   ar
    68   138   136   am
    69   138   139    1
    70   136   137    2
    71    78    77    2
    72    23    32   am
    73    23    22    1
    74   142   139    1
    75   142   143    1
    76   145   143   ar
    77   130   132   ar
    78   114   115   ar
    79    77    76    1
    80   131   133   ar
    81    35    34    2
    82    22    25    1
    83    22    21    1
    84   111   113   ar
    85   139   140    1
    86    80    79    1
    87    80    82   ar
    88   163   161    1
    89   143   144   ar
    90   132   133   ar
    91    79    76    1
    92   115   113   ar
    93    76    75    1
    94    21    16   am
    95   161   162    1
    96   161   160    2
    97   194   193    1
    98   140   141    2
    99   140   146   am
   100    75    66   am
   101   160   159    1
   102    16    17    2
   103    16    15    1
   104   195   193    1
   105    19    18    1
   106   146   147    1
   107   193   192    1
   108    18    15    1
   109    18    20    1
   110    66    67    2
   111    66    65    1
   112    15    14    1
   113    14    12   am
   114   159   158    1
   115    43    44    1
   116   187   185   ar
   117   157   158    1
   118   157   154    1
   119   192   189    1
   120    65    64    1
   121    65    68    1
   122   147   148    1
   123   147   150    1
   124   153   154    1
   125   153   148   am
   126   175   174    2
   127   155   154    1
   128   155   156    2
   129    12    11    1
   130    12    13    2
   131    44    47    1
   132    44    45    1
   133    11    10    1
   134   148   149    2
   135    47    48    1
   136   201   202    1
   137   201   200    1
   138   202   196    1
   139   151   150    1
   140   184   185    1
   141   184   181    1
   142   185   186   ar
   143    68    69    1
   144   200   197    1
   145   150   152    1
   146   179   177    1
   147   189   188    1
   148   189   190    1
   149   174   173    1
   150   174   180   am
   151    71    69   ar
   152    71    73   ar
   153   188   182   am
   154   167   166    2
   155   173   176    1
   156   173   172    1
   157    48    49    1
   158    49    50    1
   159    45    46    2
   160    45    54   am
   161    69    70   ar
   162   196   197    1
   163   176   177    1
   164   181   182    1
   165   181   180    1
   166    50    51    2
   167   182   183    2
   168   197   198    1
   169   190   191    2
   170    73    74   ar
   171   177   178    1
   172    54    55    1
   173    51    52    1
   174    51    53    1
   175     8     7   ar
   176   166   172   am
   177   166   165    1
   178   171   169   ar
   179    70    72   ar
   180   170   169   ar
   181   169   168    1
   182     4     3    2
   183     7     9   ar
   184     7     6    1
   185   198   199    2
   186    74    72   ar
   187   168   165    1
   188    55    56    1
   189    55    58    1
   190    56    57    2
   191     6     5    1
   192   165   164    1
   193     3     2    1
   194    58    59    1
   195     5     2    1
   196    59    60   ar
   197    59    61   ar
   198    60    62   ar
   199    61    63   ar
   200    62    63   ar
   201     2     1    1
