@<TRIPOS>MOLECULE
tmp/3tosG00.pdb
 191 189 0 0 0
SMALL
GASTEIGER

@<TRIPOS>ATOM
      1  N          6.9400   19.4430  -32.2090 N.3    67  GLU67      -0.1245
      2  CA         6.6170   19.4780  -33.6670 C.3    67  GLU67       0.1567
      3  C          7.5860   20.4350  -34.3000 C.2    67  GLU67       0.2260
      4  O          7.7320   21.5970  -33.8730 O.2    67  GLU67      -0.2867
      5  CB         5.1620   19.9130  -33.9760 C.3    67  GLU67       0.0388
      6  CG         4.9170   19.7990  -35.4910 C.3    67  GLU67       0.1160
      7  CD         3.5200   20.1140  -35.9240 C.2    67  GLU67       0.3649
      8  OE1        2.8770   21.0350  -35.3320 O.co2  67  GLU67      -0.2457
      9  OE2        3.0570   19.4110  -36.8630 O.co2  67  GLU67      -0.2457
     10  N          7.8980   22.3420  -37.5710 N.3    69  GLY69      -0.1210
     11  CA         7.0630   22.7410  -38.6900 C.3    69  GLY69       0.1956
     12  C          5.5770   22.7590  -38.2460 C.2    69  GLY69       0.2612
     13  O          4.8760   21.7210  -38.2570 O.2    69  GLY69      -0.2717
     14  N          5.1040   23.9410  -37.8720 N.am   70  VAL70      -0.1965
     15  CA         3.8060   24.1120  -37.1830 C.3    70  VAL70       0.1727
     16  C          2.7660   24.7380  -38.1240 C.2    70  VAL70       0.2616
     17  O          1.6050   24.3820  -38.0340 O.2    70  VAL70      -0.2715
     18  CB         4.0220   25.0500  -35.9650 C.3    70  VAL70       0.0290
     19  CG1        2.7780   25.3410  -35.2600 C.3    70  VAL70       0.0023
     20  CG2        4.9880   24.3590  -34.9690 C.3    70  VAL70       0.0023
     21  N          3.1820   25.6550  -38.9960 N.am   71  ARG71      -0.1963
     22  CA         2.2570   26.4950  -39.7430 C.3    71  ARG71       0.1729
     23  C          1.1760   27.0990  -38.8960 C.2    71  ARG71       0.2616
     24  O          1.5020   27.9100  -38.0450 O.2    71  ARG71      -0.2715
     25  CB         1.7520   25.6450  -40.9470 C.3    71  ARG71       0.0348
     26  CG         1.2520   26.4200  -42.1390 C.3    71  ARG71       0.0492
     27  CD         0.5930   25.5050  -43.1620 C.3    71  ARG71       0.2205
     28  NE         0.0530   26.3440  -44.2040 N.pl3  71  ARG71      -0.0865
     29  CZ        -0.5920   25.8720  -45.2660 C.cat  71  ARG71       0.5346
     30  NH1       -0.8250   24.5690  -45.3930 N.pl3  71  ARG71       0.1354
     31  NH2       -1.0640   26.7230  -46.1960 N.pl3  71  ARG71       0.1354
     32  N         -0.0980   26.8060  -39.1620 N.am   72  PHE72      -0.1974
     33  CA        -1.1670   27.4310  -38.3720 C.3    72  PHE72       0.1639
     34  C         -1.4080   26.7230  -37.0300 C.2    72  PHE72       0.2290
     35  O         -2.1740   27.2420  -36.2020 O.2    72  PHE72      -0.2864
     36  CB        -2.5000   27.5170  -39.1690 C.3    72  PHE72       0.0560
     37  CG        -2.4200   28.3300  -40.4040 C.ar   72  PHE72      -0.0200
     38  CD1       -2.4000   29.7270  -40.3370 C.ar   72  PHE72      -0.0042
     39  CD2       -2.4440   27.7130  -41.6720 C.ar   72  PHE72      -0.0042
     40  CE1       -2.3760   30.5110  -41.4770 C.ar   72  PHE72      -0.0003
     41  CE2       -2.4370   28.4920  -42.8390 C.ar   72  PHE72      -0.0003
     42  CZ        -2.4060   29.8970  -42.7340 C.ar   72  PHE72      -0.0000
     43  N         -2.2850   23.1700  -36.6410 N.3    74  ARG74      -0.1231
     44  CA        -3.2300   22.0520  -36.6420 C.3    74  ARG74       0.1694
     45  C         -2.8710   20.9650  -35.6280 C.2    74  ARG74       0.2592
     46  O         -3.7160   20.4850  -34.8590 O.2    74  ARG74      -0.2718
     47  CB        -3.2800   21.4410  -38.0480 C.3    74  ARG74       0.0321
     48  CG        -4.0820   20.1440  -38.1020 C.3    74  ARG74       0.0489
     49  CD        -4.1830   19.5370  -39.5170 C.3    74  ARG74       0.2205
     50  NE        -2.8710   19.1600  -40.0490 N.pl3  74  ARG74      -0.0865
     51  CZ        -2.6930   18.3910  -41.1330 C.cat  74  ARG74       0.5346
     52  NH1       -3.7500   17.8060  -41.7360 N.pl3  74  ARG74       0.1354
     53  NH2       -1.4400   18.0900  -41.5370 N.pl3  74  ARG74       0.1354
     54  N         -1.6180   20.5200  -35.6720 N.am   75  HIS75      -0.1976
     55  CA        -1.2050   19.3980  -34.7800 C.3    75  HIS75       0.1656
     56  C         -1.0880   19.8430  -33.3230 C.2    75  HIS75       0.2291
     57  O         -1.3710   19.0830  -32.4230 O.2    75  HIS75      -0.2864
     58  CB         0.1070   18.7570  -35.2680 C.3    75  HIS75       0.0771
     59  CG        -0.0280   18.0420  -36.5670 C.ar   75  HIS75       0.0820
     60  ND1        1.0330   17.8430  -37.4160 N.ar   75  HIS75      -0.2267
     61  CD2       -1.0990   17.4490  -37.1550 C.ar   75  HIS75       0.1154
     62  CE1        0.6290   17.1830  -38.4940 C.ar   75  HIS75       0.1986
     63  NE2       -0.6620   16.9000  -38.3410 N.ar   75  HIS75      -0.2212
     64  N          8.9380   26.8840  -35.5050 N.3    99  ASP99      -0.1225
     65  CA         8.7390   27.2340  -36.9020 C.3    99  ASP99       0.1805
     66  C          9.3940   28.6440  -37.0700 C.2    99  ASP99       0.2598
     67  O          9.5140   29.4170  -36.0950 O.2    99  ASP99      -0.2718
     68  CB         7.2330   27.3820  -37.2250 C.3    99  ASP99       0.1424
     69  CG         6.9430   27.1550  -38.6910 C.2    99  ASP99       0.3668
     70  OD1        7.4900   27.8950  -39.5630 O.co2  99  ASP99      -0.2456
     71  OD2        6.1680   26.2490  -39.0570 O.co2  99  ASP99      -0.2456
     72  N          9.7490   29.0180  -38.2970 N.am  100  THR100     -0.1939
     73  CA        10.0200   30.4290  -38.6030 C.3   100  THR100      0.2028
     74  C          8.7430   31.2650  -38.4860 C.2   100  THR100      0.2642
     75  O          8.8220   32.4480  -38.0880 O.2   100  THR100     -0.2714
     76  CB        10.4990   30.6280  -40.0300 C.3   100  THR100      0.1808
     77  OG1        9.5080   30.0970  -40.9140 O.3   100  THR100     -0.2208
     78  CG2       11.8430   29.9310  -40.2870 C.3   100  THR100      0.0379
     79  N          7.6020   30.6340  -38.7880 N.am  101  PHE101     -0.1973
     80  CA         6.3000   31.2840  -38.9820 C.3   101  PHE101      0.1639
     81  C          6.3190   32.2550  -40.1490 C.2   101  PHE101      0.2290
     82  O          5.3640   33.0270  -40.3420 O.2   101  PHE101     -0.2864
     83  CB         5.7590   31.8970  -37.6800 C.3   101  PHE101      0.0560
     84  CG         5.5010   30.8650  -36.6110 C.ar  101  PHE101     -0.0200
     85  CD1        4.3230   30.0990  -36.6720 C.ar  101  PHE101     -0.0042
     86  CD2        6.4020   30.6700  -35.5450 C.ar  101  PHE101     -0.0042
     87  CE1        4.0270   29.1200  -35.7270 C.ar  101  PHE101     -0.0003
     88  CE2        6.1340   29.7130  -34.5480 C.ar  101  PHE101     -0.0003
     89  CZ         4.9130   28.9280  -34.6550 C.ar  101  PHE101     -0.0000
     90  N          7.4770   30.8330  -43.2250 N.3   103  GLY103     -0.1210
     91  CA         7.6570   29.9080  -44.3320 C.3   103  GLY103      0.1956
     92  C          9.0960   29.4070  -44.4610 C.2   103  GLY103      0.2612
     93  O          9.9540   29.7000  -43.6140 O.2   103  GLY103     -0.2717
     94  N          9.3590   28.6440  -45.5060 N.am  104  PHE104     -0.1962
     95  CA        10.6970   28.0620  -45.6630 C.3   104  PHE104      0.1756
     96  C         11.7500   29.1660  -45.6860 C.2   104  PHE104      0.2461
     97  O         11.6240   30.1340  -46.4340 O.2   104  PHE104     -0.2730
     98  CB        10.7910   27.3530  -47.0340 C.3   104  PHE104      0.0574
     99  CG         9.9280   26.1070  -47.1760 C.ar  104  PHE104     -0.0200
    100  CD1        9.6370   25.2610  -46.0840 C.ar  104  PHE104     -0.0042
    101  CD2        9.4930   25.7200  -48.4460 C.ar  104  PHE104     -0.0042
    102  CE1        8.9110   24.0360  -46.2530 C.ar  104  PHE104     -0.0003
    103  CE2        8.7760   24.5280  -48.6170 C.ar  104  PHE104     -0.0003
    104  CZ         8.4900   23.7050  -47.5250 C.ar  104  PHE104     -0.0000
    105  N         12.8180   28.9570  -44.9340 N.am  105  PRO105     -0.2727
    106  CA        14.0840   29.5780  -45.3100 C.3   105  PRO105      0.1402
    107  C         14.5070   29.0980  -46.7010 C.2   105  PRO105      0.2269
    108  O         13.8320   28.2610  -47.3390 O.2   105  PRO105     -0.2865
    109  CB        15.0630   29.0500  -44.2520 C.3   105  PRO105      0.0296
    110  CG        14.2040   28.6510  -43.0780 C.3   105  PRO105      0.0237
    111  CD        12.9180   28.1550  -43.6920 C.3   105  PRO105      0.0939
    112  N          4.4890   28.5210  -47.2150 N.3   122  PHE122     -0.1241
    113  CA         3.7920   28.1860  -45.9650 C.3   122  PHE122      0.1605
    114  C          3.9030   29.3250  -44.9030 C.2   122  PHE122      0.2264
    115  O          3.5360   29.0790  -43.7440 O.2   122  PHE122     -0.2867
    116  CB         4.3280   26.8710  -45.3130 C.3   122  PHE122      0.0534
    117  CG         4.0910   25.6600  -46.1380 C.ar  122  PHE122     -0.0203
    118  CD1        2.8130   25.2660  -46.4150 C.ar  122  PHE122     -0.0042
    119  CD2        5.1650   24.8890  -46.5920 C.ar  122  PHE122     -0.0042
    120  CE1        2.5840   24.1260  -47.1770 C.ar  122  PHE122     -0.0003
    121  CE2        4.9520   23.7480  -47.3720 C.ar  122  PHE122     -0.0003
    122  CZ         3.6290   23.3630  -47.6620 C.ar  122  PHE122     -0.0000
    123  N         11.8090   30.9550  -35.2590 N.3   157  GLY157     -0.1210
    124  CA        13.0420   31.0900  -35.9920 C.3   157  GLY157      0.1956
    125  C         13.4470   29.8180  -36.7040 C.2   157  GLY157      0.2612
    126  O         12.6880   28.8430  -36.7860 O.2   157  GLY157     -0.2717
    127  N         14.6880   29.8060  -37.1860 N.am  158  ASP158     -0.1959
    128  CA        15.2070   28.6650  -37.9720 C.3   158  ASP158      0.1840
    129  C         15.6270   27.5340  -37.0270 C.2   158  ASP158      0.2622
    130  O         16.4770   27.7560  -36.1310 O.2   158  ASP158     -0.2715
    131  CB        16.4090   29.1400  -38.7640 C.3   158  ASP158      0.1450
    132  CG        16.8980   28.1210  -39.7780 C.2   158  ASP158      0.3671
    133  OD1       16.7690   26.9190  -39.5580 O.co2 158  ASP158     -0.2456
    134  OD2       17.4020   28.5430  -40.8330 O.co2 158  ASP158     -0.2456
    135  N         15.0320   26.3480  -37.2040 N.am  159  VAL159     -0.1963
    136  CA        15.3180   25.2110  -36.2950 C.3   159  VAL159      0.1727
    137  C         16.8050   24.8740  -36.1800 C.2   159  VAL159      0.2616
    138  O         17.2320   24.2810  -35.1820 O.2   159  VAL159     -0.2715
    139  CB        14.5180   23.9280  -36.6560 C.3   159  VAL159      0.0290
    140  CG1       13.0250   24.0980  -36.3710 C.3   159  VAL159      0.0023
    141  CG2       14.8110   23.4600  -38.1150 C.3   159  VAL159      0.0023
    142  N         17.5980   25.2140  -37.1840 N.am  160  ARG160     -0.1977
    143  CA        19.0280   24.9170  -37.1280 C.3   160  ARG160      0.1597
    144  C         19.6580   25.6090  -35.9350 C.2   160  ARG160      0.2287
    145  O         20.6510   25.1290  -35.3680 O.2   160  ARG160     -0.2864
    146  CB        19.7470   25.3830  -38.3900 C.3   160  ARG160      0.0334
    147  CG        19.3750   24.6930  -39.7110 C.3   160  ARG160      0.0492
    148  CD        20.1180   25.5300  -40.7490 C.3   160  ARG160      0.2205
    149  NE        19.9910   25.1260  -42.1390 N.pl3 160  ARG160     -0.0865
    150  CZ        19.1860   25.7010  -43.0270 C.cat 160  ARG160      0.5346
    151  NH1       19.1840   25.2610  -44.2700 N.pl3 160  ARG160      0.1354
    152  NH2       18.3600   26.6750  -42.6810 N.pl3 160  ARG160      0.1354
    153  N          7.8590   17.7920  -39.5570 N.3   181  ASP181     -0.1225
    154  CA         6.9940   18.3080  -40.6230 C.3   181  ASP181      0.1805
    155  C          7.5810   19.5370  -41.2330 C.2   181  ASP181      0.2598
    156  O          6.8380   20.4910  -41.5260 O.2   181  ASP181     -0.2718
    157  CB         5.6020   18.6260  -40.1180 C.3   181  ASP181      0.1424
    158  CG         4.5700   18.6030  -41.2400 C.2   181  ASP181      0.3668
    159  OD1        4.9450   18.3090  -42.4260 O.co2 181  ASP181     -0.2456
    160  OD2        3.3910   18.8890  -40.9280 O.co2 181  ASP181     -0.2456
    161  N          8.9060   19.4600  -41.4880 N.am  182  LEU182     -0.1966
    162  CA         9.6540   20.5850  -42.0730 C.3   182  LEU182      0.1728
    163  C          9.7750   20.5620  -43.5650 C.2   182  LEU182      0.2616
    164  O         10.1060   21.5800  -44.1790 O.2   182  LEU182     -0.2715
    165  CB        11.0760   20.6420  -41.5090 C.3   182  LEU182      0.0311
    166  CG        11.1910   20.8320  -39.9710 C.3   182  LEU182      0.0022
    167  CD1       12.5800   20.3330  -39.4930 C.3   182  LEU182      0.0001
    168  CD2       10.9870   22.2910  -39.5880 C.3   182  LEU182      0.0001
    169  N          9.5240   19.3680  -44.1380 N.am  183  ASP183     -0.1957
    170  CA         9.6730   19.0750  -45.5780 C.3   183  ASP183      0.1840
    171  C         11.0730   19.0780  -46.0920 C.2   183  ASP183      0.2621
    172  O         11.4170   18.2290  -46.9120 O.2   183  ASP183     -0.2715
    173  CB         8.8210   19.9930  -46.4620 C.3   183  ASP183      0.1450
    174  CG         7.3430   19.8970  -46.1070 C.2   183  ASP183      0.3671
    175  OD1        6.8400   18.7680  -46.0190 O.co2 183  ASP183     -0.2456
    176  OD2        6.7030   20.9280  -45.8500 O.co2 183  ASP183     -0.2456
    177  N         11.9220   19.9630  -45.5900 N.am  184  LEU184     -0.1977
    178  CA        13.2060   20.2260  -46.2410 C.3   184  LEU184      0.1596
    179  C         14.3440   19.3910  -45.6280 C.2   184  LEU184      0.2287
    180  O         14.3890   19.1610  -44.4010 O.2   184  LEU184     -0.2864
    181  CB        13.5670   21.7220  -46.0820 C.3   184  LEU184      0.0297
    182  CG        12.5500   22.7200  -46.6490 C.3   184  LEU184      0.0022
    183  CD1       12.9690   24.1850  -46.3170 C.3   184  LEU184      0.0001
    184  CD2       12.3730   22.4750  -48.1500 C.3   184  LEU184      0.0001
    185  N         17.1270   21.3400  -42.5740 N.3   187  PRO187     -0.2116
    186  CA        16.6890   21.4230  -41.1820 C.3   187  PRO187      0.1372
    187  C         16.3060   20.0830  -40.6190 C.2   187  PRO187      0.2244
    188  O         16.5010   19.8670  -39.4110 O.2   187  PRO187     -0.2868
    189  CB        15.4800   22.4100  -41.2360 C.3   187  PRO187      0.0268
    190  CG        14.9950   22.2670  -42.6280 C.3   187  PRO187      0.0207
    191  CD        16.2420   22.0730  -43.4840 C.3   187  PRO187      0.0892
@<TRIPOS>BOND
     1   103   101   ar
     2   103   104   ar
     3   101    99   ar
     4   184   182    1
     5   122   121   ar
     6   122   120   ar
     7   104   102   ar
     8   121   119   ar
     9   108   107    2
    10   112   113    1
    11   120   118   ar
    12    99    98    1
    13    99   100   ar
    14    98    95    1
    15   172   171    2
    16   107   106    1
    17   182   183    1
    18   182   181    1
    19   119   117   ar
    20   173   174    1
    21   173   170    1
    22    97    96    2
    23   118   117   ar
    24   102   100   ar
    25   178   181    1
    26   178   179    1
    27   178   177    1
    28    31    29    1
    29   117   116    1
    30   174   175   ar
    31   174   176   ar
    32   171   177   am
    33   171   170    1
    34   113   116    1
    35   113   114    1
    36    96    95    1
    37    96   105   am
    38    95    94    1
    39   179   180    2
    40   170   169    1
    41    94    92   am
    42    30    29    1
    43   106   105    1
    44   106   109    1
    45    29    28    2
    46   105   111    1
    47   114   115    2
    48    92    91    1
    49    92    93    2
    50    91    90    1
    51   151   150    1
    52   109   110    1
    53    28    27    1
    54   164   163    2
    55   169   163   am
    56   111   110    1
    57   163   162    1
    58   191   190    1
    59   191   185    1
    60    27    26    1
    61   150   152    1
    62   150   149    2
    63    41    42   ar
    64    41    39   ar
    65    42    40   ar
    66   190   189    1
    67   185   186    1
    68   159   158   ar
    69    26    25    1
    70   149   148    1
    71   162   165    1
    72   162   161    1
    73    52    51    1
    74    39    37   ar
    75    53    51    1
    76   156   155    2
    77   165   166    1
    78   161   155   am
    79    40    38   ar
    80   158   160   ar
    81   158   157    1
    82   189   186    1
    83   155   154    1
    84   186   187    1
    85    51    50    2
    86    25    22    1
    87    77    76    1
    88   134   132   ar
    89   148   147    1
    90   154   157    1
    91   154   153    1
    92   187   188    2
    93    37    38   ar
    94    37    36    1
    95    82    81    2
    96    78    76    1
    97    81    80    1
    98    50    49    1
    99    76    73    1
   100   166   168    1
   101   166   167    1
   102   132   133   ar
   103   132   131    1
   104    22    21    1
   105    22    23    1
   106   147   146    1
   107    70    69   ar
   108    49    48    1
   109    36    33    1
   110    32    23   am
   111    32    33    1
   112    71    69   ar
   113    21    16   am
   114    80    79    1
   115    80    83    1
   116    23    24    2
   117    79    74   am
   118   131   128    1
   119    69    68    1
   120    11    12    1
   121    11    10    1
   122    73    74    1
   123    73    72    1
   124    62    63   ar
   125    62    60   ar
   126    74    75    2
   127   146   143    1
   128    33    34    1
   129    63    61   ar
   130    72    66   am
   131    13    12    2
   132    12    14   am
   133    16    17    2
   134    16    15    1
   135   141   139    1
   136    48    47    1
   137    47    44    1
   138   128   127    1
   139   128   129    1
   140    14    15    1
   141    83    84    1
   142    60    59   ar
   143    68    65    1
   144   135   129   am
   145   135   136    1
   146   127   125   am
   147   142   143    1
   148   142   137   am
   149    15    18    1
   150    61    59   ar
   151   143   144    1
   152    66    65    1
   153    66    67    2
   154    34    35    2
   155   129   130    2
   156    65    64    1
   157     9     7   ar
   158   126   125    2
   159   125   124    1
   160    85    84   ar
   161    85    87   ar
   162   139   140    1
   163   139   136    1
   164    44    43    1
   165    44    45    1
   166    84    86   ar
   167    59    58    1
   168   136   137    1
   169   137   138    2
   170   124   123    1
   171    18    19    1
   172    18    20    1
   173   144   145    2
   174     7     6    1
   175     7     8   ar
   176    87    89   ar
   177    54    45   am
   178    54    55    1
   179    45    46    2
   180    86    88   ar
   181     6     5    1
   182    58    55    1
   183    55    56    1
   184    89    88   ar
   185     3     4    2
   186     3     2    1
   187     5     2    1
   188     2     1    1
   189    56    57    2
