@<TRIPOS>MOLECULE
tmp/3toyC01.pdb
 131 129 0 0 0
SMALL
GASTEIGER

@<TRIPOS>ATOM
      1  N         50.0950   30.2230   45.7960 N.3   134  PRO134     -0.2116
      2  CA        49.0380   30.6090   46.7140 C.3   134  PRO134      0.1372
      3  C         49.6200   31.2530   47.9610 C.2   134  PRO134      0.2244
      4  O         50.6240   30.7760   48.5060 O.2   134  PRO134     -0.2868
      5  CB        48.3330   29.2680   47.0680 C.3   134  PRO134      0.0268
      6  CG        48.7250   28.3380   45.9890 C.3   134  PRO134      0.0207
      7  CD        50.0840   28.7830   45.4940 C.3   134  PRO134      0.0892
      8  N         42.4950   34.1770   49.9070 N.3   161  ARG161     -0.1245
      9  CA        41.5350   33.1890   50.3290 C.3   161  ARG161      0.1563
     10  C         41.9710   32.4410   51.5850 C.2   161  ARG161      0.2260
     11  O         41.4810   31.4020   51.8870 O.2   161  ARG161     -0.2867
     12  CB        41.2180   32.2380   49.2010 C.3   161  ARG161      0.0307
     13  CG        40.8800   32.9510   47.9310 C.3   161  ARG161      0.0489
     14  CD        39.6790   32.3990   47.3350 C.3   161  ARG161      0.2205
     15  NE        38.4870   32.7300   48.1180 N.pl3 161  ARG161     -0.0865
     16  CZ        37.6480   31.8190   48.5910 C.cat 161  ARG161      0.5346
     17  NH1       37.8830   30.5330   48.3690 N.pl3 161  ARG161      0.1354
     18  NH2       36.5850   32.1880   49.2780 N.pl3 161  ARG161      0.1354
     19  N         35.4710   32.8800   61.8420 N.3   183  ARG183     -0.1245
     20  CA        34.8510   31.8800   60.9670 C.3   183  ARG183      0.1563
     21  C         33.4360   32.3560   60.6040 C.2   183  ARG183      0.2260
     22  O         32.9800   32.2040   59.4850 O.2   183  ARG183     -0.2867
     23  CB        34.8260   30.5000   61.6550 C.3   183  ARG183      0.0307
     24  CG        34.1010   29.4060   60.9040 C.3   183  ARG183      0.0489
     25  CD        34.6800   29.1710   59.5090 C.3   183  ARG183      0.2205
     26  NE        35.9830   28.4860   59.5030 N.pl3 183  ARG183     -0.0865
     27  CZ        36.8640   28.5900   58.5040 C.cat 183  ARG183      0.5346
     28  NH1       36.5940   29.3600   57.4650 N.pl3 183  ARG183      0.1354
     29  NH2       38.0190   27.9110   58.5210 N.pl3 183  ARG183      0.1354
     30  N         32.7680   29.6850   55.2820 N.3   188  PRO188     -0.2102
     31  CA        33.5170   28.4180   55.2690 C.3   188  PRO188      0.1504
     32  C         34.5900   28.3020   54.2010 C.2   188  PRO188      0.2576
     33  O         35.3870   27.3740   54.2450 O.2   188  PRO188     -0.2718
     34  CB        32.4230   27.3610   55.0310 C.3   188  PRO188      0.0282
     35  CG        31.3040   28.1330   54.3010 C.3   188  PRO188      0.0208
     36  CD        31.3370   29.4920   54.9580 C.3   188  PRO188      0.0893
     37  N         34.6150   29.2220   53.2490 N.am  189  ASP189     -0.1960
     38  CA        35.4860   29.0930   52.0850 C.3   189  ASP189      0.1840
     39  C         36.7370   29.9800   52.1590 C.2   189  ASP189      0.2622
     40  O         37.3950   30.2260   51.1480 O.2   189  ASP189     -0.2715
     41  CB        34.7060   29.4270   50.8180 C.3   189  ASP189      0.1450
     42  CG        33.5060   28.5110   50.6250 C.2   189  ASP189      0.3671
     43  OD1       33.5450   27.3660   51.1400 O.co2 189  ASP189     -0.2456
     44  OD2       32.5210   28.9530   50.0060 O.co2 189  ASP189     -0.2456
     45  N         37.0280   30.5130   53.3370 N.am  190  ILE190     -0.1963
     46  CA        38.2980   31.2280   53.5230 C.3   190  ILE190      0.1727
     47  C         39.1130   30.3550   54.4810 C.2   190  ILE190      0.2616
     48  O         38.6130   29.9420   55.5190 O.2   190  ILE190     -0.2715
     49  CB        38.0810   32.6060   54.1400 C.3   190  ILE190      0.0290
     50  CG1       37.3070   33.5140   53.1740 C.3   190  ILE190      0.0022
     51  CG2       39.4240   33.2500   54.5220 C.3   190  ILE190      0.0023
     52  CD1       38.0060   33.7930   51.8800 C.3   190  ILE190      0.0001
     53  N         40.3490   30.0310   54.1170 N.am  191  ALA191     -0.1977
     54  CA        41.1660   29.2290   55.0230 C.3   191  ALA191      0.1597
     55  C         41.5910   30.0750   56.2140 C.2   191  ALA191      0.2287
     56  O         41.9460   31.2470   56.0640 O.2   191  ALA191     -0.2864
     57  CB        42.3860   28.6560   54.2950 C.3   191  ALA191      0.0319
     58  N         37.2360   24.2250   61.6040 N.3   216  ASP216     -0.1225
     59  CA        37.8310   23.8890   60.3220 C.3   216  ASP216      0.1805
     60  C         39.1140   24.6810   60.0290 C.2   216  ASP216      0.2598
     61  O         39.2860   25.2560   58.9490 O.2   216  ASP216     -0.2718
     62  CB        36.8230   24.0710   59.1720 C.3   216  ASP216      0.1424
     63  CG        37.2910   23.4110   57.8860 C.2   216  ASP216      0.3668
     64  OD1       38.0350   22.3990   57.9650 O.co2 216  ASP216     -0.2456
     65  OD2       36.9490   23.9050   56.7980 O.co2 216  ASP216     -0.2456
     66  N         40.0340   24.6730   60.9740 N.am  217  LEU217     -0.1966
     67  CA        41.3210   25.3460   60.7640 C.3   217  LEU217      0.1728
     68  C         42.2280   24.5690   59.8220 C.2   217  LEU217      0.2616
     69  O         42.2280   23.3450   59.8190 O.2   217  LEU217     -0.2715
     70  CB        42.0270   25.5220   62.1040 C.3   217  LEU217      0.0311
     71  CG        41.2550   26.3520   63.1270 C.3   217  LEU217      0.0022
     72  CD1       42.0900   26.5970   64.3600 C.3   217  LEU217      0.0001
     73  CD2       40.8680   27.6980   62.5130 C.3   217  LEU217      0.0001
     74  N         43.0130   25.2970   59.0340 N.am  218  THR218     -0.1951
     75  CA        43.9440   24.6960   58.0830 C.3   218  THR218      0.1897
     76  C         45.1820   24.1360   58.8060 C.2   218  THR218      0.2313
     77  O         45.6840   23.0460   58.4570 O.2   218  THR218     -0.2863
     78  CB        44.3090   25.6940   56.9960 C.3   218  THR218      0.1794
     79  OG1       43.1790   25.8560   56.1230 O.3   218  THR218     -0.2208
     80  CG2       45.5130   25.2180   56.1670 C.3   218  THR218      0.0378
     81  N         53.0500   19.6460   58.6350 N.3   266  PHE266     -0.1241
     82  CA        53.4700   20.6170   57.6330 C.3   266  PHE266      0.1605
     83  C         54.7740   21.2410   58.1190 C.2   266  PHE266      0.2264
     84  O         55.0400   21.2650   59.3360 O.2   266  PHE266     -0.2867
     85  CB        52.4560   21.7580   57.5380 C.3   266  PHE266      0.0534
     86  CG        51.0600   21.3470   57.0920 C.ar  266  PHE266     -0.0203
     87  CD1       50.8440   20.1510   56.4140 C.ar  266  PHE266     -0.0042
     88  CD2       49.9700   22.2130   57.3120 C.ar  266  PHE266     -0.0042
     89  CE1       49.5530   19.7950   55.9790 C.ar  266  PHE266     -0.0003
     90  CE2       48.6620   21.8560   56.8890 C.ar  266  PHE266     -0.0003
     91  CZ        48.4720   20.6380   56.2070 C.ar  266  PHE266     -0.0000
     92  N         53.8480   18.8690   53.2860 N.3   293  PRO293     -0.2116
     93  CA        53.6180   20.1310   52.5900 C.3   293  PRO293      0.1372
     94  C         54.4980   21.2520   53.1670 C.2   293  PRO293      0.2244
     95  O         54.5510   21.4280   54.3960 O.2   293  PRO293     -0.2868
     96  CB        52.1320   20.4170   52.9040 C.3   293  PRO293      0.0268
     97  CG        51.5170   18.9930   52.9530 C.3   293  PRO293      0.0207
     98  CD        52.5860   18.2390   53.7600 C.3   293  PRO293      0.0892
     99  N         56.7480   19.8240   47.2880 N.3   312  THR312     -0.1203
    100  CA        55.5500   19.8750   48.1360 C.3   312  THR312      0.1994
    101  C         55.0980   21.2840   48.5070 C.2   312  THR312      0.2618
    102  O         54.4090   21.4880   49.5190 O.2   312  THR312     -0.2717
    103  CB        55.7320   19.0460   49.4200 C.3   312  THR312      0.1784
    104  OG1       56.7380   19.6570   50.2290 O.3   312  THR312     -0.2211
    105  CG2       56.0900   17.5760   49.0810 C.3   312  THR312      0.0376
    106  N         55.4280   22.2440   47.6440 N.am  313  ALA313     -0.1965
    107  CA        55.0560   23.6470   47.8990 C.3   313  ALA313      0.1728
    108  C         53.6110   23.7680   48.3380 C.2   313  ALA313      0.2616
    109  O         52.7100   23.1680   47.7390 O.2   313  ALA313     -0.2715
    110  CB        55.2830   24.4970   46.6360 C.3   313  ALA313      0.0334
    111  N         53.3830   24.5820   49.3540 N.am  314  HIS314     -0.1959
    112  CA        52.0560   24.7030   49.9310 C.3   314  HIS314      0.1787
    113  C         51.6570   26.1840   49.8680 C.2   314  HIS314      0.2620
    114  O         51.1430   26.6300   48.8240 O.2   314  HIS314     -0.2715
    115  CB        52.1030   24.1440   51.3540 C.3   314  HIS314      0.0785
    116  CG        50.7580   23.9600   51.9880 C.ar  314  HIS314      0.0821
    117  ND1       50.6100   23.6120   53.3140 N.ar  314  HIS314     -0.2267
    118  CD2       49.5030   24.0700   51.4860 C.ar  314  HIS314      0.1154
    119  CE1       49.3210   23.4990   53.6030 C.ar  314  HIS314      0.1986
    120  NE2       48.6280   23.7650   52.5040 N.ar  314  HIS314     -0.2212
    121  N         51.9600   26.9600   50.9150 N.am  315  PHE315     -0.1974
    122  CA        51.6410   28.3980   50.9300 C.3   315  PHE315      0.1639
    123  C         52.8720   29.3090   51.0320 C.2   315  PHE315      0.2290
    124  O         53.8680   28.9480   51.6420 O.2   315  PHE315     -0.2864
    125  CB        50.8070   28.7410   52.1450 C.3   315  PHE315      0.0560
    126  CG        49.3340   28.5330   51.9560 C.ar  315  PHE315     -0.0200
    127  CD1       48.6890   27.4570   52.5600 C.ar  315  PHE315     -0.0042
    128  CD2       48.5860   29.4520   51.2150 C.ar  315  PHE315     -0.0042
    129  CE1       47.3130   27.2800   52.4420 C.ar  315  PHE315     -0.0003
    130  CE2       47.2040   29.2740   51.0720 C.ar  315  PHE315     -0.0003
    131  CZ        46.5720   28.1830   51.6960 C.ar  315  PHE315     -0.0000
@<TRIPOS>BOND
     1     7     1    1
     2     7     6    1
     3     1     2    1
     4     6     5    1
     5   110   107    1
     6     2     5    1
     7     2     3    1
     8    99   100    1
     9    14    13    1
    10    14    15    1
    11   106   107    1
    12   106   101   am
    13   109   108    2
    14   107   108    1
    15    13    12    1
    16     3     4    2
    17    15    16    2
    18   100   101    1
    19   100   103    1
    20   108   111   am
    21    17    16    1
    22   101   102    2
    23    16    18    1
    24   114   113    2
    25   105   103    1
    26    12     9    1
    27   111   112    1
    28   103   104    1
    29   113   112    1
    30   113   121   am
    31     8     9    1
    32   112   115    1
    33    44    42   ar
    34     9    10    1
    35    42    41    1
    36    42    43   ar
    37    41    38    1
    38   121   122    1
    39   122   123    1
    40   122   125    1
    41   123   124    2
    42   130   128   ar
    43   130   131   ar
    44    40    39    2
    45   128   126   ar
    46   115   116    1
    47   118   116   ar
    48   118   120   ar
    49    10    11    2
    50   131   129   ar
    51    52    50    1
    52   126   125    1
    53   126   127   ar
    54   116   117   ar
    55    38    39    1
    56    38    37    1
    57    39    45   am
    58   129   127   ar
    59   120   119   ar
    60    93    96    1
    61    93    94    1
    62    93    92    1
    63    96    97    1
    64    97    98    1
    65    94    95    2
    66    50    49    1
    67    37    32   am
    68    92    98    1
    69   117   119   ar
    70    45    46    1
    71    46    49    1
    72    46    47    1
    73    53    47   am
    74    53    54    1
    75    49    51    1
    76    32    33    2
    77    32    31    1
    78    57    54    1
    79    35    36    1
    80    35    34    1
    81    47    48    2
    82    36    30    1
    83    54    55    1
    84    34    31    1
    85    31    30    1
    86    89    91   ar
    87    89    87   ar
    88    56    55    2
    89    79    78    1
    90    80    78    1
    91    91    90   ar
    92    87    86   ar
    93    65    63   ar
    94    90    88   ar
    95    78    75    1
    96    86    88   ar
    97    86    85    1
    98    28    27    1
    99    85    82    1
   100    82    83    1
   101    82    81    1
   102    63    64   ar
   103    63    62    1
   104    75    76    1
   105    75    74    1
   106    83    84    2
   107    77    76    2
   108    27    29    1
   109    27    26    2
   110    61    60    2
   111    74    68   am
   112    62    59    1
   113    22    21    2
   114    26    25    1
   115    25    24    1
   116    69    68    2
   117    68    67    1
   118    60    59    1
   119    60    66   am
   120    59    58    1
   121    21    20    1
   122    67    66    1
   123    67    70    1
   124    24    23    1
   125    20    23    1
   126    20    19    1
   127    70    71    1
   128    73    71    1
   129    71    72    1
