@<TRIPOS>MOLECULE
tmp/3toyC02.pdb
 83 78 0 0 0
SMALL
GASTEIGER

@<TRIPOS>ATOM
      1  N         77.1510   26.8710   46.8440 N.3    80  VAL80      -0.1245
      2  CA        77.3090   25.5520   47.5050 C.3    80  VAL80       0.1561
      3  C         78.6880   25.4620   48.2030 C.2    80  VAL80       0.2260
      4  O         78.7990   24.9860   49.3540 O.2    80  VAL80      -0.2867
      5  CB        77.1310   24.3770   46.5140 C.3    80  VAL80       0.0252
      6  CG1       77.6280   23.0580   47.1370 C.3    80  VAL80       0.0019
      7  CG2       75.6830   24.2570   46.0540 C.3    80  VAL80       0.0019
      8  N         73.0610   34.1180   45.7160 N.3   111  TRP111     -0.1241
      9  CA        72.1560   33.7010   44.6510 C.3   111  TRP111      0.1605
     10  C         71.5360   34.9270   43.9320 C.2   111  TRP111      0.2264
     11  O         71.3470   34.9140   42.7060 O.2   111  TRP111     -0.2867
     12  CB        71.0410   32.7910   45.2120 C.3   111  TRP111      0.0550
     13  CG        71.4740   31.3690   45.3870 C.ar  111  TRP111      0.0003
     14  CD1       71.8260   30.7470   46.5700 C.ar  111  TRP111      0.0946
     15  CD2       71.5950   30.3860   44.3650 C.ar  111  TRP111      0.0152
     16  NE1       72.1660   29.4370   46.3240 N.ar  111  TRP111     -0.2442
     17  CE2       72.0370   29.1910   44.9810 C.ar  111  TRP111      0.0810
     18  CE3       71.3960   30.3950   42.9760 C.ar  111  TRP111      0.0012
     19  CZ2       72.2450   28.0170   44.2600 C.ar  111  TRP111      0.0191
     20  CZ3       71.6180   29.2330   42.2650 C.ar  111  TRP111      0.0001
     21  CH2       72.0360   28.0590   42.9050 C.ar  111  TRP111      0.0015
     22  N         67.0820   30.2620   37.3780 N.3   125  LEU125     -0.1231
     23  CA        68.3830   29.6340   37.5980 C.3   125  LEU125      0.1693
     24  C         68.2090   28.2370   38.2220 C.2   125  LEU125      0.2591
     25  O         68.9780   27.3060   37.9220 O.2   125  LEU125     -0.2718
     26  CB        69.2340   30.4990   38.5370 C.3   125  LEU125      0.0284
     27  CG        69.7360   31.8430   38.0090 C.3   125  LEU125      0.0019
     28  CD1       70.8210   32.3080   38.9480 C.3   125  LEU125      0.0001
     29  CD2       70.2690   31.6510   36.6130 C.3   125  LEU125      0.0001
     30  N         67.2050   28.1070   39.0830 N.am  126  LEU126     -0.1980
     31  CA        66.9500   26.8610   39.8200 C.3   126  LEU126      0.1596
     32  C         66.1660   25.8350   38.9970 C.2   126  LEU126      0.2287
     33  O         65.7500   24.7830   39.5110 O.2   126  LEU126     -0.2864
     34  CB        66.1790   27.1680   41.1050 C.3   126  LEU126      0.0297
     35  CG        66.8790   28.0930   42.0900 C.3   126  LEU126      0.0022
     36  CD1       66.0070   28.3630   43.3510 C.3   126  LEU126      0.0001
     37  CD2       68.2300   27.4600   42.4270 C.3   126  LEU126      0.0001
     38  N         70.2830   27.8240   49.4010 N.3   278  THR278     -0.1218
     39  CA        71.0190   26.5840   49.3250 C.3   278  THR278      0.1862
     40  C         70.4650   25.5600   50.3420 C.2   278  THR278      0.2287
     41  O         70.2070   24.3980   49.9780 O.2   278  THR278     -0.2866
     42  CB        72.5090   26.8670   49.5690 C.3   278  THR278      0.1770
     43  OG1       72.9850   27.7570   48.5330 O.3   278  THR278     -0.2211
     44  CG2       73.3350   25.5580   49.5420 C.3   278  THR278      0.0375
     45  N         66.7420   24.3260   49.4730 N.3   281  LEU281     -0.1231
     46  CA        66.6520   23.3090   48.4170 C.3   281  LEU281      0.1693
     47  C         66.9110   21.9100   48.9950 C.2   281  LEU281      0.2592
     48  O         66.2920   20.9260   48.6100 O.2   281  LEU281     -0.2718
     49  CB        67.6740   23.6000   47.3220 C.3   281  LEU281      0.0284
     50  CG        67.3400   24.8680   46.4920 C.3   281  LEU281      0.0019
     51  CD1       68.4970   25.2140   45.5430 C.3   281  LEU281      0.0001
     52  CD2       66.0140   24.7300   45.7420 C.3   281  LEU281      0.0001
     53  N         67.8540   21.8240   49.9130 N.am  282  ASN282     -0.1974
     54  CA        68.1020   20.5350   50.5810 C.3   282  ASN282      0.1688
     55  C         66.8440   20.0770   51.3460 C.2   282  ASN282      0.2292
     56  O         66.4080   18.9100   51.2580 O.2   282  ASN282     -0.2864
     57  CB        69.2620   20.6880   51.5880 C.3   282  ASN282      0.1181
     58  CG        70.6430   20.8730   50.9250 C.2   282  ASN282      0.2629
     59  OD1       70.8540   20.5250   49.7630 O.2   282  ASN282     -0.2716
     60  ND2       71.6030   21.3970   51.7000 N.am  282  ASN282     -0.0877
     61  N         63.7790   20.9450   50.7880 N.3   284  ALA284     -0.1231
     62  CA        62.7090   20.6310   49.8290 C.3   284  ALA284      0.1694
     63  C         62.7610   19.1610   49.4420 C.2   284  ALA284      0.2592
     64  O         61.7310   18.5020   49.2800 O.2   284  ALA284     -0.2718
     65  CB        62.8030   21.5540   48.5760 C.3   284  ALA284      0.0304
     66  N         63.9570   18.6170   49.3420 N.am  285  GLY285     -0.1957
     67  CA        64.0970   17.2060   49.0180 C.3   285  GLY285      0.1869
     68  C         63.6640   16.3690   50.2120 C.2   285  GLY285      0.2309
     69  O         63.0130   15.3480   50.0390 O.2   285  GLY285     -0.2863
     70  N         60.0730   25.6320   42.9250 N.3   309  VAL309     -0.1245
     71  CA        60.8630   24.4020   42.6850 C.3   309  VAL309      0.1561
     72  C         60.8410   23.4410   43.8920 C.2   309  VAL309      0.2260
     73  O         61.6800   22.5280   43.9910 O.2   309  VAL309     -0.2867
     74  CB        62.3360   24.7090   42.2630 C.3   309  VAL309      0.0252
     75  CG1       62.3390   25.4930   40.9190 C.3   309  VAL309      0.0019
     76  CG2       63.0960   25.5180   43.3800 C.3   309  VAL309      0.0019
     77  N         58.9120   20.5000   45.6000 N.3   311  PRO311     -0.2116
     78  CA        57.9370   19.4800   45.1850 C.3   311  PRO311      0.1372
     79  C         56.6500   19.5350   45.9940 C.2   311  PRO311      0.2244
     80  O         55.5660   19.3640   45.4190 O.2   311  PRO311     -0.2868
     81  CB        58.6670   18.1600   45.4540 C.3   311  PRO311      0.0268
     82  CG        60.1110   18.5070   45.1820 C.3   311  PRO311      0.0207
     83  CD        60.2630   19.9250   45.7540 C.3   311  PRO311      0.0892
@<TRIPOS>BOND
     1    29    27    1
     2    22    23    1
     3    23    24    1
     4    23    26    1
     5    25    24    2
     6    27    26    1
     7    27    28    1
     8    24    30   am
     9    32    33    2
    10    32    31    1
    11    30    31    1
    12    31    34    1
    13    75    74    1
    14    34    35    1
    15    35    37    1
    16    35    36    1
    17    74    71    1
    18    74    76    1
    19    20    21   ar
    20    20    18   ar
    21    71    70    1
    22    71    72    1
    23    11    10    2
    24    21    19   ar
    25    18    15   ar
    26    72    73    2
    27    10     9    1
    28    19    17   ar
    29    15    17   ar
    30    15    13   ar
    31     9    12    1
    32     9     8    1
    33    17    16   ar
    34    82    81    1
    35    82    83    1
    36    78    81    1
    37    78    77    1
    38    78    79    1
    39    12    13    1
    40    13    14   ar
    41    80    79    2
    42    51    50    1
    43    77    83    1
    44    52    50    1
    45     7     5    1
    46    16    14   ar
    47    50    49    1
    48     5     6    1
    49     5     2    1
    50     1     2    1
    51    49    46    1
    52     2     3    1
    53     3     4    2
    54    46    47    1
    55    46    45    1
    56    43    42    1
    57    65    62    1
    58    48    47    2
    59    47    53   am
    60    67    66    1
    61    67    68    1
    62    64    63    2
    63    39    38    1
    64    39    42    1
    65    39    40    1
    66    66    63   am
    67    63    62    1
    68    44    42    1
    69    59    58    2
    70    62    61    1
    71    53    54    1
    72    41    40    2
    73    69    68    2
    74    54    55    1
    75    54    57    1
    76    58    57    1
    77    58    60   am
    78    56    55    2
