@<TRIPOS>MOLECULE
tmp/3tozH00.pdb
 204 191 0 0 0
SMALL
GASTEIGER

@<TRIPOS>ATOM
      1  N         -4.2240  -43.2070    2.1000 N.3    77  LYS77      -0.1245
      2  CA        -5.4010  -43.1310    1.1940 C.3    77  LYS77       0.1561
      3  C         -5.8590  -44.4740    0.5890 C.2    77  LYS77       0.2260
      4  O         -7.0490  -44.8100    0.6420 O.2    77  LYS77      -0.2867
      5  CB        -5.1650  -42.1350    0.0580 C.3    77  LYS77       0.0271
      6  CG        -5.0580  -40.6170    0.4540 C.3    77  LYS77       0.0035
      7  CD        -4.7690  -39.8240   -0.8510 C.3    77  LYS77       0.0206
      8  CE        -4.6030  -38.3410   -0.6820 C.3    77  LYS77       0.1093
      9  NZ        -4.3210  -37.7040   -2.0070 N.3    77  LYS77      -0.1314
     10  N        -11.1670  -34.7770   -3.6690 N.3   113  ASP113     -0.1239
     11  CA       -10.3330  -34.0400   -4.6300 C.3   113  ASP113      0.1674
     12  C        -10.9600  -33.9440   -6.0250 C.2   113  ASP113      0.2266
     13  O        -10.7990  -32.9230   -6.6940 O.2   113  ASP113     -0.2867
     14  CB        -8.8780  -34.5510   -4.6440 C.3   113  ASP113      0.1410
     15  CG        -8.7800  -36.0640   -4.6610 C.2   113  ASP113      0.3668
     16  OD1       -7.6980  -36.5970   -4.3330 O.co2 113  ASP113     -0.2456
     17  OD2       -9.7990  -36.7140   -4.9740 O.co2 113  ASP113     -0.2456
     18  N         -2.3540  -37.3290  -16.8240 N.3   137  GLY137     -0.1210
     19  CA        -2.1720  -37.8780  -15.4880 C.3   137  GLY137      0.1956
     20  C         -2.8870  -39.2020  -15.2690 C.2   137  GLY137      0.2612
     21  O         -3.8960  -39.4790  -15.8910 O.2   137  GLY137     -0.2717
     22  N         -2.3250  -40.0240  -14.3940 N.am  138  ALA138     -0.1965
     23  CA        -2.9040  -41.3110  -14.0200 C.3   138  ALA138      0.1728
     24  C         -2.6510  -41.5610  -12.5340 C.2   138  ALA138      0.2617
     25  O         -2.7860  -42.6820  -12.0650 O.2   138  ALA138     -0.2715
     26  CB        -2.2990  -42.4290  -14.8420 C.3   138  ALA138      0.0334
     27  N         -2.2760  -40.5110  -11.8040 N.am  139  GLY139     -0.1940
     28  CA        -1.9930  -40.6150  -10.3860 C.3   139  GLY139      0.2014
     29  C         -3.2190  -40.4140   -9.5250 C.2   139  GLY139      0.2639
     30  O         -4.3410  -40.4200  -10.0180 O.2   139  GLY139     -0.2714
     31  N         -2.9970  -40.2200   -8.2320 N.am  140  GLY140     -0.1939
     32  CA        -4.0880  -40.0400   -7.2890 C.3   140  GLY140      0.2014
     33  C         -5.0870  -38.9800   -7.7180 C.2   140  GLY140      0.2639
     34  O         -6.2860  -39.2320   -7.7550 O.2   140  GLY140     -0.2714
     35  N         -4.5760  -37.8190   -8.0940 N.am  141  ALA141     -0.1963
     36  CA        -5.4200  -36.7030   -8.4870 C.3   141  ALA141      0.1728
     37  C         -6.1050  -36.8970   -9.8520 C.2   141  ALA141      0.2616
     38  O         -7.2740  -36.5260  -10.0200 O.2   141  ALA141     -0.2715
     39  CB        -4.5990  -35.4100   -8.4770 C.3   141  ALA141      0.0334
     40  N         -5.3900  -37.4900  -10.8140 N.am  142  ALA142     -0.1977
     41  CA        -5.9460  -37.6680  -12.1540 C.3   142  ALA142      0.1597
     42  C         -7.0630  -38.6370  -12.0630 C.2   142  ALA142      0.2287
     43  O         -8.1380  -38.4080  -12.6070 O.2   142  ALA142     -0.2864
     44  CB        -4.8990  -38.1620  -13.1310 C.3   142  ALA142      0.0319
     45  N         -0.7750  -40.1620  -20.5940 N.3   161  ASN161     -0.1225
     46  CA         0.1790  -40.4130  -19.5340 C.3   161  ASN161      0.1785
     47  C          1.3350  -41.1660  -20.1230 C.2   161  ASN161      0.2597
     48  O          1.1440  -41.9520  -21.0490 O.2   161  ASN161     -0.2718
     49  CB        -0.4230  -41.3040  -18.4540 C.3   161  ASN161      0.1169
     50  CG         0.3360  -41.2230  -17.1580 C.2   161  ASN161      0.2627
     51  OD1        0.1320  -40.2900  -16.3890 O.2   161  ASN161     -0.2716
     52  ND2        1.1910  -42.2010  -16.8910 N.am  161  ASN161     -0.0877
     53  N          2.5260  -40.9340  -19.5910 N.am  162  ARG162     -0.1979
     54  CA         3.7250  -41.6600  -20.0210 C.3   162  ARG162      0.1597
     55  C          3.5810  -43.1400  -19.6550 C.2   162  ARG162      0.2287
     56  O          2.7200  -43.5210  -18.8610 O.2   162  ARG162     -0.2864
     57  CB         4.9770  -41.1350  -19.3060 C.3   162  ARG162      0.0334
     58  CG         4.7850  -41.0920  -17.7990 C.3   162  ARG162      0.0492
     59  CD         6.0340  -41.2150  -16.9410 C.3   162  ARG162      0.2205
     60  NE         7.0090  -40.1620  -17.0660 N.pl3 162  ARG162     -0.0865
     61  CZ         7.9370  -39.8950  -16.1500 C.cat 162  ARG162      0.5346
     62  NH1        7.9770  -40.5500  -15.0020 N.pl3 162  ARG162      0.1354
     63  NH2        8.8030  -38.9250  -16.3680 N.pl3 162  ARG162      0.1354
     64  N          4.6930  -45.3650  -17.5150 N.3   164  ASP164     -0.1239
     65  CA         5.3650  -45.5610  -16.2210 C.3   164  ASP164      0.1674
     66  C          4.5370  -46.4780  -15.3100 C.2   164  ASP164      0.2266
     67  O          3.6440  -47.1650  -15.7900 O.2   164  ASP164     -0.2867
     68  CB         5.6690  -44.2080  -15.5510 C.3   164  ASP164      0.1410
     69  CG         4.4120  -43.3850  -15.2710 C.2   164  ASP164      0.3668
     70  OD1        3.2790  -43.8750  -15.5170 O.co2 164  ASP164     -0.2456
     71  OD2        4.5640  -42.2400  -14.7990 O.co2 164  ASP164     -0.2456
     72  N          2.2910  -45.7730  -13.2970 N.3   166  PHE166     -0.1241
     73  CA         0.9050  -45.2890  -13.2340 C.3   166  PHE166      0.1605
     74  C          0.0160  -45.6280  -14.4600 C.2   166  PHE166      0.2264
     75  O         -1.2150  -45.4430  -14.4030 O.2   166  PHE166     -0.2867
     76  CB         0.9000  -43.7550  -13.0390 C.3   166  PHE166      0.0534
     77  CG         1.4190  -43.3040  -11.6960 C.ar  166  PHE166     -0.0203
     78  CD1        0.5670  -43.2240  -10.6060 C.ar  166  PHE166     -0.0042
     79  CD2        2.7470  -42.9570  -11.5310 C.ar  166  PHE166     -0.0042
     80  CE1        1.0130  -42.8080   -9.3850 C.ar  166  PHE166     -0.0003
     81  CE2        3.2100  -42.5360  -10.2990 C.ar  166  PHE166     -0.0003
     82  CZ         2.3350  -42.4610   -9.2190 C.ar  166  PHE166     -0.0000
     83  N          1.4930  -40.1290  -23.7900 N.3   190  ILE190     -0.1245
     84  CA         1.7730  -38.7080  -23.8550 C.3   190  ILE190      0.1561
     85  C          2.7550  -38.4180  -25.0040 C.2   190  ILE190      0.2260
     86  O          2.8510  -37.2810  -25.4560 O.2   190  ILE190     -0.2867
     87  CB         2.3440  -38.1990  -22.5120 C.3   190  ILE190      0.0252
     88  CG1        2.4760  -36.6750  -22.5140 C.3   190  ILE190      0.0019
     89  CG2        3.6810  -38.8490  -22.2310 C.3   190  ILE190      0.0019
     90  CD1        1.1680  -35.9410  -22.7460 C.3   190  ILE190      0.0001
     91  N         -2.9080  -32.9700  -14.8530 N.3   209  ALA209     -0.1231
     92  CA        -3.1450  -33.6330  -13.5540 C.3   209  ALA209      0.1694
     93  C         -1.8920  -34.4400  -13.1440 C.2   209  ALA209      0.2593
     94  O         -1.9730  -35.4780  -12.4570 O.2   209  ALA209     -0.2718
     95  CB        -4.3780  -34.5440  -13.6310 C.3   209  ALA209      0.0304
     96  N         -0.7380  -33.9860  -13.6210 N.am  210  THR210     -0.1939
     97  CA         0.5200  -34.5980  -13.2790 C.3   210  THR210      0.2028
     98  C          1.2170  -33.5570  -12.4180 C.2   210  THR210      0.2643
     99  O          0.6850  -32.4840  -12.2060 O.2   210  THR210     -0.2714
    100  CB         1.4060  -34.8820  -14.5020 C.3   210  THR210      0.1808
    101  OG1        1.8310  -33.6380  -15.0910 O.3   210  THR210     -0.2208
    102  CG2        0.6860  -35.7330  -15.5210 C.3   210  THR210      0.0379
    103  N          2.3990  -33.8860  -11.9110 N.am  211  GLY211     -0.1939
    104  CA         3.1550  -32.9610  -11.1150 C.3   211  GLY211      0.2014
    105  C          4.0420  -32.0630  -11.9780 C.2   211  GLY211      0.2638
    106  O          4.7430  -31.2050  -11.4490 O.2   211  GLY211     -0.2714
    107  N          4.0380  -32.2770  -13.2900 N.am  212  VAL212     -0.1977
    108  CA         4.8610  -31.4870  -14.1740 C.3   212  VAL212      0.1596
    109  C          4.3260  -30.0730  -14.1010 C.2   212  VAL212      0.2287
    110  O          3.1100  -29.8690  -14.1440 O.2   212  VAL212     -0.2864
    111  CB         4.8640  -32.0230  -15.6390 C.3   212  VAL212      0.0276
    112  CG1        5.6650  -31.0910  -16.5500 C.3   212  VAL212      0.0022
    113  CG2        5.4250  -33.4200  -15.6960 C.3   212  VAL212      0.0022
    114  N          5.1640  -28.2390  -11.4800 N.3   214  MET214     -0.1245
    115  CA         5.4220  -28.0400  -10.0540 C.3   214  MET214      0.1570
    116  C          6.7740  -28.6560   -9.7230 C.2   214  MET214      0.2261
    117  O          7.2170  -29.5650  -10.4080 O.2   214  MET214     -0.2867
    118  CB         4.3230  -28.7340   -9.2330 C.3   214  MET214      0.0387
    119  CG         4.4150  -28.5740   -7.7070 C.3   214  MET214      0.0595
    120  SD         2.9730  -29.3070   -6.8870 S.3   214  MET214     -0.1393
    121  CE         3.3760  -28.9900   -5.1640 C.3   214  MET214      0.0692
    122  N          9.6190  -30.0600  -11.1460 N.3   217  PHE217     -0.1241
    123  CA         9.4300  -29.8590  -12.5670 C.3   217  PHE217      0.1605
    124  C          8.9080  -28.4400  -12.9090 C.2   217  PHE217      0.2264
    125  O          8.1690  -28.2860  -13.8930 O.2   217  PHE217     -0.2867
    126  CB         8.4350  -30.9010  -13.1270 C.3   217  PHE217      0.0534
    127  CG         8.7870  -32.3490  -12.7870 C.ar  217  PHE217     -0.0203
    128  CD1        9.7860  -33.0220  -13.4810 C.ar  217  PHE217     -0.0042
    129  CD2        8.0990  -33.0230  -11.7870 C.ar  217  PHE217     -0.0042
    130  CE1       10.0970  -34.3270  -13.1850 C.ar  217  PHE217     -0.0003
    131  CE2        8.3950  -34.3260  -11.4760 C.ar  217  PHE217     -0.0003
    132  CZ         9.4080  -34.9880  -12.1760 C.ar  217  PHE217     -0.0000
    133  N          8.7360  -26.7560  -16.6530 N.3   220  GLU220     -0.1245
    134  CA         8.4960  -27.8020  -17.6450 C.3   220  GLU220      0.1567
    135  C          7.0070  -27.9600  -17.8930 C.2   220  GLU220      0.2260
    136  O          6.1750  -27.6690  -17.0170 O.2   220  GLU220     -0.2867
    137  CB         9.0350  -29.1660  -17.2030 C.3   220  GLU220      0.0388
    138  CG        10.5180  -29.2240  -16.9410 C.3   220  GLU220      0.1160
    139  CD        11.0010  -30.6240  -16.5580 C.2   220  GLU220      0.3649
    140  OE1       11.7030  -30.7140  -15.5290 O.co2 220  GLU220     -0.2457
    141  OE2       10.6850  -31.6260  -17.2630 O.co2 220  GLU220     -0.2457
    142  N          4.1470  -30.6510  -20.3030 N.3   222  LEU222     -0.1245
    143  CA         3.9650  -31.8460  -21.1620 C.3   222  LEU222      0.1561
    144  C          3.3690  -31.4670  -22.5230 C.2   222  LEU222      0.2260
    145  O          3.2950  -32.3040  -23.4170 O.2   222  LEU222     -0.2867
    146  CB         3.1220  -32.9140  -20.4660 C.3   222  LEU222      0.0270
    147  CG         3.8460  -33.5930  -19.2830 C.3   222  LEU222      0.0019
    148  CD1        2.9880  -34.6110  -18.5150 C.3   222  LEU222      0.0001
    149  CD2        5.1280  -34.2500  -19.7870 C.3   222  LEU222      0.0001
    150  N         -3.8010  -28.6170  -12.0420 N.3   238  VAL238     -0.1231
    151  CA        -4.0410  -28.9760  -10.6680 C.3   238  VAL238      0.1692
    152  C         -3.0380  -28.2310   -9.8040 C.2   238  VAL238      0.2592
    153  O         -3.2820  -27.9710   -8.6220 O.2   238  VAL238     -0.2718
    154  CB        -3.8820  -30.4870  -10.4770 C.3   238  VAL238      0.0266
    155  CG1       -4.9850  -31.2150  -11.2570 C.3   238  VAL238      0.0020
    156  CG2       -2.4720  -30.9470  -10.9400 C.3   238  VAL238      0.0020
    157  N         -1.9130  -27.8550  -10.3950 N.am  239  VAL239     -0.1966
    158  CA        -0.8630  -27.1820   -9.6230 C.3   239  VAL239      0.1727
    159  C         -1.1970  -25.7150   -9.3650 C.2   239  VAL239      0.2616
    160  O         -1.7420  -25.0600  -10.2270 O.2   239  VAL239     -0.2715
    161  CB         0.4840  -27.2730  -10.3910 C.3   239  VAL239      0.0290
    162  CG1        1.5610  -26.4720   -9.6920 C.3   239  VAL239      0.0023
    163  CG2        0.8880  -28.7450  -10.5840 C.3   239  VAL239      0.0023
    164  N         -0.9230  -25.2220   -8.1670 N.am  240  TYR240     -0.1974
    165  CA        -1.1430  -23.7900   -7.8530 C.3   240  TYR240      0.1639
    166  C          0.0730  -23.1360   -7.1690 C.2   240  TYR240      0.2290
    167  O          0.0030  -22.0150   -6.6900 O.2   240  TYR240     -0.2864
    168  CB        -2.4140  -23.5910   -7.0310 C.3   240  TYR240      0.0560
    169  CG        -2.4030  -24.2340   -5.6680 C.ar  240  TYR240     -0.0198
    170  CD1       -2.1490  -23.4780   -4.5230 C.ar  240  TYR240     -0.0009
    171  CD2       -2.6550  -25.5940   -5.5210 C.ar  240  TYR240     -0.0009
    172  CE1       -2.1630  -24.0620   -3.2490 C.ar  240  TYR240      0.0417
    173  CE2       -2.6670  -26.1900   -4.2710 C.ar  240  TYR240      0.0417
    174  CZ        -2.4290  -25.4140   -3.1360 C.ar  240  TYR240      0.1957
    175  OH        -2.4230  -25.9980   -1.9000 O.3   240  TYR240     -0.2866
    176  N         -4.7500  -24.7260   -9.7860 N.3   261  GLY261     -0.1225
    177  CA        -5.4190  -25.6440   -8.8540 C.3   261  GLY261      0.1811
    178  C         -5.8210  -25.1050   -7.4990 C.2   261  GLY261      0.2280
    179  O         -6.1550  -25.8740   -6.6070 O.2   261  GLY261     -0.2866
    180  N         -9.4240  -26.0610   -6.6750 N.3   264  MET264     -0.1230
    181  CA        -9.5250  -27.4890   -6.3640 C.3   264  MET264      0.1702
    182  C         -9.2500  -27.7320   -4.8900 C.2   264  MET264      0.2592
    183  O        -10.0150  -28.4210   -4.2370 O.2   264  MET264     -0.2718
    184  CB        -8.5370  -28.2710   -7.1990 C.3   264  MET264      0.0401
    185  CG        -8.4740  -29.7200   -6.8880 C.3   264  MET264      0.0596
    186  SD        -7.3460  -30.6120   -7.9440 S.3   264  MET264     -0.1393
    187  CE        -7.5750  -32.2880   -7.3110 C.3   264  MET264      0.0692
    188  N         -8.1730  -27.1280   -4.3680 N.am  265  MET265     -0.1979
    189  CA        -7.7900  -27.2800   -2.9780 C.3   265  MET265      0.1605
    190  C         -8.8390  -26.7010   -2.0510 C.2   265  MET265      0.2287
    191  O         -9.1890  -27.3290   -1.0450 O.2   265  MET265     -0.2864
    192  CB        -6.4070  -26.6480   -2.7270 C.3   265  MET265      0.0413
    193  CG        -5.8830  -26.7150   -1.2520 C.3   265  MET265      0.0598
    194  SD        -6.5880  -25.4760   -0.1170 S.3   265  MET265     -0.1393
    195  CE        -6.0820  -23.9780   -0.9580 C.3   265  MET265      0.0692
    196  N        -12.0700  -28.9230   -2.3200 N.3   268  GLN268     -0.1245
    197  CA       -11.9960  -30.2910   -1.8220 C.3   268  GLN268      0.1566
    198  C        -12.1740  -30.2410   -0.2800 C.2   268  GLN268      0.2260
    199  O        -12.8150  -31.1280    0.3180 O.2   268  GLN268     -0.2867
    200  CB       -10.7380  -31.0570   -2.2590 C.3   268  GLN268      0.0367
    201  CG        -9.5290  -30.9710   -1.3570 C.3   268  GLN268      0.0905
    202  CD        -8.5050  -32.0760   -1.6610 C.2   268  GLN268      0.2608
    203  OE1       -8.1450  -32.3080   -2.8140 O.2   268  GLN268     -0.2717
    204  NE2       -8.0360  -32.7530   -0.6190 N.am  268  GLN268     -0.0878
@<TRIPOS>BOND
     1    86    85    2
     2    85    84    1
     3    84    83    1
     4    84    87    1
     5   145   144    2
     6    90    88    1
     7   144   143    1
     8    88    87    1
     9    87    89    1
    10   143   146    1
    11   143   142    1
    12    48    47    2
    13    45    46    1
    14   146   147    1
    15    47    53   am
    16    47    46    1
    17    54    55    1
    18    54    53    1
    19    54    57    1
    20   149   147    1
    21    55    56    2
    22    46    49    1
    23    57    58    1
    24   147   148    1
    25    49    50    1
    26   135   134    1
    27   135   136    2
    28    58    59    1
    29   134   137    1
    30   134   133    1
    31    64    65    1
    32   141   139   ar
    33   137   138    1
    34    50    52   am
    35    50    51    2
    36    60    59    1
    37    60    61    2
    38   138   139    1
    39    18    19    1
    40   139   140   ar
    41   112   111    1
    42    63    61    1
    43    65    68    1
    44    65    66    1
    45    61    62    1
    46    21    20    2
    47    67    66    2
    48   113   111    1
    49   111   108    1
    50    68    69    1
    51   102   100    1
    52    70    69   ar
    53    19    20    1
    54    69    71   ar
    55    20    22   am
    56   101   100    1
    57    91    92    1
    58    26    23    1
    59   100    97    1
    60    74    75    2
    61    74    73    1
    62    22    23    1
    63   108   109    1
    64   108   107    1
    65   110   109    2
    66    23    24    1
    67   125   124    2
    68    95    92    1
    69    96    97    1
    70    96    93   am
    71    92    93    1
    72   128   130   ar
    73   128   127   ar
    74    72    73    1
    75   107   105   am
    76    97    98    1
    77    73    76    1
    78   130   132   ar
    79    93    94    2
    80    44    41    1
    81   126   127    1
    82   126   123    1
    83    76    77    1
    84   124   123    1
    85   127   129   ar
    86    43    42    2
    87   123   122    1
    88    24    25    2
    89    24    27   am
    90    98    99    2
    91    98   103   am
    92   132   131   ar
    93    41    42    1
    94    41    40    1
    95   150   151    1
    96   105   106    2
    97   105   104    1
    98   103   104    1
    99    27    28    1
   100   129   131   ar
   101    77    79   ar
   102    77    78   ar
   103    79    81   ar
   104   114   115    1
   105   155   154    1
   106   156   154    1
   107    40    37   am
   108   151   154    1
   109   151   152    1
   110    78    80   ar
   111   163   161    1
   112   117   116    2
   113   157   152   am
   114   157   158    1
   115   161   162    1
   116   161   158    1
   117    28    29    1
   118    81    82   ar
   119   160   159    2
   120   115   116    1
   121   115   118    1
   122    38    37    2
   123    30    29    2
   124    37    36    1
   125   152   153    2
   126   176   177    1
   127   158   159    1
   128    29    31   am
   129    80    82   ar
   130   159   164   am
   131   118   119    1
   132   177   178    1
   133    36    39    1
   134    36    35    1
   135    31    32    1
   136   164   165    1
   137    35    33   am
   138   186   187    1
   139   186   185    1
   140   165   166    1
   141   165   168    1
   142    34    33    2
   143    33    32    1
   144   119   120    1
   145   178   179    2
   146   184   185    1
   147   184   181    1
   148   166   167    2
   149   168   169    1
   150   120   121    1
   151    13    12    2
   152   180   181    1
   153   181   182    1
   154    12    11    1
   155   169   171   ar
   156   169   170   ar
   157   171   173   ar
   158    17    15   ar
   159   182   188   am
   160   182   183    2
   161    15    14    1
   162    15    16   ar
   163    14    11    1
   164    11    10    1
   165   170   172   ar
   166   188   189    1
   167   173   174   ar
   168   172   174   ar
   169   174   175    1
   170   189   192    1
   171   189   190    1
   172   203   202    2
   173   192   193    1
   174   196   197    1
   175   200   197    1
   176   200   201    1
   177   190   191    2
   178     9     8    1
   179   197   198    1
   180   202   201    1
   181   202   204   am
   182   193   194    1
   183   195   194    1
   184     7     8    1
   185     7     6    1
   186   198   199    2
   187     5     6    1
   188     5     2    1
   189     3     4    2
   190     3     2    1
   191     2     1    1
