@<TRIPOS>MOLECULE
tmp/3tp0A00.pdb
 193 189 0 0 0
SMALL
GASTEIGER

@<TRIPOS>ATOM
      1  N         -5.7390  -34.1870    3.2400 N.3    64  LEU64      -0.1245
      2  CA        -5.4920  -32.9470    3.9820 C.3    64  LEU64       0.1561
      3  C         -4.5120  -33.1780    5.1750 C.2    64  LEU64       0.2260
      4  O         -3.5650  -32.3990    5.3400 O.2    64  LEU64      -0.2867
      5  CB        -6.7990  -32.3040    4.4570 C.3    64  LEU64       0.0270
      6  CG        -6.5260  -31.1130    5.3800 C.3    64  LEU64       0.0019
      7  CD1       -5.9140  -29.9540    4.5430 C.3    64  LEU64       0.0001
      8  CD2       -7.7630  -30.6140    6.1410 C.3    64  LEU64       0.0001
      9  N         -0.9240  -33.3630    3.6180 N.3    67  LEU67      -0.1231
     10  CA        -0.5610  -31.9970    3.3550 C.3    67  LEU67       0.1693
     11  C         -0.1360  -31.2120    4.5870 C.2    67  LEU67       0.2591
     12  O          0.8370  -30.4960    4.5350 O.2    67  LEU67      -0.2718
     13  CB        -1.7780  -31.3060    2.7400 C.3    67  LEU67       0.0284
     14  CG        -1.4470  -30.4210    1.5950 C.3    67  LEU67       0.0019
     15  CD1       -0.6100  -31.1680    0.5440 C.3    67  LEU67       0.0001
     16  CD2       -2.7930  -29.8670    1.0550 C.3    67  LEU67       0.0001
     17  N         -0.8630  -31.3710    5.6930 N.am   68  ALA68      -0.1980
     18  CA        -0.5920  -30.6730    6.9620 C.3    68  ALA68       0.1597
     19  C          0.7230  -31.0880    7.6990 C.2    68  ALA68       0.2287
     20  O          1.1100  -30.4640    8.6860 O.2    68  ALA68      -0.2864
     21  CB        -1.7830  -30.8470    7.8960 C.3    68  ALA68       0.0319
     22  N          0.0030  -22.2650   -1.0490 N.3    76  MET76      -0.1230
     23  CA        -0.2830  -23.0950    0.0980 C.3    76  MET76       0.1702
     24  C         -1.8060  -23.4300    0.1760 C.2    76  MET76       0.2592
     25  O         -2.1970  -24.6070    0.2380 O.2    76  MET76      -0.2718
     26  CB         0.2030  -22.4530    1.3990 C.3    76  MET76       0.0401
     27  CG        -0.2800  -23.2350    2.6440 C.3    76  MET76       0.0596
     28  SD         0.0030  -22.5570    4.3010 S.3    76  MET76      -0.1393
     29  CE        -1.1300  -21.1530    4.4290 C.3    76  MET76       0.0692
     30  N         -2.6350  -22.4020    0.1190 N.am   77  TRP77      -0.1976
     31  CA        -4.1080  -22.5020    0.1840 C.3    77  TRP77       0.1640
     32  C         -4.5720  -23.2170   -1.0660 C.2    77  TRP77       0.2290
     33  O         -5.4670  -24.0590   -0.9580 O.2    77  TRP77      -0.2864
     34  CB        -4.7510  -21.1020    0.2510 C.3    77  TRP77       0.0576
     35  CG        -4.5540  -20.4590    1.6300 C.ar   77  TRP77       0.0006
     36  CD1       -3.7620  -19.3640    1.9420 C.ar   77  TRP77       0.0946
     37  CD2       -5.0500  -20.9510    2.8810 C.ar   77  TRP77       0.0152
     38  NE1       -3.7850  -19.1250    3.3130 N.ar   77  TRP77      -0.2442
     39  CE2       -4.5740  -20.0820    3.9060 C.ar   77  TRP77       0.0810
     40  CE3       -5.8530  -22.0530    3.2480 C.ar   77  TRP77       0.0012
     41  CZ2       -4.9090  -20.2620    5.2660 C.ar   77  TRP77       0.0191
     42  CZ3       -6.1580  -22.2500    4.6170 C.ar   77  TRP77       0.0001
     43  CH2       -5.6890  -21.3540    5.6030 C.ar   77  TRP77       0.0015
     44  N         -3.1630  -25.5170   -2.7610 N.3    79  THR79      -0.1203
     45  CA        -2.9420  -26.9530   -2.6080 C.3    79  THR79       0.1994
     46  C         -3.9680  -27.5610   -1.6760 C.2    79  THR79       0.2618
     47  O         -4.4700  -28.6790   -1.8960 O.2    79  THR79      -0.2717
     48  CB        -1.5210  -27.2380   -2.0650 C.3    79  THR79       0.1784
     49  OG1       -0.5720  -26.6190   -2.9410 O.3    79  THR79      -0.2211
     50  CG2       -1.2310  -28.7990   -2.0480 C.3    79  THR79       0.0376
     51  N         -4.2890  -26.8390   -0.6150 N.am   80  GLY80      -0.1942
     52  CA        -5.3310  -27.3200    0.3200 C.3    80  GLY80       0.2014
     53  C         -6.6960  -27.4330   -0.3320 C.2    80  GLY80       0.2638
     54  O         -7.3690  -28.4920   -0.1990 O.2    80  GLY80      -0.2714
     55  N         -7.1720  -26.3490   -0.9610 N.am   81  ILE81      -0.1977
     56  CA        -8.5220  -26.3760   -1.6250 C.3    81  ILE81       0.1596
     57  C         -8.4770  -27.4630   -2.7340 C.2    81  ILE81       0.2287
     58  O         -9.4300  -28.2140   -2.9780 O.2    81  ILE81      -0.2864
     59  CB        -8.8440  -24.9680   -2.2320 C.3    81  ILE81       0.0276
     60  CG1       -8.8700  -23.8950   -1.1110 C.3    81  ILE81       0.0022
     61  CG2      -10.0500  -24.9820   -3.0810 C.3    81  ILE81       0.0022
     62  CD1       -8.7480  -22.3600   -1.6490 C.3    81  ILE81       0.0001
     63  N         -9.7480  -30.9950   -2.0120 N.3    84  PHE84      -0.1241
     64  CA       -11.1990  -31.1590   -1.9760 C.3    84  PHE84       0.1605
     65  C        -11.8080  -31.1510   -3.3740 C.2    84  PHE84       0.2264
     66  O        -12.7300  -31.9460   -3.6650 O.2    84  PHE84      -0.2867
     67  CB       -11.7880  -30.0520   -1.0080 C.3    84  PHE84       0.0534
     68  CG       -11.4370  -30.3210    0.4380 C.ar   84  PHE84      -0.0203
     69  CD1      -12.1830  -31.2460    1.2020 C.ar   84  PHE84      -0.0042
     70  CD2      -10.2780  -29.7880    0.9800 C.ar   84  PHE84      -0.0042
     71  CE1      -11.8400  -31.5670    2.4970 C.ar   84  PHE84      -0.0003
     72  CE2       -9.8990  -30.0850    2.2650 C.ar   84  PHE84      -0.0003
     73  CZ       -10.6420  -31.0250    3.0500 C.ar   84  PHE84      -0.0000
     74  N        -13.4560  -34.7860   -4.1840 N.3    88  PHE88      -0.1241
     75  CA       -14.9140  -34.7220   -4.4780 C.3    88  PHE88       0.1605
     76  C        -15.1270  -34.7670   -6.0040 C.2    88  PHE88       0.2264
     77  O        -16.0500  -35.4130   -6.4900 O.2    88  PHE88      -0.2867
     78  CB       -15.6050  -33.4610   -3.8530 C.3    88  PHE88       0.0534
     79  CG       -15.4630  -33.3340   -2.3310 C.ar   88  PHE88      -0.0203
     80  CD1      -15.2960  -34.4520   -1.5400 C.ar   88  PHE88      -0.0042
     81  CD2      -15.5180  -32.0900   -1.6940 C.ar   88  PHE88      -0.0042
     82  CE1      -15.1420  -34.3630   -0.1510 C.ar   88  PHE88      -0.0003
     83  CE2      -15.4130  -31.9740   -0.2920 C.ar   88  PHE88      -0.0003
     84  CZ       -15.2100  -33.1310    0.4840 C.ar   88  PHE88      -0.0000
     85  N        -21.2850  -35.4900    7.6090 N.3   112  TRP112     -0.1241
     86  CA       -20.8760  -34.2770    6.9360 C.3   112  TRP112      0.1605
     87  C        -20.4660  -33.1490    7.9380 C.2   112  TRP112      0.2264
     88  O        -19.4240  -32.4860    7.7710 O.2   112  TRP112     -0.2867
     89  CB       -21.9670  -33.7730    5.9740 C.3   112  TRP112      0.0550
     90  CG       -21.3590  -32.7100    5.1550 C.ar  112  TRP112      0.0003
     91  CD1      -21.4500  -31.3490    5.3580 C.ar  112  TRP112      0.0946
     92  CD2      -20.4640  -32.9010    4.0500 C.ar  112  TRP112      0.0152
     93  NE1      -20.6830  -30.6850    4.3980 N.ar  112  TRP112     -0.2442
     94  CE2      -20.0580  -31.6180    3.6050 C.ar  112  TRP112      0.0810
     95  CE3      -19.9510  -34.0400    3.4020 C.ar  112  TRP112      0.0012
     96  CZ2      -19.1880  -31.4440    2.5060 C.ar  112  TRP112      0.0191
     97  CZ3      -19.1020  -33.8710    2.3220 C.ar  112  TRP112      0.0001
     98  CH2      -18.6990  -32.5870    1.9010 C.ar  112  TRP112      0.0015
     99  N        -16.8570  -31.3710    8.3210 N.3   116  MET116     -0.1245
    100  CA       -16.7660  -29.9290    8.1640 C.3   116  MET116      0.1570
    101  C        -16.2070  -29.1770    9.3860 C.2   116  MET116      0.2261
    102  O        -15.4360  -28.1780    9.2230 O.2   116  MET116     -0.2867
    103  CB       -18.1360  -29.2990    7.7310 C.3   116  MET116      0.0387
    104  CG       -18.4730  -29.5160    6.1970 C.3   116  MET116      0.0595
    105  SD       -17.4840  -28.6170    4.8930 S.3   116  MET116     -0.1393
    106  CE       -16.5840  -27.4660    5.8930 C.3   116  MET116      0.0692
    107  N        -12.4500  -29.6060    9.2970 N.3   119  TRP119     -0.1241
    108  CA       -11.7480  -28.8170    8.2490 C.3   119  TRP119      0.1605
    109  C        -11.7530  -27.3650    8.5700 C.2   119  TRP119      0.2264
    110  O        -10.7270  -26.6290    8.3490 O.2   119  TRP119     -0.2867
    111  CB       -12.4080  -29.0410    6.8890 C.3   119  TRP119      0.0550
    112  CG       -12.3140  -30.5350    6.5420 C.ar  119  TRP119      0.0003
    113  CD1      -11.3440  -31.3960    7.0030 C.ar  119  TRP119      0.0946
    114  CD2      -13.1970  -31.3230    5.7370 C.ar  119  TRP119      0.0152
    115  NE1      -11.5540  -32.6570    6.5100 N.ar  119  TRP119     -0.2442
    116  CE2      -12.6790  -32.6550    5.7320 C.ar  119  TRP119      0.0810
    117  CE3      -14.3510  -31.0450    4.9740 C.ar  119  TRP119      0.0012
    118  CZ2      -13.2920  -33.7210    5.0150 C.ar  119  TRP119      0.0191
    119  CZ3      -14.9750  -32.1380    4.2400 C.ar  119  TRP119      0.0001
    120  CH2      -14.4300  -33.4460    4.2840 C.ar  119  TRP119      0.0015
    121  N         -9.2020  -26.7920   11.3490 N.3   122  TYR122     -0.1227
    122  CA        -7.8410  -26.7940   10.7510 C.3   122  TYR122      0.1736
    123  C         -7.5590  -25.4540    9.9970 C.2   122  TYR122      0.2596
    124  O         -6.5060  -24.8570   10.1680 O.2   122  TYR122     -0.2718
    125  CB        -7.5350  -28.0490    9.8860 C.3   122  TYR122      0.0548
    126  CG        -6.0290  -28.0680    9.6230 C.ar  122  TYR122     -0.0200
    127  CD1       -5.1030  -28.2850   10.6740 C.ar  122  TYR122     -0.0009
    128  CD2       -5.5300  -27.7240    8.3810 C.ar  122  TYR122     -0.0009
    129  CE1       -3.6900  -28.2030   10.4470 C.ar  122  TYR122      0.0417
    130  CE2       -4.1920  -27.6510    8.1580 C.ar  122  TYR122      0.0417
    131  CZ        -3.2680  -27.8890    9.1640 C.ar  122  TYR122      0.1957
    132  OH        -1.9420  -27.7870    8.7720 O.3   122  TYR122     -0.2866
    133  N         -8.5300  -24.9530    9.2470 N.am  123  THR123     -0.1953
    134  CA        -8.3710  -23.6740    8.5030 C.3   123  THR123      0.1897
    135  C         -8.1550  -22.5520    9.4590 C.2   123  THR123      0.2313
    136  O         -7.3020  -21.6560    9.2210 O.2   123  THR123     -0.2863
    137  CB        -9.6140  -23.3720    7.6380 C.3   123  THR123      0.1794
    138  OG1       -9.7920  -24.3910    6.6700 O.3   123  THR123     -0.2208
    139  CG2       -9.4430  -22.0460    6.8560 C.3   123  THR123      0.0378
    140  N         -4.6440  -22.5370   10.9260 N.3   126  VAL126     -0.1245
    141  CA        -3.5940  -22.0840   10.0110 C.3   126  VAL126      0.1561
    142  C         -3.6950  -20.5920    9.8890 C.2   126  VAL126      0.2260
    143  O         -2.6870  -19.8660    9.9660 O.2   126  VAL126     -0.2867
    144  CB        -3.7040  -22.7450    8.6340 C.3   126  VAL126      0.0252
    145  CG1       -2.7250  -22.1510    7.6540 C.3   126  VAL126      0.0019
    146  CG2       -3.4850  -24.2770    8.7710 C.3   126  VAL126      0.0019
    147  N        -15.1270  -22.1390    4.1770 N.3   150  ASN150     -0.1240
    148  CA       -15.3860  -23.5440    3.9710 C.3   150  ASN150      0.1653
    149  C        -16.8160  -23.7860    3.4720 C.2   150  ASN150      0.2266
    150  O        -17.0200  -24.6400    2.6150 O.2   150  ASN150     -0.2867
    151  CB       -15.1540  -24.3030    5.2620 C.3   150  ASN150      0.1155
    152  CG       -13.7440  -24.7020    5.4300 C.2   150  ASN150      0.2627
    153  OD1      -13.3540  -25.7000    4.8080 O.2   150  ASN150     -0.2716
    154  ND2      -12.9330  -23.9500    6.2420 N.am  150  ASN150     -0.0877
    155  N        -16.7620  -23.0370   -0.2440 N.3   153  ASN153     -0.1225
    156  CA       -16.1020  -24.0820   -1.0500 C.3   153  ASN153      0.1785
    157  C        -17.0780  -25.2430   -1.2330 C.2   153  ASN153      0.2597
    158  O        -17.2070  -25.7640   -2.3410 O.2   153  ASN153     -0.2718
    159  CB       -14.8120  -24.6070   -0.3470 C.3   153  ASN153      0.1169
    160  CG       -13.6550  -23.6540   -0.4770 C.2   153  ASN153      0.2627
    161  OD1      -13.8570  -22.5250   -0.8160 O.2   153  ASN153     -0.2716
    162  ND2      -12.4110  -24.1250   -0.1850 N.am  153  ASN153     -0.0877
    163  N        -17.7580  -25.6210   -0.1400 N.am  154  GLU154     -0.1979
    164  CA       -18.7240  -26.7170   -0.1840 C.3   154  GLU154      0.1602
    165  C        -19.7800  -26.4620   -1.2430 C.2   154  GLU154      0.2287
    166  O        -19.9740  -27.2890   -2.1440 O.2   154  GLU154     -0.2864
    167  CB       -19.3400  -26.9110    1.1920 C.3   154  GLU154      0.0415
    168  CG       -20.5110  -27.9480    1.2170 C.3   154  GLU154      0.1163
    169  CD       -21.3800  -27.8200    2.4190 C.2   154  GLU154      0.3649
    170  OE1      -20.8870  -27.6860    3.5610 O.co2 154  GLU154     -0.2457
    171  OE2      -22.6060  -27.8590    2.2090 O.co2 154  GLU154     -0.2457
    172  N        -18.1560  -25.9840   -4.8720 N.3   157  LEU157     -0.1245
    173  CA       -17.6630  -27.2770   -5.4120 C.3   157  LEU157      0.1561
    174  C        -18.8090  -28.0860   -5.8880 C.2   157  LEU157      0.2260
    175  O        -18.7900  -28.5440   -7.0200 O.2   157  LEU157     -0.2867
    176  CB       -16.8150  -28.1060   -4.4150 C.3   157  LEU157      0.0270
    177  CG       -15.3980  -27.5240   -4.1680 C.3   157  LEU157      0.0019
    178  CD1      -14.7800  -28.1420   -2.9050 C.3   157  LEU157      0.0001
    179  CD2      -14.4790  -27.5520   -5.4190 C.3   157  LEU157      0.0001
    180  N        -10.2170  -16.8090   -0.9460 N.3   181  TRP181     -0.1241
    181  CA        -9.5730  -17.1760    0.2970 C.3   181  TRP181      0.1605
    182  C         -8.3890  -16.2200    0.5660 C.2   181  TRP181      0.2264
    183  O         -8.2310  -15.7250    1.6830 O.2   181  TRP181     -0.2867
    184  CB        -8.9900  -18.6160    0.1840 C.3   181  TRP181      0.0550
    185  CG       -10.0540  -19.6350    0.5240 C.ar  181  TRP181      0.0003
    186  CD1      -11.2390  -19.8410   -0.1600 C.ar  181  TRP181      0.0946
    187  CD2      -10.0410  -20.5730    1.6060 C.ar  181  TRP181      0.0152
    188  NE1      -11.9530  -20.8870    0.4250 N.ar  181  TRP181     -0.2442
    189  CE2      -11.2590  -21.3490    1.5130 C.ar  181  TRP181      0.0810
    190  CE3       -9.1170  -20.8820    2.6190 C.ar  181  TRP181      0.0012
    191  CZ2      -11.5740  -22.3880    2.4300 C.ar  181  TRP181      0.0191
    192  CZ3       -9.4200  -21.9380    3.5250 C.ar  181  TRP181      0.0001
    193  CH2      -10.6450  -22.6550    3.4310 C.ar  181  TRP181      0.0015
@<TRIPOS>BOND
     1   175   174    2
     2    77    76    2
     3    76    75    1
     4   174   173    1
     5   179   177    1
     6   173   172    1
     7   173   176    1
     8    75    74    1
     9    75    78    1
    10   176   177    1
    11   177   178    1
    12    78    79    1
    13    66    65    2
    14    65    64    1
    15    61    59    1
    16    58    57    2
    17    49    48    1
    18    44    45    1
    19    57    56    1
    20    45    48    1
    21    45    46    1
    22   158   157    2
    23    79    81   ar
    24    79    80   ar
    25    59    56    1
    26    59    60    1
    27   166   165    2
    28    48    50    1
    29    63    64    1
    30    64    67    1
    31    47    46    2
    32    81    83   ar
    33    46    51   am
    34    62    60    1
    35    56    55    1
    36    80    82   ar
    37   165   164    1
    38   157   156    1
    39   157   163   am
    40    32    33    2
    41    32    31    1
    42   156   159    1
    43   156   155    1
    44    22    23    1
    45    67    68    1
    46    55    53   am
    47   180   181    1
    48   161   160    2
    49    51    52    1
    50   160   159    1
    51   160   162   am
    52    53    54    2
    53    53    52    1
    54    83    84   ar
    55   164   163    1
    56   164   167    1
    57   186   188   ar
    58   186   185   ar
    59    82    84   ar
    60    23    24    1
    61    23    26    1
    62    30    24   am
    63    30    31    1
    64    24    25    2
    65   184   181    1
    66   184   185    1
    67    31    34    1
    68    34    35    1
    69   181   182    1
    70   188   189   ar
    71    68    70   ar
    72    68    69   ar
    73   185   187   ar
    74    15    14    1
    75   182   183    2
    76    70    72   ar
    77    16    14    1
    78   167   168    1
    79    69    71   ar
    80   168   169    1
    81    26    27    1
    82   189   187   ar
    83   189   191   ar
    84    14    13    1
    85   187   190   ar
    86    35    36   ar
    87    35    37   ar
    88    98    97   ar
    89    98    96   ar
    90    36    38   ar
    91   171   169   ar
    92    72    73   ar
    93    97    95   ar
    94   169   170   ar
    95   191   193   ar
    96    71    73   ar
    97    96    94   ar
    98   150   149    2
    99   190   192   ar
   100    27    28    1
   101    13    10    1
   102    37    40   ar
   103    37    39   ar
   104     1     2    1
   105    40    42   ar
   106    38    39   ar
   107    10     9    1
   108    10    11    1
   109    95    92   ar
   110   193   192   ar
   111   149   148    1
   112    94    92   ar
   113    94    93   ar
   114    39    41   ar
   115   148   147    1
   116   148   151    1
   117     2     5    1
   118     2     3    1
   119    92    90   ar
   120   119   120   ar
   121   119   117   ar
   122   120   118   ar
   123    28    29    1
   124    93    91   ar
   125     5     6    1
   126    12    11    2
   127     7     6    1
   128    11    17   am
   129    42    43   ar
   130   153   152    2
   131   105   106    1
   132   105   104    1
   133   117   114   ar
   134   118   116   ar
   135    90    91   ar
   136    90    89    1
   137     3     4    2
   138   151   152    1
   139    41    43   ar
   140     6     8    1
   141   152   154   am
   142    17    18    1
   143   116   114   ar
   144   116   115   ar
   145   114   112   ar
   146    89    86    1
   147   104   103    1
   148   115   113   ar
   149   112   111    1
   150   112   113   ar
   151   138   137    1
   152   139   137    1
   153   111   108    1
   154    86    85    1
   155    86    87    1
   156    18    19    1
   157    18    21    1
   158   137   134    1
   159   145   144    1
   160    19    20    2
   161   103   100    1
   162    88    87    2
   163   130   128   ar
   164   130   131   ar
   165   100    99    1
   166   100   101    1
   167   108   109    1
   168   108   107    1
   169   110   109    2
   170   128   126   ar
   171   134   133    1
   172   134   135    1
   173   144   146    1
   174   144   141    1
   175   132   131    1
   176   131   129   ar
   177   136   135    2
   178   102   101    2
   179   133   123   am
   180   126   125    1
   181   126   127   ar
   182   125   122    1
   183   142   143    2
   184   142   141    1
   185   123   124    2
   186   123   122    1
   187   141   140    1
   188   129   127   ar
   189   122   121    1
