@<TRIPOS>MOLECULE
tmp/3tpiA01.pdb
 114 108 0 0 0
SMALL
GASTEIGER

@<TRIPOS>ATOM
      1  N         29.7310   60.2510   12.0650 N.3     2  VAL2       -0.1231
      2  CA        28.5810   61.1490   12.1830 C.3     2  VAL2        0.1692
      3  C         27.5330   60.5350   13.1050 C.2     2  VAL2        0.2593
      4  O         27.5770   59.3010   13.3430 O.2     2  VAL2       -0.2718
      5  CB        27.9710   61.4390   10.7980 C.3     2  VAL2        0.0266
      6  CG1       28.9650   62.1830    9.8860 C.3     2  VAL2        0.0020
      7  CG2       27.4270   60.1670   10.1200 C.3     2  VAL2        0.0020
      8  N         26.7600   61.3760   13.7570 N.am    3  GLY3       -0.1942
      9  CA        25.8290   60.9040   14.7850 C.3     3  GLY3        0.2014
     10  C         24.6450   60.1520   14.1950 C.2     3  GLY3        0.2639
     11  O         24.5300   58.9010   14.3820 O.2     3  GLY3       -0.2714
     12  N         23.8010   60.9050   13.4980 N.am    4  GLY4       -0.1954
     13  CA        22.6740   60.2800   12.8110 C.3     4  GLY4        0.1869
     14  C         23.0600   59.0570   11.9910 C.2     4  GLY4        0.2309
     15  O         24.1590   59.0270   11.3800 O.2     4  GLY4       -0.2863
     16  N         17.9520   69.1760   10.2320 N.3   123  ASN123     -0.1225
     17  CA        19.2870   69.3350    9.5610 C.3   123  ASN123      0.1785
     18  C         20.3180   68.3050   10.0470 C.2   123  ASN123      0.2598
     19  O         20.3170   67.9500   11.2480 O.2   123  ASN123     -0.2718
     20  CB        19.8100   70.7010   10.0050 C.3   123  ASN123      0.1169
     21  CG        21.0110   71.1230    9.1560 C.2   123  ASN123      0.2627
     22  OD1       21.4230   70.4210    8.1950 O.2   123  ASN123     -0.2716
     23  ND2       21.3380   72.3880    9.3310 N.am  123  ASN123     -0.0877
     24  N         21.0920   67.7640    9.1130 N.am  124  THR124     -0.1939
     25  CA        22.0790   66.7280    9.3670 C.3   124  THR124      0.2028
     26  C         23.5200   67.2540    9.4710 C.2   124  THR124      0.2642
     27  O         24.4310   66.3990    9.6550 O.2   124  THR124     -0.2714
     28  CB        21.9870   65.6690    8.2620 C.3   124  THR124      0.1808
     29  OG1       22.2760   66.3010    7.0110 O.3   124  THR124     -0.2208
     30  CG2       20.5780   65.0130    8.1910 C.3   124  THR124      0.0379
     31  N         23.7130   68.5840    9.2210 N.am  125  LYS125     -0.1963
     32  CA        25.0490   69.2850    9.2220 C.3   125  LYS125      0.1728
     33  C         25.2170   70.1930   10.4210 C.2   125  LYS125      0.2616
     34  O         24.2610   70.9160   10.7880 O.2   125  LYS125     -0.2715
     35  CB        25.3560   70.2110    8.0210 C.3   125  LYS125      0.0311
     36  CG        25.4190   69.4940    6.6640 C.3   125  LYS125      0.0038
     37  CD        25.8340   68.0370    6.8450 C.3   125  LYS125      0.0206
     38  CE        26.0150   67.2980    5.5100 C.3   125  LYS125      0.1093
     39  NZ        26.4780   65.9290    5.7690 N.3   125  LYS125     -0.1314
     40  N         26.3460   70.1130   11.0990 N.am  126  SER126     -0.1950
     41  CA        26.4750   70.8740   12.3660 C.3   126  SER126      0.1924
     42  C         26.6190   72.3350   12.0300 C.2   126  SER126      0.2314
     43  O         26.2260   73.2640   12.7860 O.2   126  SER126     -0.2863
     44  CB        27.7850   70.5390   13.1200 C.3   126  SER126      0.2116
     45  OG        27.7500   69.1990   13.6220 O.3   126  SER126     -0.2180
     46  N         16.1210   60.1060   10.2230 N.3   136  LYS136     -0.1245
     47  CA        17.3940   59.8500   10.9180 C.3   136  LYS136      0.1561
     48  C         17.1440   59.5470   12.3800 C.2   136  LYS136      0.2260
     49  O         16.2260   60.1770   12.9760 O.2   136  LYS136     -0.2867
     50  CB        18.2400   61.1350   10.9260 C.3   136  LYS136      0.0271
     51  CG        18.4690   61.6720    9.5120 C.3   136  LYS136      0.0035
     52  CD        19.2310   60.6090    8.7330 C.3   136  LYS136      0.0206
     53  CE        19.3200   60.9220    7.2610 C.3   136  LYS136      0.1093
     54  NZ        20.0500   59.8190    6.5990 N.3   136  LYS136     -0.1314
     55  N         19.5090   58.6660   16.1860 N.3   138  LEU138     -0.1245
     56  CA        20.6560   59.0020   16.9980 C.3   138  LEU138      0.1561
     57  C         20.4620   58.3960   18.3740 C.2   138  LEU138      0.2260
     58  O         19.5030   58.7540   19.0880 O.2   138  LEU138     -0.2867
     59  CB        20.8230   60.5310   17.0790 C.3   138  LEU138      0.0270
     60  CG        21.9600   61.0280   17.9900 C.3   138  LEU138      0.0019
     61  CD1       23.3780   60.8120   17.3870 C.3   138  LEU138      0.0001
     62  CD2       21.7340   62.4610   18.4940 C.3   138  LEU138      0.0001
     63  N         29.3530   66.9690   17.5080 N.3   169  GLY169     -0.1210
     64  CA        29.1320   66.1950   16.2660 C.3   169  GLY169      0.1956
     65  C         27.9660   65.2220   16.1380 C.2   169  GLY169      0.2612
     66  O         27.7520   64.5790   15.0720 O.2   169  GLY169     -0.2717
     67  N         27.3030   65.0160   17.2410 N.am  170  LYS170     -0.1965
     68  CA        26.1590   64.1100   17.3210 C.3   170  LYS170      0.1728
     69  C         25.0850   64.8670   18.1180 C.2   170  LYS170      0.2616
     70  O         25.3400   65.3050   19.2690 O.2   170  LYS170     -0.2715
     71  CB        26.5410   62.7330   17.9860 C.3   170  LYS170      0.0311
     72  CG        27.7780   62.0080   17.4360 C.3   170  LYS170      0.0038
     73  CD        27.9680   60.6860   18.2010 C.3   170  LYS170      0.0206
     74  CE        29.1990   59.8940   17.7340 C.3   170  LYS170      0.1093
     75  NZ        29.3140   58.6590   18.5200 N.3   170  LYS170     -0.1314
     76  N         24.0370   65.3230   17.4570 N.am  171  ASP171     -0.1957
     77  CA        22.9520   66.0560   18.1660 C.3   171  ASP171      0.1840
     78  C         21.5830   66.0330   17.4500 C.2   171  ASP171      0.2623
     79  O         21.4210   65.5820   16.2860 O.2   171  ASP171     -0.2715
     80  CB        23.4020   67.4860   18.3080 C.3   171  ASP171      0.1450
     81  CG        22.8160   68.1880   19.5200 C.2   171  ASP171      0.3671
     82  OD1       23.1630   69.3500   19.7940 O.co2 171  ASP171     -0.2456
     83  OD2       21.9600   67.6570   20.2360 O.co2 171  ASP171     -0.2456
     84  N         20.6790   66.7790   17.9990 N.am  172  SER172     -0.1936
     85  CA        19.4850   67.0950   17.2510 C.3   172  SER172      0.2055
     86  C         19.5460   68.5370   16.7570 C.2   172  SER172      0.2643
     87  O         20.2880   69.3690   17.3230 O.2   172  SER172     -0.2714
     88  CB        18.2390   66.8270   18.1330 C.3   172  SER172      0.2130
     89  OG        18.3660   67.5490   19.3380 O.3   172  SER172     -0.2179
     90  N         18.8450   68.8560   15.6870 N.am  173  CYS173     -0.1967
     91  CA        18.9980   70.2160   15.1380 C.3   173  CYS173      0.1712
     92  C         17.6660   70.7650   14.6180 C.2   173  CYS173      0.2296
     93  O         16.6730   70.0460   14.8160 O.2   173  CYS173     -0.2864
     94  CB        20.0420   70.0260   13.9990 C.3   173  CYS173      0.0983
     95  SG        20.9380   71.5040   13.5470 S.3   173  CYS173     -0.0798
     96  N         13.9570   69.1520   14.0870 N.3   176  ASP176     -0.1239
     97  CA        13.8120   67.9540   14.9370 C.3   176  ASP176      0.1674
     98  C         12.8740   68.1970   16.1240 C.2   176  ASP176      0.2266
     99  O         12.2790   67.2070   16.6300 O.2   176  ASP176     -0.2867
    100  CB        15.1530   67.4570   15.5350 C.3   176  ASP176      0.1410
    101  CG        15.9640   66.7410   14.4660 C.2   176  ASP176      0.3668
    102  OD1       17.1920   66.9630   14.3840 O.co2 176  ASP176     -0.2456
    103  OD2       15.3870   66.2360   13.4810 O.co2 176  ASP176     -0.2456
    104  N         23.8130   73.4740   17.0150 N.3   197  CYS197     -0.1221
    105  CA        23.7050   72.0480   17.0510 C.3   197  CYS197      0.1808
    106  C         25.1120   71.4550   17.1190 C.2   197  CYS197      0.2601
    107  O         25.9120   71.7340   16.1890 O.2   197  CYS197     -0.2717
    108  CB        23.0110   71.5720   15.7430 C.3   197  CYS197      0.0970
    109  SG        21.4130   72.3830   15.2750 S.3   197  CYS197     -0.0800
    110  N         25.1950   70.3460   17.8020 N.am  198  ALA198     -0.1979
    111  CA        26.3570   69.4220   17.7520 C.3   198  ALA198      0.1597
    112  C         27.7020   70.1600   18.0100 C.2   198  ALA198      0.2287
    113  O         28.7740   69.6290   17.6520 O.2   198  ALA198     -0.2864
    114  CB        26.4090   68.6880   16.4140 C.3   198  ALA198      0.0319
@<TRIPOS>BOND
     1    38    39    1
     2    38    37    1
     3    54    53    1
     4    36    37    1
     5    36    35    1
     6    29    28    1
     7    53    52    1
     8    35    32    1
     9    30    28    1
    10    22    21    2
    11    28    25    1
    12    52    51    1
    13    24    25    1
    14    24    18   am
    15    21    23   am
    16    21    20    1
    17    31    32    1
    18    31    26   am
    19    32    33    1
    20    25    26    1
    21    26    27    2
    22    51    50    1
    23    17    20    1
    24    17    18    1
    25    17    16    1
    26     6     5    1
    27    18    19    2
    28     7     5    1
    29    46    47    1
    30    33    34    2
    31    33    40   am
    32     5     2    1
    33    47    50    1
    34    47    48    1
    35    40    41    1
    36    15    14    2
    37    14    13    1
    38    42    41    1
    39    42    43    2
    40     1     2    1
    41     2     3    1
    42    41    44    1
    43    48    49    2
    44    13    12    1
    45     3     4    2
    46     3     8   am
    47    44    45    1
    48   103   101   ar
    49    12    10   am
    50    95    94    1
    51    95   109    1
    52     8     9    1
    53    94    91    1
    54    96    97    1
    55    10    11    2
    56    10     9    1
    57   102   101   ar
    58   101   100    1
    59    92    93    2
    60    92    91    1
    61    97   100    1
    62    97    98    1
    63    66    65    2
    64    91    90    1
    65   109   108    1
    66    90    86   am
    67   108   105    1
    68    98    99    2
    69    65    64    1
    70    65    67   am
    71    55    56    1
    72   107   106    2
    73    64    63    1
    74    79    78    2
    75   114   111    1
    76    86    85    1
    77    86    87    2
    78    56    59    1
    79    56    57    1
    80   104   105    1
    81   105   106    1
    82    59    60    1
    83   106   110   am
    84    67    68    1
    85    85    84    1
    86    85    88    1
    87    68    71    1
    88    68    69    1
    89    61    60    1
    90    72    71    1
    91    72    73    1
    92    78    84   am
    93    78    77    1
    94    76    69   am
    95    76    77    1
    96   113   112    2
    97    74    73    1
    98    74    75    1
    99   111   110    1
   100   111   112    1
   101    60    62    1
   102    69    70    2
   103    88    89    1
   104    77    80    1
   105    80    81    1
   106    57    58    2
   107    81    82   ar
   108    81    83   ar
