@<TRIPOS>MOLECULE
tmp/3tpiA00.pdb
 92 86 0 0 0
SMALL
GASTEIGER

@<TRIPOS>ATOM
      1  N         23.8010   60.9050   13.4980 N.3     4  GLY4       -0.1225
      2  CA        22.6740   60.2800   12.8110 C.3     4  GLY4        0.1811
      3  C         23.0600   59.0570   11.9910 C.2     4  GLY4        0.2280
      4  O         24.1590   59.0270   11.3800 O.2     4  GLY4       -0.2866
      5  N         16.7420   59.2930   19.6370 N.3   118  ILE118     -0.1231
      6  CA        16.1890   60.5430   19.1590 C.3   118  ILE118      0.1692
      7  C         16.1020   60.5380   17.6390 C.2   118  ILE118      0.2593
      8  O         17.0100   59.9570   17.0350 O.2   118  ILE118     -0.2718
      9  CB        17.1550   61.6380   19.6370 C.3   118  ILE118      0.0266
     10  CG1       17.3710   61.4930   21.1520 C.3   118  ILE118      0.0019
     11  CG2       16.6750   63.0410   19.2670 C.3   118  ILE118      0.0020
     12  CD1       18.2250   62.6400   21.6200 C.3   118  ILE118      0.0001
     13  N         14.9550   60.8560   17.0490 N.am  119  SER119     -0.1938
     14  CA        14.6230   60.6840   15.6260 C.3   119  SER119      0.2055
     15  C         13.9830   61.9470   15.0990 C.2   119  SER119      0.2643
     16  O         13.5620   62.7890   15.9290 O.2   119  SER119     -0.2714
     17  CB        13.6910   59.4650   15.4090 C.3   119  SER119      0.2130
     18  OG        12.6650   59.5440   16.3780 O.3   119  SER119     -0.2179
     19  N         14.2130   62.1680   13.8100 N.am  120  GLY120     -0.1954
     20  CA        13.8710   63.4630   13.2190 C.3   120  GLY120      0.1869
     21  C         14.2210   63.5580   11.7370 C.2   120  GLY120      0.2309
     22  O         15.2040   62.9290   11.2840 O.2   120  GLY120     -0.2863
     23  N         15.3040   66.6760   10.8440 N.3   122  GLY122     -0.1210
     24  CA        15.9640   67.9880   10.9730 C.3   122  GLY122      0.1956
     25  C         17.3110   68.0360   10.2380 C.2   122  GLY122      0.2612
     26  O         17.7060   67.0340    9.5980 O.2   122  GLY122     -0.2717
     27  N         17.9520   69.1760   10.2320 N.am  123  ASN123     -0.1960
     28  CA        19.2870   69.3350    9.5610 C.3   123  ASN123      0.1819
     29  C         20.3180   68.3050   10.0470 C.2   123  ASN123      0.2621
     30  O         20.3170   67.9500   11.2480 O.2   123  ASN123     -0.2715
     31  CB        19.8100   70.7010   10.0050 C.3   123  ASN123      0.1195
     32  CG        21.0110   71.1230    9.1560 C.2   123  ASN123      0.2630
     33  OD1       21.4230   70.4210    8.1950 O.2   123  ASN123     -0.2716
     34  ND2       21.3380   72.3880    9.3310 N.am  123  ASN123     -0.0877
     35  N         21.0920   67.7640    9.1130 N.am  124  THR124     -0.1951
     36  CA        22.0790   66.7280    9.3670 C.3   124  THR124      0.1897
     37  C         23.5200   67.2540    9.4710 C.2   124  THR124      0.2313
     38  O         24.4310   66.3990    9.6550 O.2   124  THR124     -0.2863
     39  CB        21.9870   65.6690    8.2620 C.3   124  THR124      0.1794
     40  OG1       22.2760   66.3010    7.0110 O.3   124  THR124     -0.2208
     41  CG2       20.5780   65.0130    8.1910 C.3   124  THR124      0.0378
     42  N         16.1210   60.1060   10.2230 N.3   136  LYS136     -0.1231
     43  CA        17.3940   59.8500   10.9180 C.3   136  LYS136      0.1693
     44  C         17.1440   59.5470   12.3800 C.2   136  LYS136      0.2592
     45  O         16.2260   60.1770   12.9760 O.2   136  LYS136     -0.2718
     46  CB        18.2400   61.1350   10.9260 C.3   136  LYS136      0.0285
     47  CG        18.4690   61.6720    9.5120 C.3   136  LYS136      0.0035
     48  CD        19.2310   60.6090    8.7330 C.3   136  LYS136      0.0206
     49  CE        19.3200   60.9220    7.2610 C.3   136  LYS136      0.1093
     50  NZ        20.0500   59.8190    6.5990 N.3   136  LYS136     -0.1314
     51  N         18.0220   58.7190   12.9060 N.am  137  CYS137     -0.1956
     52  CA        18.1310   58.2750   14.3000 C.3   137  CYS137      0.1843
     53  C         19.5070   58.4520   14.9140 C.2   137  CYS137      0.2625
     54  O         20.5000   58.6590   14.1990 O.2   137  CYS137     -0.2714
     55  CB        17.7640   56.8190   14.4430 C.3   137  CYS137      0.0997
     56  SG        16.0080   56.4630   14.1800 S.3   137  CYS137     -0.0797
     57  N         19.5090   58.6660   16.1860 N.am  138  LEU138     -0.1977
     58  CA        20.6560   59.0020   16.9980 C.3   138  LEU138      0.1596
     59  C         20.4620   58.3960   18.3740 C.2   138  LEU138      0.2287
     60  O         19.5030   58.7540   19.0880 O.2   138  LEU138     -0.2864
     61  CB        20.8230   60.5310   17.0790 C.3   138  LEU138      0.0297
     62  CG        21.9600   61.0280   17.9900 C.3   138  LEU138      0.0022
     63  CD1       23.3780   60.8120   17.3870 C.3   138  LEU138      0.0001
     64  CD2       21.7340   62.4610   18.4940 C.3   138  LEU138      0.0001
     65  N         24.0370   65.3230   17.4570 N.3   171  ASP171     -0.1225
     66  CA        22.9520   66.0560   18.1660 C.3   171  ASP171      0.1805
     67  C         21.5830   66.0330   17.4500 C.2   171  ASP171      0.2598
     68  O         21.4210   65.5820   16.2860 O.2   171  ASP171     -0.2718
     69  CB        23.4020   67.4860   18.3080 C.3   171  ASP171      0.1424
     70  CG        22.8160   68.1880   19.5200 C.2   171  ASP171      0.3668
     71  OD1       23.1630   69.3500   19.7940 O.co2 171  ASP171     -0.2456
     72  OD2       21.9600   67.6570   20.2360 O.co2 171  ASP171     -0.2456
     73  N         20.6790   66.7790   17.9990 N.am  172  SER172     -0.1938
     74  CA        19.4850   67.0950   17.2510 C.3   172  SER172      0.2055
     75  C         19.5460   68.5370   16.7570 C.2   172  SER172      0.2643
     76  O         20.2880   69.3690   17.3230 O.2   172  SER172     -0.2714
     77  CB        18.2390   66.8270   18.1330 C.3   172  SER172      0.2130
     78  OG        18.3660   67.5490   19.3380 O.3   172  SER172     -0.2179
     79  N         18.8450   68.8560   15.6870 N.am  173  CYS173     -0.1967
     80  CA        18.9980   70.2160   15.1380 C.3   173  CYS173      0.1712
     81  C         17.6660   70.7650   14.6180 C.2   173  CYS173      0.2296
     82  O         16.6730   70.0460   14.8160 O.2   173  CYS173     -0.2864
     83  CB        20.0420   70.0260   13.9990 C.3   173  CYS173      0.0983
     84  SG        20.9380   71.5040   13.5470 S.3   173  CYS173     -0.0798
     85  N         13.9570   69.1520   14.0870 N.3   176  ASP176     -0.1239
     86  CA        13.8120   67.9540   14.9370 C.3   176  ASP176      0.1674
     87  C         12.8740   68.1970   16.1240 C.2   176  ASP176      0.2266
     88  O         12.2790   67.2070   16.6300 O.2   176  ASP176     -0.2867
     89  CB        15.1530   67.4570   15.5350 C.3   176  ASP176      0.1410
     90  CG        15.9640   66.7410   14.4660 C.2   176  ASP176      0.3668
     91  OD1       17.1920   66.9630   14.3840 O.co2 176  ASP176     -0.2456
     92  OD2       15.3870   66.2360   13.4810 O.co2 176  ASP176     -0.2456
@<TRIPOS>BOND
     1    50    49    1
     2    40    39    1
     3    49    48    1
     4    41    39    1
     5    33    32    2
     6    39    36    1
     7    48    47    1
     8    35    36    1
     9    35    29   am
    10    32    34   am
    11    32    31    1
    12    36    37    1
    13    37    38    2
    14    47    46    1
    15    28    31    1
    16    28    29    1
    17    28    27    1
    18    26    25    2
    19    29    30    2
    20    42    43    1
    21    27    25   am
    22    25    24    1
    23    23    24    1
    24    43    46    1
    25    43    44    1
    26    22    21    2
    27     4     3    2
    28    21    20    1
    29     3     2    1
    30    44    51   am
    31    44    45    2
    32     2     1    1
    33    51    52    1
    34    20    19    1
    35    92    90   ar
    36    84    83    1
    37    19    15   am
    38    83    80    1
    39    85    86    1
    40    56    55    1
    41    54    53    2
    42    52    55    1
    43    52    53    1
    44    91    90   ar
    45    90    89    1
    46    81    82    2
    47    81    80    1
    48    53    57   am
    49    86    89    1
    50    86    87    1
    51    15    14    1
    52    15    16    2
    53    80    79    1
    54    17    14    1
    55    17    18    1
    56    14    13    1
    57    79    75   am
    58    87    88    2
    59    57    58    1
    60    68    67    2
    61    75    74    1
    62    75    76    2
    63    58    61    1
    64    58    59    1
    65     8     7    2
    66    13     7   am
    67    61    62    1
    68    74    73    1
    69    74    77    1
    70    63    62    1
    71    67    73   am
    72    67    66    1
    73    65    66    1
    74     7     6    1
    75    62    64    1
    76    77    78    1
    77    66    69    1
    78    69    70    1
    79    59    60    2
    80     6     9    1
    81     6     5    1
    82    11     9    1
    83    70    71   ar
    84    70    72   ar
    85     9    10    1
    86    10    12    1
