@<TRIPOS>MOLECULE
tmp/3tpkA00.pdb
 105 96 0 0 0
SMALL
GASTEIGER

@<TRIPOS>ATOM
      1  N         -8.0540    1.4450  -13.6340 N.3     4  LEU4       -0.1245
      2  CA        -7.0080    1.9730  -12.7620 C.3     4  LEU4        0.1561
      3  C         -7.6440    2.4210  -11.4510 C.2     4  LEU4        0.2260
      4  O         -8.7910    2.9540  -11.4690 O.2     4  LEU4       -0.2867
      5  CB        -6.3110    3.1800  -13.4270 C.3     4  LEU4        0.0270
      6  CG        -5.8360    2.9200  -14.8630 C.3     4  LEU4        0.0019
      7  CD1       -5.1980    4.2030  -15.3880 C.3     4  LEU4        0.0001
      8  CD2       -4.8470    1.7550  -14.9010 C.3     4  LEU4        0.0001
      9  N         -1.1750    3.8440   -8.3500 N.3    22  CYS22      -0.1235
     10  CA        -2.1310    3.6820   -9.4690 C.3    22  CYS22       0.1677
     11  C         -2.0720    2.2110   -9.8150 C.2    22  CYS22       0.2270
     12  O         -1.0860    1.7560  -10.4630 O.2    22  CYS22      -0.2867
     13  CB        -1.6250    4.5000  -10.6350 C.3    22  CYS22       0.0956
     14  SG        -2.6190    4.2760  -12.1420 S.3    22  CYS22      -0.0801
     15  N         -3.3310   -1.0950  -11.6220 N.3    24  ALA24      -0.1245
     16  CA        -4.0440   -1.3870  -12.9010 C.3    24  ALA24       0.1562
     17  C         -4.5300   -2.8170  -12.8790 C.2    24  ALA24       0.2260
     18  O         -3.8810   -3.7470  -12.2960 O.2    24  ALA24      -0.2867
     19  CB        -3.1470   -1.2050  -14.0740 C.3    24  ALA24       0.0290
     20  N         -3.9650   -4.7230  -19.7400 N.3    28  THR28      -0.1203
     21  CA        -3.2760   -3.4650  -19.7160 C.3    28  THR28       0.1994
     22  C         -2.0740   -3.3740  -20.6390 C.2    28  THR28       0.2617
     23  O         -1.4750   -2.2810  -20.7740 O.2    28  THR28      -0.2717
     24  CB        -2.8360   -3.1330  -18.2820 C.3    28  THR28       0.1784
     25  OG1       -2.0850   -4.2020  -17.7210 O.3    28  THR28      -0.2211
     26  CG2       -4.0770   -2.9160  -17.3590 C.3    28  THR28       0.0376
     27  N         -1.7550   -4.4460  -21.3490 N.am   29  PHE29      -0.1975
     28  CA        -0.5330   -4.4110  -22.1630 C.3    29  PHE29       0.1639
     29  C         -0.5180   -3.2930  -23.2430 C.2    29  PHE29       0.2290
     30  O          0.5990   -2.8190  -23.5470 O.2    29  PHE29      -0.2864
     31  CB        -0.3200   -5.7740  -22.9230 C.3    29  PHE29       0.0560
     32  CG        -1.2920   -5.9800  -24.0420 C.ar   29  PHE29      -0.0200
     33  CD1       -0.9590   -5.6420  -25.3640 C.ar   29  PHE29      -0.0042
     34  CD2       -2.5780   -6.3890  -23.7970 C.ar   29  PHE29      -0.0042
     35  CE1       -1.9470   -5.7290  -26.3890 C.ar   29  PHE29      -0.0003
     36  CE2       -3.5770   -6.4540  -24.8380 C.ar   29  PHE29      -0.0003
     37  CZ        -3.2010   -6.1420  -26.1330 C.ar   29  PHE29      -0.0000
     38  N         -1.4770   -0.2510  -22.9220 N.3    31  GLN31      -0.1231
     39  CA        -1.5230    1.0820  -22.3030 C.3    31  GLN31       0.1698
     40  C         -0.1250    1.4500  -21.8210 C.2    31  GLN31       0.2592
     41  O          0.1720    1.4860  -20.6090 O.2    31  GLN31      -0.2718
     42  CB        -2.5090    1.0430  -21.1480 C.3    31  GLN31       0.0381
     43  CG        -3.8720    0.6670  -21.5960 C.3    31  GLN31       0.0905
     44  CD        -4.4330    1.5990  -22.5990 C.2    31  GLN31       0.2608
     45  OE1       -4.4470    2.8080  -22.3920 O.2    31  GLN31      -0.2717
     46  NE2       -4.9460    1.0610  -23.6940 N.am   31  GLN31      -0.0878
     47  N          0.7440    1.7590  -22.7880 N.am   32  GLU32      -0.1979
     48  CA         2.1620    1.9650  -22.5620 C.3    32  GLU32       0.1602
     49  C          2.5650    3.2240  -21.8810 C.2    32  GLU32       0.2287
     50  O          3.6540    3.2880  -21.3610 O.2    32  GLU32      -0.2864
     51  CB         2.8310    1.8440  -23.9920 C.3    32  GLU32       0.0415
     52  CG         2.5300    0.4220  -24.6000 C.3    32  GLU32       0.1163
     53  CD         3.6680   -0.1050  -25.4910 C.2    32  GLU32       0.3649
     54  OE1        4.6890   -0.6220  -24.9670 O.co2  32  GLU32      -0.2457
     55  OE2        3.4970    0.0000  -26.6790 O.co2  32  GLU32      -0.2457
     56  N          1.5640    6.1940  -18.9750 N.3    34  VAL34      -0.1245
     57  CA         0.6740    6.4610  -17.8020 C.3    34  VAL34       0.1561
     58  C          0.9530    7.8800  -17.3280 C.2    34  VAL34       0.2260
     59  O          2.1310    8.3070  -17.2840 O.2    34  VAL34      -0.2867
     60  CB         0.9610    5.4540  -16.7070 C.3    34  VAL34       0.0252
     61  CG1        0.0800    5.6930  -15.4710 C.3    34  VAL34       0.0019
     62  CG2        0.7480    4.0360  -17.2930 C.3    34  VAL34       0.0019
     63  N          6.1180    3.2090  -19.9190 N.3    53  LEU53      -0.1245
     64  CA         6.4120    1.9590  -19.2470 C.3    53  LEU53       0.1561
     65  C          7.3500    1.1060  -19.9870 C.2    53  LEU53       0.2260
     66  O          8.0080    0.2910  -19.3660 O.2    53  LEU53      -0.2867
     67  CB         5.2020    1.1250  -18.9430 C.3    53  LEU53       0.0270
     68  CG         4.2010    1.8470  -18.0490 C.3    53  LEU53       0.0019
     69  CD1        2.9200    1.0210  -17.9610 C.3    53  LEU53       0.0001
     70  CD2        4.7880    2.2060  -16.7000 C.3    53  LEU53       0.0001
     71  N          6.2650   -3.5740  -12.1100 N.3    74  ASN74      -0.1240
     72  CA         5.5070   -4.3760  -13.0600 C.3    74  ASN74       0.1653
     73  C          4.8970   -5.5900  -12.3720 C.2    74  ASN74       0.2266
     74  O          3.7330   -5.9630  -12.7230 O.2    74  ASN74      -0.2867
     75  CB         6.3750   -4.8040  -14.2040 C.3    74  ASN74       0.1155
     76  CG         6.6470   -3.7000  -15.2050 C.2    74  ASN74       0.2627
     77  OD1        6.1310   -2.5450  -15.1290 O.2    74  ASN74      -0.2716
     78  ND2        7.4390   -4.0460  -16.1790 N.am   74  ASN74      -0.0877
     79  N          1.7300   -4.5130  -11.1980 N.3    77  ASN77      -0.1225
     80  CA         1.0270   -3.7700  -12.2300 C.3    77  ASN77       0.1785
     81  C          0.6070   -2.3970  -11.6780 C.2    77  ASN77       0.2598
     82  O         -0.5450   -1.9770  -11.8200 O.2    77  ASN77      -0.2718
     83  CB        -0.2120   -4.5350  -12.7610 C.3    77  ASN77       0.1169
     84  CG        -0.5390   -4.1650  -14.1770 C.2    77  ASN77       0.2627
     85  OD1        0.2250   -3.4180  -14.7810 O.2    77  ASN77      -0.2716
     86  ND2       -1.6290   -4.6720  -14.7230 N.am   77  ASN77      -0.0877
     87  N          1.5750   -1.6800  -11.0890 N.am   78  THR78      -0.1939
     88  CA         1.2950   -0.4170  -10.3670 C.3    78  THR78       0.2028
     89  C          2.2640    0.6570  -10.8740 C.2    78  THR78       0.2642
     90  O          3.4360    0.3720  -11.1540 O.2    78  THR78      -0.2714
     91  CB         1.3920   -0.6530   -8.8570 C.3    78  THR78       0.1808
     92  OG1        0.3410   -1.5610   -8.4910 O.3    78  THR78      -0.2208
     93  CG2        1.2220    0.6560   -8.0710 C.3    78  THR78       0.0379
     94  N          1.7890    1.9140  -10.9270 N.am   79  VAL79      -0.1977
     95  CA         2.6520    3.0630  -11.1020 C.3    79  VAL79       0.1596
     96  C          2.5000    3.9340   -9.8440 C.2    79  VAL79       0.2287
     97  O          1.4150    4.1010   -9.3440 O.2    79  VAL79      -0.2864
     98  CB         2.2390    3.8780  -12.3750 C.3    79  VAL79       0.0276
     99  CG1        2.8890    5.2370  -12.3850 C.3    79  VAL79       0.0022
    100  CG2        2.6860    3.0680  -13.5970 C.3    79  VAL79       0.0022
    101  N         -4.1690    6.2830  -18.6260 N.3    98  ALA98      -0.1245
    102  CA        -3.1910    5.5800  -19.4910 C.3    98  ALA98       0.1562
    103  C         -3.6200    5.6290  -20.9380 C.2    98  ALA98       0.2260
    104  O         -4.7920    5.8660  -21.2210 O.2    98  ALA98      -0.2867
    105  CB        -3.0190    4.1230  -19.0410 C.3    98  ALA98       0.0290
@<TRIPOS>BOND
     1    55    53   ar
     2    35    37   ar
     3    35    33   ar
     4    37    36   ar
     5    53    54   ar
     6    53    52    1
     7    33    32   ar
     8    36    34   ar
     9    52    51    1
    10    32    34   ar
    11    32    31    1
    12    51    48    1
    13    46    44   am
    14    30    29    2
    15    29    28    1
    16    31    28    1
    17    38    39    1
    18    47    48    1
    19    47    40   am
    20    44    45    2
    21    44    43    1
    22    48    49    1
    23    39    40    1
    24    39    42    1
    25    28    27    1
    26    49    50    2
    27    40    41    2
    28    43    42    1
    29    27    22   am
    30   104   103    2
    31   103   102    1
    32    23    22    2
    33    22    21    1
    34    65    66    2
    35    65    64    1
    36    63    64    1
    37    20    21    1
    38    21    24    1
    39   102   105    1
    40   102   101    1
    41    64    67    1
    42    56    57    1
    43    67    68    1
    44    24    25    1
    45    24    26    1
    46    68    69    1
    47    68    70    1
    48    57    58    1
    49    57    60    1
    50    58    59    2
    51    62    60    1
    52    60    61    1
    53    78    76   am
    54     7     6    1
    55    76    77    2
    56    76    75    1
    57     8     6    1
    58     6     5    1
    59    85    84    2
    60    86    84   am
    61    75    72    1
    62    84    83    1
    63    19    16    1
    64     1     2    1
    65   100    98    1
    66     5     2    1
    67    72    73    1
    68    72    71    1
    69    16    17    1
    70    16    15    1
    71    17    18    2
    72     2     3    1
    73    83    80    1
    74    74    73    2
    75    99    98    1
    76    98    95    1
    77    80    81    1
    78    80    79    1
    79    14    13    1
    80    82    81    2
    81    81    87   am
    82     4     3    2
    83    90    89    2
    84    95    94    1
    85    95    96    1
    86    87    88    1
    87    94    89   am
    88    89    88    1
    89    13    10    1
    90    12    11    2
    91    88    91    1
    92    96    97    2
    93    11    10    1
    94    10     9    1
    95    91    92    1
    96    91    93    1
