@<TRIPOS>MOLECULE
tmp/3tptA00.pdb
 204 193 0 0 0
SMALL
GASTEIGER

@<TRIPOS>ATOM
      1  N          4.3710   -4.7930   19.2890 N.3    97  VAL97      -0.1245
      2  CA         3.1190   -4.9690   20.0150 C.3    97  VAL97       0.1561
      3  C          2.8310   -6.4560   20.2430 C.2    97  VAL97       0.2260
      4  O          2.9590   -7.2660   19.3310 O.2    97  VAL97      -0.2867
      5  CB         1.9540   -4.3180   19.2520 C.3    97  VAL97       0.0252
      6  CG1        0.6420   -4.6990   19.8760 C.3    97  VAL97       0.0019
      7  CG2        2.1240   -2.7990   19.2750 C.3    97  VAL97       0.0019
      8  N          6.0770   -0.1830   16.2520 N.3   142  VAL142     -0.1231
      9  CA         4.7120    0.0440   16.7190 C.3   142  VAL142      0.1692
     10  C          3.8690    0.4180   15.5040 C.2   142  VAL142      0.2592
     11  O          4.3540    1.0890   14.5960 O.2   142  VAL142     -0.2718
     12  CB         4.6350    1.1860   17.7550 C.3   142  VAL142      0.0266
     13  CG1        3.2380    1.2240   18.3820 C.3   142  VAL142      0.0020
     14  CG2        5.7250    1.0040   18.8190 C.3   142  VAL142      0.0020
     15  N          2.6180   -0.0350   15.4790 N.am  143  ALA143     -0.1966
     16  CA         1.7260    0.2660   14.3650 C.3   143  ALA143      0.1728
     17  C          1.0600    1.6160   14.5620 C.2   143  ALA143      0.2617
     18  O          1.4090    2.3710   15.4620 O.2   143  ALA143     -0.2715
     19  CB         0.6610   -0.8330   14.2080 C.3   143  ALA143      0.0334
     20  N          0.0890    1.9090   13.7110 N.am  144  GLY144     -0.1940
     21  CA        -0.6000    3.1770   13.7890 C.3   144  GLY144      0.2014
     22  C          0.0880    4.1190   12.8320 C.2   144  GLY144      0.2639
     23  O          1.1980    3.8430   12.3870 O.2   144  GLY144     -0.2714
     24  N         -0.5610    5.2290   12.5100 N.am  145  ALA145     -0.1963
     25  CA         0.0230    6.1920   11.5890 C.3   145  ALA145      0.1728
     26  C          0.5520    7.4060   12.3340 C.2   145  ALA145      0.2616
     27  O          1.3760    8.1570   11.8100 O.2   145  ALA145     -0.2715
     28  CB        -1.0110    6.6160   10.5610 C.3   145  ALA145      0.0334
     29  N          0.0840    7.5910   13.5610 N.am  146  GLN146     -0.1977
     30  CA         0.5130    8.7300   14.3580 C.3   146  GLN146      0.1601
     31  C          1.9700    8.5910   14.7750 C.2   146  GLN146      0.2287
     32  O          2.3970    7.5210   15.2100 O.2   146  GLN146     -0.2864
     33  CB        -0.3700    8.8650   15.5990 C.3   146  GLN146      0.0394
     34  CG        -0.2650   10.2120   16.2860 C.3   146  GLN146      0.0908
     35  CD        -1.2910   10.3780   17.3850 C.2   146  GLN146      0.2608
     36  OE1       -2.4600   10.0230   17.2180 O.2   146  GLN146     -0.2717
     37  NE2       -0.8640   10.9340   18.5150 N.am  146  GLN146     -0.0878
     38  N          5.1670    8.3460   16.7700 N.3   148  LYS148     -0.1245
     39  CA         5.3550    7.8680   18.1340 C.3   148  LYS148      0.1561
     40  C          6.7210    7.2170   18.3710 C.2   148  LYS148      0.2260
     41  O          7.6110    7.2620   17.5210 O.2   148  LYS148     -0.2867
     42  CB         4.2620    6.8470   18.4680 C.3   148  LYS148      0.0271
     43  CG         4.3390    5.5840   17.6210 C.3   148  LYS148      0.0035
     44  CD         3.2830    4.5550   18.0190 C.3   148  LYS148      0.0206
     45  CE         1.8920    4.9770   17.5880 C.3   148  LYS148      0.1093
     46  NZ         1.7730    4.9330   16.1070 N.3   148  LYS148     -0.1314
     47  N          3.9880    3.5370   25.1700 N.3   170  ILE170     -0.1245
     48  CA         4.0220    3.9930   23.7940 C.3   170  ILE170      0.1561
     49  C          3.9850    5.4960   24.0200 C.2   170  ILE170      0.2260
     50  O          3.2150    5.9720   24.8630 O.2   170  ILE170     -0.2867
     51  CB         2.7690    3.5920   22.9950 C.3   170  ILE170      0.0252
     52  CG1        2.5830    2.0740   23.0150 C.3   170  ILE170      0.0019
     53  CG2        2.8910    4.1010   21.5690 C.3   170  ILE170      0.0019
     54  CD1        3.7520    1.2990   22.4710 C.3   170  ILE170      0.0001
     55  N          3.4660    9.2320   22.2080 N.3   172  LYS172     -0.1245
     56  CA         2.9870    9.9090   21.0080 C.3   172  LYS172      0.1561
     57  C          3.4440   11.3600   21.0050 C.2   172  LYS172      0.2260
     58  O          3.2320   12.0810   21.9750 O.2   172  LYS172     -0.2867
     59  CB         1.4600    9.8390   20.9230 C.3   172  LYS172      0.0271
     60  CG         0.9190    8.4250   20.8150 C.3   172  LYS172      0.0035
     61  CD        -0.5560    8.4550   20.5480 C.3   172  LYS172      0.0206
     62  CE        -1.1570    7.0750   20.5810 C.3   172  LYS172      0.1093
     63  NZ        -2.6110    7.1690   20.2700 N.3   172  LYS172     -0.1314
     64  N         -6.2500   13.2670   23.1770 N.3   181  GLU181     -0.1245
     65  CA        -6.2800   11.8870   23.6420 C.3   181  GLU181      0.1567
     66  C         -6.2510   11.7990   25.1690 C.2   181  GLU181      0.2260
     67  O         -7.0600   11.0920   25.7740 O.2   181  GLU181     -0.2867
     68  CB        -5.1160   11.0970   23.0300 C.3   181  GLU181      0.0388
     69  CG        -5.1100    9.6230   23.4220 C.3   181  GLU181      0.1160
     70  CD        -4.2710    8.7570   22.4830 C.2   181  GLU181      0.3649
     71  OE1       -3.4090    9.3010   21.7560 O.co2 181  GLU181     -0.2457
     72  OE2       -4.4630    7.5250   22.4780 O.co2 181  GLU181     -0.2457
     73  N         -6.1290    2.1270   29.0290 N.3   196  PRO196     -0.2116
     74  CA        -4.8220    2.2750   29.6760 C.3   196  PRO196      0.1372
     75  C         -4.6620    3.6220   30.3700 C.2   196  PRO196      0.2244
     76  O         -5.4160    4.5660   30.1220 O.2   196  PRO196     -0.2868
     77  CB        -3.8460    2.1100   28.5130 C.3   196  PRO196      0.0268
     78  CG        -4.6100    2.7130   27.3680 C.3   196  PRO196      0.0207
     79  CD        -5.9840    2.1060   27.5630 C.3   196  PRO196      0.0892
     80  N          1.6420    6.4430   27.1250 N.3   211  VAL211     -0.1231
     81  CA         0.5600    5.5230   27.4470 C.3   211  VAL211      0.1692
     82  C          1.1170    4.2090   27.9930 C.2   211  VAL211      0.2592
     83  O          2.0210    3.6130   27.4050 O.2   211  VAL211     -0.2718
     84  CB        -0.3070    5.2290   26.1960 C.3   211  VAL211      0.0266
     85  CG1       -1.5210    4.3880   26.5810 C.3   211  VAL211      0.0020
     86  CG2       -0.7550    6.5410   25.5560 C.3   211  VAL211      0.0020
     87  N          0.5870    3.7680   29.1300 N.am  212  GLU212     -0.1966
     88  CA         1.0400    2.5190   29.7220 C.3   212  GLU212      0.1733
     89  C          0.5680    1.3780   28.8410 C.2   212  GLU212      0.2616
     90  O         -0.5870    1.3410   28.4270 O.2   212  GLU212     -0.2715
     91  CB         0.4790    2.3500   31.1350 C.3   212  GLU212      0.0429
     92  CG         1.0690    3.3150   32.1490 C.3   212  GLU212      0.1163
     93  CD         0.6040    3.0370   33.5670 C.2   212  GLU212      0.3649
     94  OE1        1.0170    3.7880   34.4800 O.co2 212  GLU212     -0.2457
     95  OE2       -0.1710    2.0740   33.7690 O.co2 212  GLU212     -0.2457
     96  N          1.4740    0.4540   28.5520 N.am  213  ARG213     -0.1963
     97  CA         1.1660   -0.6910   27.7040 C.3   213  ARG213      0.1729
     98  C          0.4950   -1.8290   28.4450 C.2   213  ARG213      0.2616
     99  O          0.8930   -2.1770   29.5520 O.2   213  ARG213     -0.2715
    100  CB         2.4480   -1.1880   27.0480 C.3   213  ARG213      0.0348
    101  CG         3.1230   -0.1210   26.2260 C.3   213  ARG213      0.0492
    102  CD         4.3190   -0.6600   25.4980 C.3   213  ARG213      0.2205
    103  NE         3.9550   -1.7300   24.5790 N.pl3 213  ARG213     -0.0865
    104  CZ         4.6200   -1.9880   23.4620 C.cat 213  ARG213      0.5346
    105  NH1        4.2430   -2.9770   22.6660 N.pl3 213  ARG213      0.1354
    106  NH2        5.6610   -1.2370   23.1370 N.pl3 213  ARG213      0.1354
    107  N         -0.5430   -2.4020   27.8490 N.am  214  PHE214     -0.1960
    108  CA        -1.2130   -3.5180   28.4930 C.3   214  PHE214      0.1771
    109  C         -0.7600   -4.8450   27.8950 C.2   214  PHE214      0.2619
    110  O         -1.3750   -5.8770   28.1280 O.2   214  PHE214     -0.2715
    111  CB        -2.7420   -3.3750   28.4160 C.3   214  PHE214      0.0574
    112  CG        -3.2600   -2.9850   27.0610 C.ar  214  PHE214     -0.0200
    113  CD1       -3.1380   -3.8480   25.9750 C.ar  214  PHE214     -0.0042
    114  CD2       -3.8660   -1.7460   26.8740 C.ar  214  PHE214     -0.0042
    115  CE1       -3.6120   -3.4840   24.7120 C.ar  214  PHE214     -0.0003
    116  CE2       -4.3440   -1.3640   25.6140 C.ar  214  PHE214     -0.0003
    117  CZ        -4.2150   -2.2390   24.5280 C.ar  214  PHE214     -0.0000
    118  N          0.3250   -4.8040   27.1250 N.am  215  ASP215     -0.1971
    119  CA         0.8800   -6.0050   26.5170 C.3   215  ASP215      0.1709
    120  C          2.2420   -6.2530   27.1660 C.2   215  ASP215      0.2293
    121  O          3.1020   -6.9530   26.6370 O.2   215  ASP215     -0.2864
    122  CB         1.0140   -5.8310   24.9960 C.3   215  ASP215      0.1436
    123  CG         1.9770   -4.7210   24.6090 C.2   215  ASP215      0.3671
    124  OD1        2.2020   -3.8070   25.4330 O.co2 215  ASP215     -0.2456
    125  OD2        2.4980   -4.7620   23.4700 O.co2 215  ASP215     -0.2456
    126  N         -0.7540  -10.6950   21.9860 N.3   230  GLN230     -0.1245
    127  CA        -1.8880   -9.8570   21.6460 C.3   230  GLN230      0.1566
    128  C         -1.8900   -9.5390   20.1540 C.2   230  GLN230      0.2260
    129  O         -0.8360   -9.4290   19.5430 O.2   230  GLN230     -0.2867
    130  CB        -1.7730   -8.5540   22.4400 C.3   230  GLN230      0.0367
    131  CG        -2.6670   -7.4270   21.9660 C.3   230  GLN230      0.0905
    132  CD        -2.2930   -6.0830   22.5750 C.2   230  GLN230      0.2608
    133  OE1       -2.1570   -5.9540   23.7960 O.2   230  GLN230     -0.2717
    134  NE2       -2.1330   -5.0740   21.7280 N.am  230  GLN230     -0.0878
    135  N         -4.2870   -7.2840   16.8830 N.3   232  ASP232     -0.1239
    136  CA        -5.4210   -6.4390   16.5090 C.3   232  ASP232      0.1674
    137  C         -6.3600   -7.2130   15.5560 C.2   232  ASP232      0.2266
    138  O         -5.9900   -8.2580   15.0160 O.2   232  ASP232     -0.2867
    139  CB        -4.9280   -5.1290   15.8560 C.3   232  ASP232      0.1410
    140  CG        -4.2190   -5.3460   14.5230 C.2   232  ASP232      0.3668
    141  OD1       -3.1990   -4.6630   14.2720 O.co2 232  ASP232     -0.2456
    142  OD2       -4.6840   -6.1780   13.7190 O.co2 232  ASP232     -0.2456
    143  N        -12.2890    7.2590   14.1470 N.3   287  GLN287     -0.1245
    144  CA       -11.2610    6.2830   13.7840 C.3   287  GLN287      0.1566
    145  C        -11.2690    4.9360   14.5280 C.2   287  GLN287      0.2260
    146  O        -10.2120    4.3800   14.8320 O.2   287  GLN287     -0.2867
    147  CB        -9.8810    6.9290   13.9240 C.3   287  GLN287      0.0367
    148  CG        -9.6650    8.1080   12.9890 C.3   287  GLN287      0.0905
    149  CD        -8.3200    8.7880   13.1910 C.2   287  GLN287      0.2608
    150  OE1       -7.9440    9.6790   12.4260 O.2   287  GLN287     -0.2717
    151  NE2       -7.5890    8.3750   14.2290 N.am  287  GLN287     -0.0878
    152  N        -11.4780    1.8820   13.6510 N.3   289  HIS289     -0.1241
    153  CA       -11.3590    0.8200   12.6460 C.3   289  HIS289      0.1621
    154  C        -10.8120   -0.4500   13.2850 C.2   289  HIS289      0.2264
    155  O        -10.6450   -0.5080   14.4980 O.2   289  HIS289     -0.2867
    156  CB       -10.4400    1.2690   11.5030 C.3   289  HIS289      0.0745
    157  CG        -9.1460    1.8640   11.9650 C.ar  289  HIS289      0.0817
    158  ND1       -8.1340    1.1090   12.5200 N.ar  289  HIS289     -0.2268
    159  CD2       -8.7200    3.1500   12.0060 C.ar  289  HIS289      0.1154
    160  CE1       -7.1430    1.9020   12.8870 C.ar  289  HIS289      0.1986
    161  NE2       -7.4740    3.1460   12.5860 N.ar  289  HIS289     -0.2212
    162  N         -7.7260   -1.9650   13.4370 N.3   291  LYS291     -0.1231
    163  CA        -6.4710   -2.0600   14.1770 C.3   291  LYS291      0.1693
    164  C         -6.5870   -1.3950   15.5380 C.2   291  LYS291      0.2592
    165  O         -5.6690   -1.4460   16.3530 O.2   291  LYS291     -0.2718
    166  CB        -5.3210   -1.4510   13.3770 C.3   291  LYS291      0.0285
    167  CG        -4.9480   -2.2680   12.1480 C.3   291  LYS291      0.0035
    168  CD        -3.7810   -1.6620   11.3710 C.3   291  LYS291      0.0206
    169  CE        -2.4520   -1.8320   12.0840 C.3   291  LYS291      0.1093
    170  NZ        -2.0840   -3.2660   12.2750 N.3   291  LYS291     -0.1314
    171  N         -7.7370   -0.7960   15.7990 N.am  292  ASN292     -0.1974
    172  CA        -7.9580   -0.1390   17.0650 C.3   292  ASN292      0.1688
    173  C         -8.7140   -0.9600   18.0850 C.2   292  ASN292      0.2292
    174  O         -9.2230   -0.4260   19.0620 O.2   292  ASN292     -0.2864
    175  CB        -8.6250    1.2180   16.8590 C.3   292  ASN292      0.1181
    176  CG        -7.6280    2.2760   16.4290 C.2   292  ASN292      0.2629
    177  OD1       -6.4550    2.2310   16.8240 O.2   292  ASN292     -0.2716
    178  ND2       -8.0840    3.2390   15.6290 N.am  292  ASN292     -0.0877
    179  N         -8.1190   -4.9400   19.9070 N.3   294  SER294     -0.1217
    180  CA        -7.2510   -6.1050   19.9780 C.3   294  SER294      0.1889
    181  C         -7.7380   -7.1450   20.9840 C.2   294  SER294      0.2288
    182  O         -8.6860   -6.9200   21.7350 O.2   294  SER294     -0.2866
    183  CB        -5.8310   -5.6750   20.3360 C.3   294  SER294      0.2089
    184  OG        -5.3740   -4.7140   19.4060 O.3   294  SER294     -0.2183
    185  N         -8.2380    1.6920   23.3120 N.3   309  TYR309     -0.1227
    186  CA        -7.1270    2.6500   23.1430 C.3   309  TYR309      0.1736
    187  C         -7.2500    3.5040   21.8730 C.2   309  TYR309      0.2595
    188  O         -8.2160    3.3840   21.1350 O.2   309  TYR309     -0.2718
    189  CB        -5.8130    1.8770   23.0970 C.3   309  TYR309      0.0548
    190  CG        -5.7890    0.8090   22.0170 C.ar  309  TYR309     -0.0200
    191  CD1       -5.3790    1.1110   20.7180 C.ar  309  TYR309     -0.0009
    192  CD2       -6.1960   -0.4990   22.2930 C.ar  309  TYR309     -0.0009
    193  CE1       -5.3730    0.1380   19.7190 C.ar  309  TYR309      0.0417
    194  CE2       -6.1940   -1.4820   21.3050 C.ar  309  TYR309      0.0417
    195  CZ        -5.7800   -1.1600   20.0170 C.ar  309  TYR309      0.1957
    196  OH        -5.7560   -2.1280   19.0340 O.3   309  TYR309     -0.2866
    197  N         -6.2430    4.3450   21.6250 N.am  310  ASP310     -0.1974
    198  CA        -6.1950    5.2410   20.4610 C.3   310  ASP310      0.1709
    199  C         -7.4750    6.0510   20.4010 C.2   310  ASP310      0.2293
    200  O         -8.1380    6.0930   19.3750 O.2   310  ASP310     -0.2864
    201  CB        -6.0440    4.4410   19.1650 C.3   310  ASP310      0.1436
    202  CG        -5.7250    5.3210   17.9530 C.2   310  ASP310      0.3671
    203  OD1       -6.0590    6.5270   17.9660 O.co2 310  ASP310     -0.2456
    204  OD2       -5.1510    4.7920   16.9700 O.co2 310  ASP310     -0.2456
@<TRIPOS>BOND
     1    28    25    1
     2   168   169    1
     3   168   167    1
     4   156   157    1
     5   156   153    1
     6    25    26    1
     7    25    24    1
     8    27    26    2
     9   157   159   ar
    10   157   158   ar
    11   159   161   ar
    12   169   170    1
    13   167   166    1
    14    26    29   am
    15    23    22    2
    16   150   149    2
    17    24    22   am
    18   158   160   ar
    19   161   160   ar
    20   153   154    1
    21   153   152    1
    22    22    21    1
    23   148   149    1
    24   148   147    1
    25   149   151   am
    26   154   155    2
    27   166   163    1
    28   162   163    1
    29    29    30    1
    30    20    21    1
    31    20    17   am
    32   142   140   ar
    33   144   147    1
    34   144   143    1
    35   144   145    1
    36   163   164    1
    37    19    16    1
    38   141   140   ar
    39    30    31    1
    40    30    33    1
    41    16    17    1
    42    16    15    1
    43   140   139    1
    44   145   146    2
    45    17    18    2
    46    11    10    2
    47    31    32    2
    48   138   137    2
    49    15    10   am
    50    10     9    1
    51   164   171   am
    52   164   165    2
    53   137   136    1
    54    33    34    1
    55   178   176   am
    56   171   172    1
    57   139   136    1
    58    46    45    1
    59     8     9    1
    60    34    35    1
    61   176   177    2
    62   176   175    1
    63   136   135    1
    64     9    12    1
    65    38    39    1
    66   175   172    1
    67   204   202   ar
    68   172   173    1
    69    36    35    2
    70    35    37   am
    71    41    40    2
    72    45    44    1
    73    43    44    1
    74    43    42    1
    75    12    13    1
    76    12    14    1
    77   202   203   ar
    78   202   201    1
    79   173   174    2
    80    39    40    1
    81    39    42    1
    82   196   195    1
    83   201   198    1
    84     5     7    1
    85     5     6    1
    86     5     2    1
    87     1     2    1
    88     4     3    2
    89   200   199    2
    90   184   183    1
    91   129   128    2
    92   193   195   ar
    93   193   191   ar
    94   179   180    1
    95   180   183    1
    96   180   181    1
    97     2     3    1
    98   195   194   ar
    99   128   127    1
   100    63    62    1
   101   199   198    1
   102   198   197    1
   103    61    62    1
   104    61    60    1
   105   191   190   ar
   106    60    59    1
   107    59    56    1
   108   181   182    2
   109    57    56    1
   110    57    58    2
   111    56    55    1
   112   188   187    2
   113   194   192   ar
   114    53    51    1
   115   197   187   am
   116   127   126    1
   117   127   130    1
   118   134   132   am
   119    71    70   ar
   120   187   186    1
   121   131   130    1
   122   131   132    1
   123   190   192   ar
   124   190   189    1
   125    54    52    1
   126    72    70   ar
   127    70    69    1
   128   132   133    2
   129   105   104    1
   130    51    52    1
   131    51    48    1
   132    68    69    1
   133    68    65    1
   134   189   186    1
   135   106   104    1
   136   186   185    1
   137    64    65    1
   138   104   103    2
   139   125   123   ar
   140    65    66    1
   141    48    49    1
   142    48    47    1
   143    49    50    2
   144   117   115   ar
   145   117   116   ar
   146   103   102    1
   147   123   122    1
   148   123   124   ar
   149   115   113   ar
   150   122   119    1
   151    66    67    2
   152   102   101    1
   153    86    84    1
   154   116   114   ar
   155   113   112   ar
   156    84    85    1
   157    84    81    1
   158   101   100    1
   159   119   118    1
   160   119   120    1
   161   121   120    2
   162   114   112   ar
   163   100    97    1
   164   112   111    1
   165   118   109   am
   166    80    81    1
   167    78    79    1
   168    78    77    1
   169    83    82    2
   170    81    82    1
   171    79    73    1
   172    97    98    1
   173    97    96    1
   174   107    98   am
   175   107   108    1
   176   109   110    2
   177   109   108    1
   178    82    87   am
   179   111   108    1
   180    90    89    2
   181    98    99    2
   182    77    74    1
   183    96    89   am
   184    89    88    1
   185    73    74    1
   186    87    88    1
   187    74    75    1
   188    88    91    1
   189    76    75    2
   190    91    92    1
   191    92    93    1
   192    93    95   ar
   193    93    94   ar
