@<TRIPOS>MOLECULE
tmp/3tptB00.pdb
 186 177 0 0 0
SMALL
GASTEIGER

@<TRIPOS>ATOM
      1  N         39.7580   -4.1460  -13.9280 N.3    96  VAL96      -0.1245
      2  CA        38.4590   -4.2580  -13.2780 C.3    96  VAL96       0.1561
      3  C         38.1830   -5.7420  -13.0780 C.2    96  VAL96       0.2260
      4  O         38.4620   -6.5590  -13.9580 O.2    96  VAL96      -0.2867
      5  CB        37.3380   -3.6400  -14.1410 C.3    96  VAL96       0.0252
      6  CG1       35.9780   -4.1490  -13.6890 C.3    96  VAL96       0.0019
      7  CG2       37.3840   -2.1260  -14.0300 C.3    96  VAL96       0.0019
      8  N         41.4500    0.5310  -16.7790 N.3   149  VAL149     -0.1231
      9  CA        40.0130    0.6410  -16.5040 C.3   149  VAL149      0.1692
     10  C         39.2850    0.9960  -17.7980 C.2   149  VAL149      0.2592
     11  O         39.7310    1.8620  -18.5450 O.2   149  VAL149     -0.2718
     12  CB        39.7180    1.7350  -15.4510 C.3   149  VAL149      0.0266
     13  CG1       38.2240    1.7770  -15.1570 C.3   149  VAL149      0.0020
     14  CG2       40.5130    1.4610  -14.1720 C.3   149  VAL149      0.0020
     15  N         38.1720    0.3260  -18.0770 N.am  150  ALA150     -0.1966
     16  CA        37.4390    0.6080  -19.3060 C.3   150  ALA150      0.1728
     17  C         36.7170    1.9430  -19.2210 C.2   150  ALA150      0.2617
     18  O         36.8440    2.6650  -18.2320 O.2   150  ALA150     -0.2715
     19  CB        36.4530   -0.5110  -19.5970 C.3   150  ALA150      0.0334
     20  N         35.9640    2.2730  -20.2660 N.am  151  GLY151     -0.1940
     21  CA        35.2310    3.5250  -20.2970 C.3   151  GLY151      0.2014
     22  C         35.8980    4.6030  -21.1300 C.2   151  GLY151      0.2639
     23  O         37.0870    4.5280  -21.4170 O.2   151  GLY151     -0.2714
     24  N         35.1210    5.6170  -21.5010 N.am  152  ALA152     -0.1963
     25  CA        35.6060    6.7310  -22.3130 C.3   152  ALA152      0.1728
     26  C         36.0240    7.9630  -21.5110 C.2   152  ALA152      0.2616
     27  O         36.7460    8.8120  -22.0190 O.2   152  ALA152     -0.2715
     28  CB        34.5290    7.1330  -23.3230 C.3   152  ALA152      0.0334
     29  N         35.5630    8.0840  -20.2740 N.am  153  GLN153     -0.1977
     30  CA        35.9200    9.2590  -19.4790 C.3   153  GLN153      0.1601
     31  C         37.3550    9.2250  -18.9900 C.2   153  GLN153      0.2287
     32  O         37.8430    8.1940  -18.5280 O.2   153  GLN153     -0.2864
     33  CB        35.0070    9.4150  -18.2620 C.3   153  GLN153      0.0394
     34  CG        33.5750    9.7790  -18.5730 C.3   153  GLN153      0.0908
     35  CD        32.9250   10.5240  -17.4220 C.2   153  GLN153      0.2608
     36  OE1       31.6970   10.5820  -17.3140 O.2   153  GLN153     -0.2717
     37  NE2       33.7510   11.1160  -16.5610 N.am  153  GLN153     -0.0878
     38  N         40.2600    9.2780  -16.6800 N.3   155  LYS155     -0.1245
     39  CA        40.2740    8.9610  -15.2620 C.3   155  LYS155      0.1561
     40  C         41.5370    8.2110  -14.8710 C.2   155  LYS155      0.2260
     41  O         42.4980    8.1460  -15.6330 O.2   155  LYS155     -0.2867
     42  CB        39.0500    8.1090  -14.9040 C.3   155  LYS155      0.0271
     43  CG        39.2750    6.6070  -15.0390 C.3   155  LYS155      0.0035
     44  CD        38.6690    6.0130  -16.2900 C.3   155  LYS155      0.0206
     45  CE        37.1840    5.7400  -16.1260 C.3   155  LYS155      0.1093
     46  NZ        36.6460    5.4010  -17.4590 N.3   155  LYS155     -0.1314
     47  N         37.9290    4.5030   -8.2850 N.3   177  ILE177     -0.1245
     48  CA        38.0870    4.8700   -9.6700 C.3   177  ILE177      0.1561
     49  C         37.8700    6.3650   -9.6000 C.2   177  ILE177      0.2260
     50  O         36.8570    6.8230   -9.0710 O.2   177  ILE177     -0.2867
     51  CB        37.0240    4.1970  -10.5490 C.3   177  ILE177      0.0252
     52  CG1       37.3220    2.6970  -10.6310 C.3   177  ILE177      0.0019
     53  CG2       37.0380    4.7980  -11.9520 C.3   177  ILE177      0.0019
     54  CD1       36.2940    1.8900  -11.3900 C.3   177  ILE177      0.0001
     55  N         37.3100    9.8300  -11.5600 N.3   179  LYS179     -0.1245
     56  CA        36.8920   10.4700  -12.8110 C.3   179  LYS179      0.1561
     57  C         37.2280   11.9560  -12.8780 C.2   179  LYS179      0.2260
     58  O         37.0940   12.6840  -11.8890 O.2   179  LYS179     -0.2867
     59  CB        35.3920   10.3020  -13.0050 C.3   179  LYS179      0.0271
     60  CG        34.9330    8.8650  -13.0710 C.3   179  LYS179      0.0035
     61  CD        33.5260    8.8340  -13.5990 C.3   179  LYS179      0.0206
     62  CE        33.0520    7.4370  -13.8350 C.3   179  LYS179      0.1093
     63  NZ        31.7520    7.4770  -14.5760 N.3   179  LYS179     -0.1314
     64  N         27.5340    2.8600   -5.7150 N.3   202  PRO202     -0.2116
     65  CA        28.6960    3.0880   -4.8540 C.3   202  PRO202      0.1372
     66  C         28.7480    4.4920   -4.2710 C.2   202  PRO202      0.2244
     67  O         28.3340    5.4470   -4.9130 O.2   202  PRO202     -0.2868
     68  CB        29.8630    2.8360   -5.7930 C.3   202  PRO202      0.0268
     69  CG        29.3370    3.4000   -7.0910 C.3   202  PRO202      0.0207
     70  CD        27.9430    2.8230   -7.1340 C.3   202  PRO202      0.0892
     71  N         35.2540    7.3310   -6.8190 N.3   217  VAL217     -0.1231
     72  CA        34.2080    6.3200   -6.6390 C.3   217  VAL217      0.1692
     73  C         34.7430    5.0370   -5.9840 C.2   217  VAL217      0.2592
     74  O         35.7120    4.4460   -6.4630 O.2   217  VAL217     -0.2718
     75  CB        33.5640    5.9410   -7.9910 C.3   217  VAL217      0.0266
     76  CG1       32.3660    5.0500   -7.7580 C.3   217  VAL217      0.0020
     77  CG2       33.1610    7.1980   -8.7560 C.3   217  VAL217      0.0020
     78  N         34.1070    4.6320   -4.8840 N.am  218  GLU218     -0.1966
     79  CA        34.4760    3.4170   -4.1540 C.3   218  GLU218      0.1733
     80  C         34.2100    2.2210   -5.0490 C.2   218  GLU218      0.2616
     81  O         33.1080    2.0680   -5.5780 O.2   218  GLU218     -0.2715
     82  CB        33.6290    3.2520   -2.8860 C.3   218  GLU218      0.0429
     83  CG        33.8440    4.2990   -1.8240 C.3   218  GLU218      0.1163
     84  CD        33.0830    3.9770   -0.5480 C.2   218  GLU218      0.3649
     85  OE1       33.1810    4.7650    0.4170 O.co2 218  GLU218     -0.2457
     86  OE2       32.3850    2.9390   -0.5110 O.co2 218  GLU218     -0.2457
     87  N         35.2120    1.3670   -5.2080 N.am  219  ARG219     -0.1963
     88  CA        35.0750    0.1970   -6.0560 C.3   219  ARG219      0.1729
     89  C         34.3870   -0.9610   -5.3370 C.2   219  ARG219      0.2616
     90  O         34.7170   -1.2750   -4.1950 O.2   219  ARG219     -0.2715
     91  CB        36.4520   -0.2480   -6.5420 C.3   219  ARG219      0.0348
     92  CG        37.1670    0.7680   -7.4100 C.3   219  ARG219      0.0492
     93  CD        38.5100    0.2310   -7.9150 C.3   219  ARG219      0.2205
     94  NE        38.3660   -0.9120   -8.8250 N.pl3 219  ARG219     -0.0865
     95  CZ        39.2210   -1.1870   -9.8080 C.cat 219  ARG219      0.5346
     96  NH1       40.2760   -0.4090  -10.0070 N.pl3 219  ARG219      0.1354
     97  NH2       39.0160   -2.2220  -10.6080 N.pl3 219  ARG219      0.1354
     98  N         33.4200   -1.5900   -5.9970 N.am  220  PHE220     -0.1960
     99  CA        32.7450   -2.7240   -5.3860 C.3   220  PHE220      0.1771
    100  C         33.3330   -4.0300   -5.8970 C.2   220  PHE220      0.2619
    101  O         32.7500   -5.0830   -5.7090 O.2   220  PHE220     -0.2715
    102  CB        31.2280   -2.6780   -5.6400 C.3   220  PHE220      0.0574
    103  CG        30.8490   -2.4480   -7.0810 C.ar  220  PHE220     -0.0200
    104  CD1       31.1350   -3.3950   -8.0540 C.ar  220  PHE220     -0.0042
    105  CD2       30.2210   -1.2690   -7.4600 C.ar  220  PHE220     -0.0042
    106  CE1       30.8040   -3.1680   -9.3790 C.ar  220  PHE220     -0.0003
    107  CE2       29.8850   -1.0330   -8.7900 C.ar  220  PHE220     -0.0003
    108  CZ        30.1760   -1.9800   -9.7490 C.ar  220  PHE220     -0.0000
    109  N         34.4880   -3.9650   -6.5490 N.am  221  ASP221     -0.1971
    110  CA        35.1510   -5.1770   -7.0290 C.3   221  ASP221      0.1709
    111  C         36.4270   -5.3900   -6.1950 C.2   221  ASP221      0.2293
    112  O         37.3790   -6.0580   -6.6150 O.2   221  ASP221     -0.2864
    113  CB        35.4720   -5.0590   -8.5290 C.3   221  ASP221      0.1436
    114  CG        36.5140   -3.9780   -8.8450 C.2   221  ASP221      0.3671
    115  OD1       36.5950   -2.9530   -8.1240 O.co2 221  ASP221     -0.2456
    116  OD2       37.2410   -4.1580   -9.8480 O.co2 221  ASP221     -0.2456
    117  N         34.4350  -10.0020  -11.6330 N.3   236  GLN236     -0.1245
    118  CA        33.3640   -9.1910  -12.1930 C.3   236  GLN236      0.1566
    119  C         33.5120   -8.9910  -13.7060 C.2   236  GLN236      0.2260
    120  O         34.6300   -8.8790  -14.2100 O.2   236  GLN236     -0.2867
    121  CB        33.3980   -7.8240  -11.4880 C.3   236  GLN236      0.0367
    122  CG        32.4540   -6.7520  -12.0170 C.3   236  GLN236      0.0905
    123  CD        32.6650   -5.4070  -11.2980 C.2   236  GLN236      0.2608
    124  OE1       32.7390   -5.3580  -10.0700 O.2   236  GLN236     -0.2717
    125  NE2       32.7510   -4.3180  -12.0640 N.am  236  GLN236     -0.0878
    126  N         31.3960   -7.0300  -17.3270 N.3   238  ASP238     -0.1239
    127  CA        30.2690   -6.2270  -17.7970 C.3   238  ASP238      0.1674
    128  C         29.4590   -7.0300  -18.8150 C.2   238  ASP238      0.2266
    129  O         29.9030   -8.0840  -19.2650 O.2   238  ASP238     -0.2867
    130  CB        30.7410   -4.8620  -18.3580 C.3   238  ASP238      0.1410
    131  CG        31.5070   -4.9750  -19.6640 C.2   238  ASP238      0.3668
    132  OD1       32.4700   -4.1980  -19.8570 O.co2 238  ASP238     -0.2456
    133  OD2       31.1430   -5.8150  -20.5010 O.co2 238  ASP238     -0.2456
    134  N         24.1610    2.0890  -21.5390 N.3   295  HIS295     -0.1241
    135  CA        24.4940    1.0210  -22.4770 C.3   295  HIS295      0.1621
    136  C         24.8700   -0.2730  -21.7530 C.2   295  HIS295      0.2264
    137  O         24.6820   -0.3800  -20.5370 O.2   295  HIS295     -0.2867
    138  CB        25.6200    1.4810  -23.4160 C.3   295  HIS295      0.0745
    139  CG        26.8090    2.0510  -22.7060 C.ar  295  HIS295      0.0817
    140  ND1       27.7520    1.2620  -22.0820 N.ar  295  HIS295     -0.2268
    141  CD2       27.1910    3.3330  -22.4930 C.ar  295  HIS295      0.1154
    142  CE1       28.6620    2.0320  -21.5130 C.ar  295  HIS295      0.1986
    143  NE2       28.3460    3.2930  -21.7470 N.ar  295  HIS295     -0.2212
    144  N         28.0310   -1.8270  -21.3110 N.3   297  LYS297     -0.1231
    145  CA        29.2170   -1.8550  -20.4640 C.3   297  LYS297      0.1693
    146  C         28.9250   -1.2000  -19.1130 C.2   297  LYS297      0.2592
    147  O         29.7500   -1.2660  -18.1880 O.2   297  LYS297     -0.2718
    148  CB        30.4000   -1.1540  -21.1430 C.3   297  LYS297      0.0285
    149  CG        30.9900   -1.9500  -22.2920 C.3   297  LYS297      0.0035
    150  CD        32.1940   -1.2590  -22.9160 C.3   297  LYS297      0.0206
    151  CE        33.4230   -1.3310  -22.0340 C.3   297  LYS297      0.1093
    152  NZ        33.9730   -2.7070  -21.9340 N.3   297  LYS297     -0.1314
    153  N         27.7510   -0.5770  -18.9900 N.am  298  ASN298     -0.1974
    154  CA        27.3800    0.0550  -17.7290 C.3   298  ASN298      0.1688
    155  C         26.5470   -0.8200  -16.7850 C.2   298  ASN298      0.2292
    156  O         25.9360   -0.3310  -15.8290 O.2   298  ASN298     -0.2864
    157  CB        26.7030    1.4030  -17.9760 C.3   298  ASN298      0.1181
    158  CG        27.7160    2.5090  -18.2350 C.2   298  ASN298      0.2629
    159  OD1       28.8450    2.4280  -17.7730 O.2   298  ASN298     -0.2716
    160  ND2       27.3150    3.5460  -18.9670 N.am  298  ASN298     -0.0877
    161  N         27.0730   -4.7370  -14.8860 N.3   300  SER300     -0.1217
    162  CA        27.9860   -5.8550  -14.6480 C.3   300  SER300      0.1889
    163  C         27.4310   -6.9160  -13.7100 C.2   300  SER300      0.2288
    164  O         26.4280   -6.7150  -13.0290 O.2   300  SER300     -0.2866
    165  CB        29.3170   -5.3540  -14.0570 C.3   300  SER300      0.2089
    166  OG        30.0780   -4.5960  -14.9890 O.3   300  SER300     -0.2183
    167  N         26.3690    1.9200  -11.7860 N.3   315  TYR315     -0.1227
    168  CA        27.4420    2.9260  -11.8200 C.3   315  TYR315      0.1736
    169  C         27.4130    3.7640  -13.1030 C.2   315  TYR315      0.2595
    170  O         26.6330    3.4950  -14.0150 O.2   315  TYR315     -0.2718
    171  CB        28.7990    2.2220  -11.7050 C.3   315  TYR315      0.0548
    172  CG        28.9870    1.1440  -12.7520 C.ar  315  TYR315     -0.0200
    173  CD1       29.5830    1.4270  -13.9790 C.ar  315  TYR315     -0.0009
    174  CD2       28.5230   -0.1510  -12.5310 C.ar  315  TYR315     -0.0009
    175  CE1       29.7090    0.4490  -14.9630 C.ar  315  TYR315      0.0417
    176  CE2       28.6460   -1.1390  -13.5020 C.ar  315  TYR315      0.0417
    177  CZ        29.2360   -0.8390  -14.7170 C.ar  315  TYR315      0.1957
    178  OH        29.3470   -1.8210  -15.6830 O.3   315  TYR315     -0.2866
    179  N         28.2800    4.7720  -13.1620 N.am  316  ASP316     -0.1974
    180  CA        28.3790    5.6800  -14.3060 C.3   316  ASP316      0.1709
    181  C         27.0370    6.3530  -14.5800 C.2   316  ASP316      0.2293
    182  O         26.5240    6.3350  -15.6940 O.2   316  ASP316     -0.2864
    183  CB        28.8580    4.9200  -15.5490 C.3   316  ASP316      0.1436
    184  CG        29.3930    5.8460  -16.6310 C.2   316  ASP316      0.3671
    185  OD1       29.9380    6.9120  -16.2850 O.co2 316  ASP316     -0.2456
    186  OD2       29.2880    5.5070  -17.8240 O.co2 316  ASP316     -0.2456
@<TRIPOS>BOND
     1   138   139    1
     2   138   135    1
     3    28    25    1
     4   150   149    1
     5   150   151    1
     6   139   141   ar
     7   139   140   ar
     8   141   143   ar
     9   135   136    1
    10   135   134    1
    11    25    26    1
    12    25    24    1
    13   149   148    1
    14   140   142   ar
    15   151   152    1
    16    27    26    2
    17   136   137    2
    18   143   142   ar
    19    26    29   am
    20    24    22   am
    21    23    22    2
    22   144   145    1
    23   148   145    1
    24    22    21    1
    25   133   131   ar
    26   145   146    1
    27    21    20    1
    28    29    30    1
    29    20    17   am
    30   132   131   ar
    31   131   130    1
    32    19    16    1
    33    30    31    1
    34    30    33    1
    35    16    17    1
    36    16    15    1
    37   129   128    2
    38    17    18    2
    39   146   153   am
    40   146   147    2
    41    31    32    2
    42   153   154    1
    43   160   158   am
    44   128   127    1
    45    34    33    1
    46    34    35    1
    47    11    10    2
    48   130   127    1
    49   158   157    1
    50   158   159    2
    51    15    10   am
    52   157   154    1
    53   186   184   ar
    54    10     9    1
    55   127   126    1
    56   154   155    1
    57    46    45    1
    58    35    36    2
    59    35    37   am
    60   155   156    2
    61     8     9    1
    62    38    39    1
    63   184   185   ar
    64   184   183    1
    65     9    12    1
    66    44    45    1
    67    44    43    1
    68   182   181    2
    69   178   177    1
    70    41    40    2
    71   183   180    1
    72    12    13    1
    73    12    14    1
    74    39    42    1
    75    39    40    1
    76    43    42    1
    77   166   165    1
    78   175   177   ar
    79   175   173   ar
    80   161   162    1
    81   177   176   ar
    82   162   165    1
    83   162   163    1
    84   181   180    1
    85    63    62    1
    86   180   179    1
    87   120   119    2
    88     5     7    1
    89     5     6    1
    90     5     2    1
    91   170   169    2
    92   173   172   ar
    93     4     3    2
    94     1     2    1
    95    62    61    1
    96   163   164    2
    97   119   118    1
    98    61    60    1
    99   176   174   ar
   100     2     3    1
   101   179   169   am
   102   169   168    1
   103    60    59    1
   104    59    56    1
   105    57    56    1
   106    57    58    2
   107    56    55    1
   108   172   174   ar
   109   172   171    1
   110   118   117    1
   111   118   121    1
   112   125   123   am
   113   122   121    1
   114   122   123    1
   115    53    51    1
   116   168   167    1
   117   168   171    1
   118    54    52    1
   119   123   124    2
   120    52    51    1
   121    97    95    1
   122    51    48    1
   123    96    95    1
   124   116   114   ar
   125    95    94    2
   126   108   106   ar
   127   108   107   ar
   128    48    49    1
   129    48    47    1
   130    49    50    2
   131   106   104   ar
   132   114   113    1
   133   114   115   ar
   134    94    93    1
   135   107   105   ar
   136    77    75    1
   137   113   110    1
   138   104   103   ar
   139    75    76    1
   140    75    72    1
   141    93    92    1
   142   105   103   ar
   143    92    91    1
   144    70    69    1
   145    70    64    1
   146    69    68    1
   147   103   102    1
   148   110   109    1
   149   110   111    1
   150    71    72    1
   151    72    73    1
   152   112   111    2
   153   109   100   am
   154    91    88    1
   155    74    73    2
   156    88    89    1
   157    88    87    1
   158    98    99    1
   159    98    89   am
   160    73    78   am
   161   100   101    2
   162   100    99    1
   163    68    65    1
   164    64    65    1
   165   102    99    1
   166    81    80    2
   167    89    90    2
   168    87    80   am
   169    80    79    1
   170    67    66    2
   171    78    79    1
   172    65    66    1
   173    79    82    1
   174    82    83    1
   175    83    84    1
   176    84    86   ar
   177    84    85   ar
