@<TRIPOS>MOLECULE
tmp/3tpvA00.pdb
 97 94 0 0 0
SMALL
GASTEIGER

@<TRIPOS>ATOM
      1  N        -41.4870   40.8590    7.5900 N.3    98  VAL98      -0.1245
      2  CA       -40.1180   40.8280    7.0800 C.3    98  VAL98       0.1561
      3  C        -39.4820   42.2260    7.1140 C.2    98  VAL98       0.2260
      4  O        -40.0330   43.1800    6.5740 O.2    98  VAL98      -0.2867
      5  CB       -40.0870   40.3110    5.6250 C.3    98  VAL98       0.0252
      6  CG1      -38.6530   40.1930    5.1440 C.3    98  VAL98       0.0019
      7  CG2      -40.7940   38.9760    5.5410 C.3    98  VAL98       0.0019
      8  N        -37.3070   31.7080   11.0920 N.3   162  ILE162     -0.1245
      9  CA       -38.3970   31.5430   10.1290 C.3   162  ILE162      0.1561
     10  C        -38.6050   30.0490   10.0310 C.2   162  ILE162      0.2260
     11  O        -37.6750   29.3260    9.8300 O.2   162  ILE162     -0.2867
     12  CB       -38.0350   32.1570    8.7280 C.3   162  ILE162      0.0252
     13  CG1      -38.2120   33.6660    8.7650 C.3   162  ILE162      0.0019
     14  CG2      -38.8970   31.5340    7.6090 C.3   162  ILE162      0.0019
     15  CD1      -37.9170   34.3330    7.4540 C.3   162  ILE162      0.0001
     16  N        -27.6190   32.1440    6.2680 N.3   201  PRO201     -0.2116
     17  CA       -27.9820   31.9650    7.6840 C.3   201  PRO201      0.1372
     18  C        -27.8740   30.5050    8.1080 C.2   201  PRO201      0.2244
     19  O        -27.7670   29.6010    7.2640 O.2   201  PRO201     -0.2868
     20  CB       -29.4040   32.4620    7.7360 C.3   201  PRO201      0.0268
     21  CG       -29.9610   31.9910    6.3910 C.3   201  PRO201      0.0207
     22  CD       -28.8200   32.3350    5.4190 C.3   201  PRO201      0.0892
     23  N        -34.8350   28.5320   10.3260 N.3   216  VAL216     -0.1231
     24  CA       -33.7330   29.3320    9.7950 C.3   216  VAL216      0.1692
     25  C        -33.5940   30.6420   10.5460 C.2   216  VAL216      0.2592
     26  O        -34.5740   31.4140   10.6920 O.2   216  VAL216     -0.2718
     27  CB       -33.9540   29.6360    8.2830 C.3   216  VAL216      0.0266
     28  CG1      -32.6930   30.2830    7.6960 C.3   216  VAL216      0.0020
     29  CG2      -34.2800   28.3600    7.5490 C.3   216  VAL216      0.0020
     30  N        -32.3620   30.9060   11.0200 N.am  217  GLU217     -0.1966
     31  CA       -32.1130   32.1670   11.7570 C.3   217  GLU217      0.1733
     32  C        -32.3880   33.3480   10.8540 C.2   217  GLU217      0.2616
     33  O        -31.9420   33.3610    9.6760 O.2   217  GLU217     -0.2715
     34  CB       -30.6550   32.2020   12.2340 C.3   217  GLU217      0.0429
     35  CG       -30.3230   31.1440   13.2660 C.3   217  GLU217      0.1163
     36  CD       -28.8800   31.2330   13.7530 C.2   217  GLU217      0.3649
     37  OE1      -28.3990   30.2500   14.3970 O.co2 217  GLU217     -0.2457
     38  OE2      -28.2200   32.3030   13.5000 O.co2 217  GLU217     -0.2457
     39  N        -33.0840   34.3490   11.3890 N.am  218  ARG218     -0.1963
     40  CA       -33.4070   35.5440   10.6390 C.3   218  ARG218      0.1729
     41  C        -32.3120   36.5680   10.7040 C.2   218  ARG218      0.2616
     42  O        -31.9600   37.0610   11.7980 O.2   218  ARG218     -0.2715
     43  CB       -34.7030   36.1410   11.1700 C.3   218  ARG218      0.0348
     44  CG       -35.8970   35.1530   11.1410 C.3   218  ARG218      0.0492
     45  CD       -37.1730   35.8340   11.6180 C.3   218  ARG218      0.2205
     46  NE       -37.4590   37.0480   10.9210 N.pl3 218  ARG218     -0.0865
     47  CZ       -38.6880   37.4920   10.6650 C.cat 218  ARG218      0.5346
     48  NH1      -39.7480   36.7940   11.0700 N.pl3 218  ARG218      0.1354
     49  NH2      -38.8710   38.5990    9.9730 N.pl3 218  ARG218      0.1354
     50  N        -31.7330   36.9160    9.5540 N.am  219  PHE219     -0.1960
     51  CA       -30.6490   37.9260    9.5400 C.3   219  PHE219      0.1771
     52  C        -31.2090   39.3450    9.5650 C.2   219  PHE219      0.2619
     53  O        -30.4620   40.3190    9.4390 O.2   219  PHE219     -0.2715
     54  CB       -29.7210   37.6800    8.3220 C.3   219  PHE219      0.0574
     55  CG       -30.4230   37.5380    7.0490 C.ar  219  PHE219     -0.0200
     56  CD1      -31.0590   38.6290    6.4370 C.ar  219  PHE219     -0.0042
     57  CD2      -30.4410   36.2680    6.3980 C.ar  219  PHE219     -0.0042
     58  CE1      -31.7190   38.4820    5.1770 C.ar  219  PHE219     -0.0003
     59  CE2      -31.0690   36.0910    5.1410 C.ar  219  PHE219     -0.0003
     60  CZ       -31.7170   37.1980    4.5370 C.ar  219  PHE219     -0.0000
     61  N        -32.5320   39.4490    9.6880 N.am  220  ASP220     -0.1971
     62  CA       -33.1760   40.7630    9.7870 C.3   220  ASP220      0.1709
     63  C        -33.5320   40.9810   11.3050 C.2   220  ASP220      0.2293
     64  O        -34.4550   41.7290   11.6370 O.2   220  ASP220     -0.2864
     65  CB       -34.4340   40.7730    8.9630 C.3   220  ASP220      0.1436
     66  CG       -35.5180   39.8200    9.5130 C.2   220  ASP220      0.3671
     67  OD1      -35.1950   38.8210   10.1830 O.co2 220  ASP220     -0.2456
     68  OD2      -36.7370   40.1090    9.2660 O.co2 220  ASP220     -0.2456
     69  N        -35.0700   46.0370    5.9000 N.3   235  GLN235     -0.1245
     70  CA       -34.7210   45.1560    4.7750 C.3   235  GLN235      0.1566
     71  C        -35.8320   45.0760    3.7540 C.2   235  GLN235      0.2260
     72  O        -37.0040   45.2220    4.0830 O.2   235  GLN235     -0.2867
     73  CB       -34.4020   43.7590    5.3130 C.3   235  GLN235      0.0367
     74  CG       -34.3080   42.6720    4.2550 C.3   235  GLN235      0.0905
     75  CD       -34.2410   41.2730    4.8870 C.2   235  GLN235      0.2608
     76  OE1      -33.4680   41.0360    5.8250 O.2   235  GLN235     -0.2717
     77  NE2      -35.0370   40.3380    4.3640 N.am  235  GLN235     -0.0878
     78  N        -30.9270   33.2790    0.9110 N.3   314  TYR314     -0.1227
     79  CA       -31.9010   32.4920    1.6350 C.3   314  TYR314      0.1736
     80  C        -32.7910   31.6470    0.7090 C.2   314  TYR314      0.2595
     81  O        -32.6330   31.7510   -0.5240 O.2   314  TYR314     -0.2718
     82  CB       -32.7640   33.4140    2.5140 C.3   314  TYR314      0.0548
     83  CG       -33.2860   34.5970    1.7490 C.ar  314  TYR314     -0.0200
     84  CD1      -34.6230   34.6310    1.2570 C.ar  314  TYR314     -0.0009
     85  CD2      -32.4670   35.7160    1.4910 C.ar  314  TYR314     -0.0009
     86  CE1      -35.0970   35.7380    0.5350 C.ar  314  TYR314      0.0417
     87  CE2      -32.9310   36.8030    0.7780 C.ar  314  TYR314      0.0417
     88  CZ       -34.2340   36.8100    0.3040 C.ar  314  TYR314      0.1957
     89  OH       -34.6990   37.9040   -0.4260 O.3   314  TYR314     -0.2866
     90  N        -33.7390   30.9050    1.2840 N.am  315  ASP315     -0.1974
     91  CA       -34.6570   30.0440    0.5800 C.3   315  ASP315      0.1709
     92  C        -33.9200   29.2770   -0.5030 C.2   315  ASP315      0.2293
     93  O        -34.2560   29.3660   -1.6800 O.2   315  ASP315     -0.2864
     94  CB       -35.8260   30.8380   -0.0700 C.3   315  ASP315      0.1436
     95  CG       -36.7090   31.5290    0.9800 C.2   315  ASP315      0.3671
     96  OD1      -36.8240   31.0220    2.0890 O.co2 315  ASP315     -0.2456
     97  OD2      -37.2810   32.5580    0.6960 O.co2 315  ASP315     -0.2456
@<TRIPOS>BOND
     1    93    92    2
     2    81    80    2
     3    92    91    1
     4    89    88    1
     5    94    91    1
     6    94    95    1
     7    88    86   ar
     8    88    87   ar
     9    86    84   ar
    10    91    90    1
    11    97    95   ar
    12    80    90   am
    13    80    79    1
    14    87    85   ar
    15    78    79    1
    16    95    96   ar
    17    84    83   ar
    18    85    83   ar
    19    79    82    1
    20    83    82    1
    21    71    72    2
    22    71    70    1
    23    74    75    1
    24    74    73    1
    25    77    75   am
    26    60    59   ar
    27    60    58   ar
    28    70    73    1
    29    70    69    1
    30    75    76    2
    31    59    57   ar
    32     6     5    1
    33    58    56   ar
    34    22    16    1
    35    22    21    1
    36     7     5    1
    37     5     2    1
    38    16    17    1
    39    21    20    1
    40    57    55   ar
    41    56    55   ar
    42     4     3    2
    43    55    54    1
    44     2     3    1
    45     2     1    1
    46    19    18    2
    47    15    13    1
    48    29    27    1
    49    14    12    1
    50    17    20    1
    51    17    18    1
    52    28    27    1
    53    27    24    1
    54    54    51    1
    55    12    13    1
    56    12     9    1
    57    65    66    1
    58    65    62    1
    59    68    66   ar
    60    53    52    2
    61    66    67   ar
    62    51    50    1
    63    51    52    1
    64    50    41   am
    65    52    61   am
    66    33    32    2
    67    61    62    1
    68    62    63    1
    69    24    23    1
    70    24    25    1
    71    11    10    2
    72    49    47    1
    73    10     9    1
    74     9     8    1
    75    25    26    2
    76    25    30   am
    77    40    41    1
    78    40    43    1
    79    40    39    1
    80    47    46    2
    81    47    48    1
    82    41    42    2
    83    32    39   am
    84    32    31    1
    85    46    45    1
    86    30    31    1
    87    44    43    1
    88    44    45    1
    89    63    64    2
    90    31    34    1
    91    34    35    1
    92    35    36    1
    93    38    36   ar
    94    36    37   ar
