@<TRIPOS>MOLECULE
tmp/3tpwA00.pdb
 93 89 0 0 0
SMALL
GASTEIGER

@<TRIPOS>ATOM
      1  N          0.6720   62.5220   32.8870 N.3    53  ILE53      -0.1245
      2  CA         1.6740   62.0060   31.9320 C.3    53  ILE53       0.1561
      3  C          2.0590   63.2100   31.0880 C.2    53  ILE53       0.2260
      4  O          1.1830   63.8480   30.5330 O.2    53  ILE53      -0.2867
      5  CB         1.0220   61.0230   30.9460 C.3    53  ILE53       0.0252
      6  CG1        0.3420   59.9040   31.7080 C.3    53  ILE53       0.0019
      7  CG2        2.0170   60.4820   29.9280 C.3    53  ILE53       0.0019
      8  CD1        1.2430   59.2960   32.6620 C.3    53  ILE53       0.0001
      9  N          0.6510   64.0850   24.4860 N.3    67  TYR67      -0.1241
     10  CA        -0.4370   64.9080   24.9820 C.3    67  TYR67       0.1605
     11  C         -0.5820   64.6570   26.4670 C.2    67  TYR67       0.2264
     12  O         -0.5750   63.5010   26.9310 O.2    67  TYR67      -0.2867
     13  CB        -1.7520   64.4890   24.3220 C.3    67  TYR67       0.0534
     14  CG        -1.7600   64.6950   22.8460 C.ar   67  TYR67      -0.0201
     15  CD1       -1.8670   65.9610   22.2990 C.ar   67  TYR67      -0.0009
     16  CD2       -1.5990   63.5950   21.9870 C.ar   67  TYR67      -0.0009
     17  CE1       -1.8360   66.1480   20.8870 C.ar   67  TYR67       0.0417
     18  CE2       -1.5930   63.7700   20.5950 C.ar   67  TYR67       0.0417
     19  CZ        -1.7120   65.0620   20.0590 C.ar   67  TYR67       0.1957
     20  OH        -1.7160   65.3130   18.7030 O.3    67  TYR67      -0.2866
     21  N         -1.7370   63.7430   29.8530 N.3    69  GLY69      -0.1210
     22  CA        -2.7840   62.7940   30.2270 C.3    69  GLY69       0.1956
     23  C         -2.9790   62.7950   31.7290 C.2    69  GLY69       0.2612
     24  O         -2.0190   62.8600   32.4600 O.2    69  GLY69      -0.2717
     25  N         -4.2250   62.6690   32.1760 N.am   70  VAL70      -0.1965
     26  CA        -4.5280   62.6500   33.6160 C.3    70  VAL70       0.1727
     27  C         -4.7000   61.1880   33.9780 C.2    70  VAL70       0.2616
     28  O         -5.4610   60.4980   33.3240 O.2    70  VAL70      -0.2715
     29  CB        -5.8940   63.3420   33.8430 C.3    70  VAL70       0.0290
     30  CG1       -6.3410   63.2080   35.2480 C.3    70  VAL70       0.0023
     31  CG2       -5.8030   64.8530   33.4450 C.3    70  VAL70       0.0023
     32  N         -4.0350   60.7450   35.0340 N.am   71  ILE71      -0.1963
     33  CA        -4.2310   59.4000   35.5450 C.3    71  ILE71       0.1727
     34  C         -5.0010   59.4900   36.8640 C.2    71  ILE71       0.2616
     35  O         -4.5040   60.0230   37.8790 O.2    71  ILE71      -0.2715
     36  CB        -2.9020   58.6880   35.8240 C.3    71  ILE71       0.0290
     37  CG1       -1.9180   58.7970   34.6360 C.3    71  ILE71       0.0022
     38  CG2       -3.1850   57.2280   36.1830 C.3    71  ILE71       0.0023
     39  CD1       -2.4840   58.3220   33.2680 C.3    71  ILE71       0.0001
     40  N         -6.2160   58.9610   36.8730 N.am   72  ASP72      -0.1971
     41  CA        -7.0340   58.9920   38.0920 C.3    72  ASP72       0.1709
     42  C         -6.4650   58.1320   39.2020 C.2    72  ASP72       0.2293
     43  O         -5.8130   57.0990   38.9380 O.2    72  ASP72      -0.2864
     44  CB        -8.4220   58.5030   37.7520 C.3    72  ASP72       0.1436
     45  CG        -9.0620   59.3810   36.6880 C.2    72  ASP72       0.3671
     46  OD1       -9.0020   60.5930   36.8790 O.co2  72  ASP72      -0.2456
     47  OD2       -9.5440   58.8940   35.6670 O.co2  72  ASP72      -0.2456
     48  N         -7.4650   54.4250   38.9490 N.3    75  TYR75      -0.1241
     49  CA        -7.3540   53.7460   37.6710 C.3    75  TYR75       0.1605
     50  C         -6.4790   52.5030   37.8960 C.2    75  TYR75       0.2264
     51  O         -5.4000   52.6100   38.4690 O.2    75  TYR75      -0.2867
     52  CB        -6.6210   54.6540   36.6860 C.3    75  TYR75       0.0534
     53  CG        -6.3970   54.0380   35.3200 C.ar   75  TYR75      -0.0201
     54  CD1       -7.4770   53.7860   34.4570 C.ar   75  TYR75      -0.0009
     55  CD2       -5.0980   53.7960   34.8360 C.ar   75  TYR75      -0.0009
     56  CE1       -7.2690   53.2780   33.1930 C.ar   75  TYR75       0.0417
     57  CE2       -4.8980   53.2880   33.5850 C.ar   75  TYR75       0.0417
     58  CZ        -5.9860   53.0540   32.7490 C.ar   75  TYR75       0.1957
     59  OH        -5.7620   52.5680   31.4960 O.3    75  TYR75      -0.2866
     60  N         -3.8860   49.9300   32.2310 N.3    78  GLU78      -0.1231
     61  CA        -2.5400   50.1500   31.8000 C.3    78  GLU78       0.1699
     62  C         -2.3850   51.6320   31.4940 C.2    78  GLU78       0.2592
     63  O         -3.2670   52.2840   30.9020 O.2    78  GLU78      -0.2718
     64  CB        -2.2430   49.3390   30.5430 C.3    78  GLU78       0.0402
     65  CG        -0.8210   49.5290   30.1050 C.3    78  GLU78       0.1161
     66  CD        -0.5490   48.8190   28.7980 C.2    78  GLU78       0.3649
     67  OE1       -1.5080   48.3340   28.1630 O.co2  78  GLU78      -0.2457
     68  OE2        0.6180   48.7560   28.4070 O.co2  78  GLU78      -0.2457
     69  N         -1.2940   52.1930   31.9780 N.am   79  ILE79      -0.1966
     70  CA        -1.0090   53.6100   31.7070 C.3    79  ILE79       0.1727
     71  C         -0.4980   53.6750   30.2600 C.2    79  ILE79       0.2616
     72  O          0.4300   52.9650   29.8700 O.2    79  ILE79      -0.2715
     73  CB         0.0050   54.1750   32.7350 C.3    79  ILE79       0.0290
     74  CG1       -0.6950   54.2300   34.1140 C.3    79  ILE79       0.0022
     75  CG2        0.4810   55.5620   32.2600 C.3    79  ILE79       0.0023
     76  CD1        0.1890   54.5620   35.2980 C.3    79  ILE79       0.0001
     77  N         -1.1870   54.4240   29.4090 N.am   80  LYS80      -0.1977
     78  CA        -0.6920   54.5230   28.0500 C.3    80  LYS80       0.1596
     79  C         -0.2650   55.9570   27.7880 C.2    80  LYS80       0.2287
     80  O         -0.7070   56.9140   28.4240 O.2    80  LYS80      -0.2864
     81  CB        -1.7030   54.0540   27.0200 C.3    80  LYS80       0.0298
     82  CG        -2.0010   52.5330   27.1660 C.3    80  LYS80       0.0038
     83  CD        -2.7980   52.0470   25.9920 C.3    80  LYS80       0.0206
     84  CE        -3.2330   50.6190   26.1610 C.3    80  LYS80       0.1093
     85  NZ        -3.8540   50.1930   24.8790 N.3    80  LYS80      -0.1314
     86  N         -0.1990   58.9870   25.1820 N.3    82  MET82      -0.1245
     87  CA        -0.8450   59.4530   23.9710 C.3    82  MET82       0.1570
     88  C          0.1800   60.3040   23.2390 C.2    82  MET82       0.2261
     89  O          0.6320   61.3160   23.7900 O.2    82  MET82      -0.2867
     90  CB        -2.0430   60.3410   24.3400 C.3    82  MET82       0.0387
     91  CG        -3.0320   59.5490   25.1940 C.3    82  MET82       0.0595
     92  SD        -4.5740   60.4310   25.3940 S.3    82  MET82      -0.1393
     93  CE        -3.9640   61.7390   26.4850 C.3    82  MET82       0.0692
@<TRIPOS>BOND
     1    20    19    1
     2    19    18   ar
     3    19    17   ar
     4    18    16   ar
     5    17    15   ar
     6    16    14   ar
     7    15    14   ar
     8    14    13    1
     9    88    89    2
    10    88    87    1
    11    87    90    1
    12    87    86    1
    13    13    10    1
    14    90    91    1
    15     9    10    1
    16    85    84    1
    17    10    11    1
    18    91    92    1
    19    92    93    1
    20    83    84    1
    21    83    82    1
    22    11    12    2
    23    81    82    1
    24    81    78    1
    25    79    78    1
    26    79    80    2
    27    78    77    1
    28    67    66   ar
    29    68    66   ar
    30    66    65    1
    31    77    71   am
    32    21    22    1
    33    72    71    2
    34     7     5    1
    35    65    64    1
    36    22    23    1
    37    71    70    1
    38     4     3    2
    39    64    61    1
    40    63    62    2
    41     5     6    1
    42     5     2    1
    43     3     2    1
    44    62    61    1
    45    62    69   am
    46    59    58    1
    47    70    69    1
    48    70    73    1
    49     6     8    1
    50    23    25   am
    51    23    24    2
    52    61    60    1
    53     2     1    1
    54    25    26    1
    55    75    73    1
    56    73    74    1
    57    58    56   ar
    58    58    57   ar
    59    56    54   ar
    60    39    37    1
    61    28    27    2
    62    31    29    1
    63    57    55   ar
    64    26    29    1
    65    26    27    1
    66    29    30    1
    67    27    32   am
    68    74    76    1
    69    54    53   ar
    70    37    36    1
    71    55    53   ar
    72    32    33    1
    73    53    52    1
    74    33    36    1
    75    33    34    1
    76    47    45   ar
    77    36    38    1
    78    52    49    1
    79    45    46   ar
    80    45    44    1
    81    34    40   am
    82    34    35    2
    83    40    41    1
    84    49    50    1
    85    49    48    1
    86    44    41    1
    87    50    51    2
    88    41    42    1
    89    43    42    2
