@<TRIPOS>MOLECULE
tmp/3tq0A01.pdb
 104 97 0 0 0
SMALL
GASTEIGER

@<TRIPOS>ATOM
      1  N         52.1900  -13.0210  -16.9700 N.3    21  ALA21      -0.1231
      2  CA        52.5910  -13.9480  -18.0220 C.3    21  ALA21       0.1694
      3  C         51.6680  -15.1570  -17.9990 C.2    21  ALA21       0.2592
      4  O         51.2540  -15.6200  -16.9330 O.2    21  ALA21      -0.2718
      5  CB        54.0390  -14.3840  -17.8500 C.3    21  ALA21       0.0304
      6  N         51.3420  -15.6560  -19.1840 N.am   22  GLY22      -0.1957
      7  CA        50.4630  -16.8110  -19.3040 C.3    22  GLY22       0.1869
      8  C         48.9900  -16.4690  -19.3480 C.2    22  GLY22       0.2309
      9  O         48.1770  -17.2880  -19.7650 O.2    22  GLY22      -0.2863
     10  N         53.0220  -15.0880  -23.2670 N.3    45  LYS45      -0.1231
     11  CA        53.0130  -16.3750  -22.5950 C.3    45  LYS45       0.1693
     12  C         54.4220  -16.9430  -22.4830 C.2    45  LYS45       0.2592
     13  O         55.1900  -16.8980  -23.4460 O.2    45  LYS45      -0.2718
     14  CB        52.1170  -17.3490  -23.3670 C.3    45  LYS45       0.0285
     15  CG        52.2610  -18.8000  -22.9470 C.3    45  LYS45       0.0035
     16  CD        51.7030  -19.0260  -21.5510 C.3    45  LYS45       0.0206
     17  CE        52.0020  -20.4120  -21.0090 C.3    45  LYS45       0.1093
     18  NZ        51.2950  -20.5390  -19.6880 N.3    45  LYS45      -0.1314
     19  N         54.7550  -17.4670  -21.3040 N.am   46  SER46      -0.1952
     20  CA        56.0310  -18.1330  -21.0860 C.3    46  SER46       0.1924
     21  C         56.2650  -19.1810  -22.1500 C.2    46  SER46       0.2314
     22  O         55.4450  -20.0810  -22.3290 O.2    46  SER46      -0.2863
     23  CB        56.0480  -18.8000  -19.7200 C.3    46  SER46       0.2116
     24  OG        56.2110  -17.8290  -18.7100 O.3    46  SER46      -0.2180
     25  N         45.2990  -23.4820  -11.6760 N.3    69  ASN69      -0.1240
     26  CA        45.5730  -23.9460  -13.0090 C.3    69  ASN69       0.1653
     27  C         46.7260  -24.9000  -13.0060 C.2    69  ASN69       0.2266
     28  O         47.5860  -24.8630  -12.1360 O.2    69  ASN69      -0.2867
     29  CB        45.8780  -22.7840  -13.9580 C.3    69  ASN69       0.1155
     30  CG        47.3270  -22.3650  -13.8890 C.2    69  ASN69       0.2627
     31  OD1       48.1820  -22.9380  -14.5730 O.2    69  ASN69      -0.2716
     32  ND2       47.6310  -21.4260  -12.9980 N.am   69  ASN69      -0.0877
     33  N         48.2720  -25.2740  -16.3430 N.3    71  MET71      -0.1230
     34  CA        48.2490  -25.1450  -17.8020 C.3    71  MET71       0.1702
     35  C         49.3070  -26.0360  -18.4310 C.2    71  MET71       0.2593
     36  O         49.0410  -26.7270  -19.4150 O.2    71  MET71      -0.2718
     37  CB        48.4830  -23.7050  -18.2450 C.3    71  MET71       0.0401
     38  CG        47.4560  -22.7310  -17.7230 C.3    71  MET71       0.0596
     39  SD        45.7700  -23.1760  -18.1760 S.3    71  MET71      -0.1393
     40  CE        45.7920  -22.8270  -19.9330 C.3    71  MET71       0.0692
     41  N         50.5110  -25.9990  -17.8680 N.am   72  GLY72      -0.1942
     42  CA        51.6020  -26.8470  -18.3280 C.3    72  GLY72       0.2014
     43  C         52.3430  -26.2060  -19.4870 C.2    72  GLY72       0.2638
     44  O         52.8010  -26.8940  -20.3960 O.2    72  GLY72      -0.2714
     45  N         52.4470  -24.8800  -19.4520 N.am   73  LEU73      -0.1977
     46  CA        53.1300  -24.0980  -20.4970 C.3    73  LEU73       0.1596
     47  C         52.6210  -24.3390  -21.9240 C.2    73  LEU73       0.2287
     48  O         53.4280  -24.5320  -22.8370 O.2    73  LEU73      -0.2864
     49  CB        54.6480  -24.3250  -20.4450 C.3    73  LEU73       0.0297
     50  CG        55.3600  -23.7860  -19.2030 C.3    73  LEU73       0.0022
     51  CD1       56.8410  -24.1310  -19.2290 C.3    73  LEU73       0.0001
     52  CD2       55.1470  -22.2810  -19.0680 C.3    73  LEU73       0.0001
     53  N         61.1010  -16.8440  -16.5290 N.3   129  ASN129     -0.1240
     54  CA        60.2390  -17.5280  -15.5970 C.3   129  ASN129      0.1653
     55  C         61.0050  -18.6220  -14.8750 C.2   129  ASN129      0.2266
     56  O         61.3630  -19.6420  -15.4640 O.2   129  ASN129     -0.2867
     57  CB        59.0330  -18.1010  -16.3350 C.3   129  ASN129      0.1155
     58  CG        58.0410  -18.7620  -15.4070 C.2   129  ASN129      0.2627
     59  OD1       58.2300  -18.8040  -14.1940 O.2   129  ASN129     -0.2716
     60  ND2       56.9760  -19.2910  -15.9790 N.am  129  ASN129     -0.0877
     61  N         57.6000  -21.8620  -12.9600 N.3   132  CYS132     -0.1221
     62  CA        56.4910  -22.6370  -13.5030 C.3   132  CYS132      0.1794
     63  C         56.2210  -23.8240  -12.5750 C.2   132  CYS132      0.2443
     64  O         57.0840  -24.6830  -12.4000 O.2   132  CYS132     -0.2733
     65  CB        56.7650  -23.1180  -14.9270 C.3   132  CYS132      0.0970
     66  SG        55.4210  -24.1920  -15.4710 S.3   132  CYS132     -0.0800
     67  N         55.0300  -23.8690  -11.9570 N.am  133  PRO133     -0.2718
     68  CA        54.7980  -24.9310  -10.9850 C.3   133  PRO133      0.1535
     69  C         53.9870  -26.1110  -11.5260 C.2   133  PRO133      0.2598
     70  O         53.5610  -26.9680  -10.7390 O.2   133  PRO133     -0.2715
     71  CB        53.9810  -24.2120   -9.9190 C.3   133  PRO133      0.0310
     72  CG        53.1080  -23.2630  -10.7330 C.3   133  PRO133      0.0237
     73  CD        53.9340  -22.8780  -11.9530 C.3   133  PRO133      0.0939
     74  N         53.7850  -26.1560  -12.8470 N.am  134  ASN134     -0.1973
     75  CA        52.7600  -27.0200  -13.4480 C.3   134  ASN134      0.1688
     76  C         53.2140  -28.0680  -14.4400 C.2   134  ASN134      0.2292
     77  O         52.4040  -28.8980  -14.8840 O.2   134  ASN134     -0.2864
     78  CB        51.7100  -26.1610  -14.1290 C.3   134  ASN134      0.1181
     79  CG        50.9770  -25.3030  -13.1580 C.2   134  ASN134      0.2629
     80  OD1       50.7220  -25.7160  -12.0230 O.2   134  ASN134     -0.2716
     81  ND2       50.6440  -24.0940  -13.5740 N.am  134  ASN134     -0.0877
     82  N         60.6930  -14.0180  -12.9900 N.3   166  LYS166     -0.1245
     83  CA        59.4050  -14.2850  -12.4050 C.3   166  LYS166      0.1561
     84  C         59.6410  -15.3140  -11.3250 C.2   166  LYS166      0.2260
     85  O         60.0870  -16.4370  -11.5970 O.2   166  LYS166     -0.2867
     86  CB        58.4670  -14.8530  -13.4520 C.3   166  LYS166      0.0271
     87  CG        57.1180  -15.2760  -12.9040 C.3   166  LYS166      0.0035
     88  CD        56.2820  -14.0250  -12.7020 C.3   166  LYS166      0.0206
     89  CE        54.8420  -14.3270  -12.3790 C.3   166  LYS166      0.1093
     90  NZ        54.1180  -14.7200  -13.6110 N.3   166  LYS166     -0.1314
     91  N         54.7610  -15.6970   -9.0200 N.3   196  ASN196     -0.1225
     92  CA        54.0280  -16.6980   -9.7360 C.3   196  ASN196      0.1785
     93  C         52.9760  -17.2570   -8.7840 C.2   196  ASN196      0.2597
     94  O         52.8900  -16.8630   -7.6210 O.2   196  ASN196     -0.2718
     95  CB        54.9940  -17.7910  -10.2030 C.3   196  ASN196      0.1169
     96  CG        54.6050  -18.3830  -11.5370 C.2   196  ASN196      0.2627
     97  OD1       53.4910  -18.8780  -11.6940 O.2   196  ASN196     -0.2716
     98  ND2       55.5340  -18.3720  -12.5010 N.am  196  ASN196     -0.0877
     99  N         52.1770  -18.1860   -9.2750 N.am  197  SER197     -0.1952
    100  CA        51.1660  -18.8260   -8.4660 C.3   197  SER197      0.1924
    101  C         51.7080  -19.3590   -7.1570 C.2   197  SER197      0.2314
    102  O         52.8780  -19.7410   -7.0710 O.2   197  SER197     -0.2863
    103  CB        50.6360  -20.0210   -9.2340 C.3   197  SER197      0.2116
    104  OG        50.1760  -19.6230  -10.5070 O.3   197  SER197     -0.2180
@<TRIPOS>BOND
     1    13    12    2
     2    14    15    1
     3    14    11    1
     4    10    11    1
     5    15    16    1
     6    48    47    2
     7    11    12    1
     8    12    19   am
     9    22    21    2
    10    21    20    1
    11    47    46    1
    12    16    17    1
    13    19    20    1
    14    20    23    1
    15    17    18    1
    16    46    49    1
    17    46    45    1
    18    49    50    1
    19    44    43    2
    20    40    39    1
    21     9     8    2
    22    23    24    1
    23    43    45   am
    24    43    42    1
    25    36    35    2
    26     8     7    1
    27     7     6    1
    28    51    50    1
    29    50    52    1
    30     6     3   am
    31    35    41   am
    32    35    34    1
    33    42    41    1
    34    37    34    1
    35    37    38    1
    36    39    38    1
    37     2     3    1
    38     2     5    1
    39     2     1    1
    40     3     4    2
    41    34    33    1
    42    53    54    1
    43    57    54    1
    44    57    58    1
    45    60    58   am
    46    54    55    1
    47    66    65    1
    48    56    55    2
    49    58    59    2
    50    65    62    1
    51    77    76    2
    52    31    30    2
    53    76    75    1
    54    78    75    1
    55    78    79    1
    56    29    30    1
    57    29    26    1
    58    30    32   am
    59    90    89    1
    60    81    79   am
    61    62    61    1
    62    62    63    1
    63    86    87    1
    64    86    83    1
    65    75    74    1
    66    79    80    2
    67    26    27    1
    68    26    25    1
    69    27    28    2
    70    82    83    1
    71    87    88    1
    72    74    69   am
    73    88    89    1
    74    63    64    2
    75    63    67   am
    76    98    96   am
    77    83    84    1
    78    67    73    1
    79    67    68    1
    80    73    72    1
    81    97    96    2
    82    85    84    2
    83    96    95    1
    84    69    68    1
    85    69    70    2
    86    68    71    1
    87    72    71    1
    88   104   103    1
    89    95    92    1
    90    92    91    1
    91    92    93    1
    92    99    93   am
    93    99   100    1
    94   103   100    1
    95    93    94    2
    96   100   101    1
    97   101   102    2
