@<TRIPOS>MOLECULE
tmp/3tq6B00.pdb
 83 76 0 0 0
SMALL
GASTEIGER

@<TRIPOS>ATOM
      1  N        -49.3880   34.4420    6.1090 N.3     6  CYS6       -0.1235
      2  CA       -49.0420   35.6280    5.3410 C.3     6  CYS6        0.1677
      3  C        -50.2250   36.2130    4.5520 C.2     6  CYS6        0.2270
      4  O        -50.8410   35.4570    3.8000 O.2     6  CYS6       -0.2867
      5  CB       -47.8820   35.2970    4.4170 C.3     6  CYS6        0.0956
      6  SG       -47.1660   36.7230    3.5860 S.3     6  CYS6       -0.0801
      7  N        -52.2030   38.6310   -1.8330 N.3     9  LYS9       -0.1245
      8  CA       -52.5510   39.6620   -2.8190 C.3     9  LYS9        0.1561
      9  C        -54.0220   39.5830   -3.2370 C.2     9  LYS9        0.2260
     10  O        -54.5750   38.4750   -3.3070 O.2     9  LYS9       -0.2867
     11  CB       -51.6640   39.5030   -4.0810 C.3     9  LYS9        0.0271
     12  CG       -50.2520   40.0210   -3.8490 C.3     9  LYS9        0.0035
     13  CD       -49.3250   39.7500   -5.0250 C.3     9  LYS9        0.0206
     14  CE       -47.8940   39.4830   -4.6110 C.3     9  LYS9        0.1093
     15  NZ       -47.3490   40.5160   -3.6780 N.3     9  LYS9       -0.1314
     16  N        -54.0250   45.4350    1.2300 N.3    67  TYR67      -0.1241
     17  CA       -52.9120   44.5260    1.0720 C.3    67  TYR67       0.1605
     18  C        -51.6010   45.1460    1.5200 C.2    67  TYR67       0.2264
     19  O        -50.8980   44.5260    2.3170 O.2    67  TYR67      -0.2867
     20  CB       -52.8130   44.0040   -0.3860 C.3    67  TYR67       0.0534
     21  CG       -51.6130   43.1220   -0.5960 C.ar   67  TYR67      -0.0201
     22  CD1      -51.5140   41.8960    0.0480 C.ar   67  TYR67      -0.0009
     23  CD2      -50.5130   43.5690   -1.3260 C.ar   67  TYR67      -0.0009
     24  CE1      -50.3720   41.1120   -0.0650 C.ar   67  TYR67       0.0417
     25  CE2      -49.3650   42.7930   -1.4440 C.ar   67  TYR67       0.0417
     26  CZ       -49.3020   41.5650   -0.8130 C.ar   67  TYR67       0.1957
     27  OH       -48.2040   40.7690   -0.9820 O.3    67  TYR67      -0.2866
     28  N        -49.5150   43.5560    4.6420 N.3    71  ILE71      -0.1231
     29  CA       -48.1780   43.0110    4.3560 C.3    71  ILE71       0.1692
     30  C        -47.0900   43.7710    5.1160 C.2    71  ILE71       0.2592
     31  O        -46.2040   43.1160    5.6650 O.2    71  ILE71      -0.2718
     32  CB       -47.9080   42.7480    2.8300 C.3    71  ILE71       0.0266
     33  CG1      -46.7500   41.7730    2.6060 C.3    71  ILE71       0.0019
     34  CG2      -47.7020   44.0360    2.0510 C.3    71  ILE71       0.0020
     35  CD1      -47.0160   40.3440    2.9100 C.3    71  ILE71       0.0001
     36  N        -47.2050   45.1210    5.2420 N.am   72  SER72      -0.1952
     37  CA       -46.2740   45.9370    6.0370 C.3    72  SER72       0.1924
     38  C        -46.3770   45.5840    7.5130 C.2    72  SER72       0.2314
     39  O        -45.3280   45.3710    8.1560 O.2    72  SER72      -0.2863
     40  CB       -46.5540   47.4280    5.8680 C.3    72  SER72       0.2116
     41  OG       -46.1850   47.8500    4.5640 O.3    72  SER72      -0.2180
     42  N        -44.9040   41.7670    8.0890 N.3    75  LYS75      -0.1245
     43  CA       -43.4530   41.7400    7.9400 C.3    75  LYS75       0.1561
     44  C        -42.7000   42.4570    9.0770 C.2    75  LYS75       0.2260
     45  O        -41.7030   41.9250    9.5740 O.2    75  LYS75      -0.2867
     46  CB       -43.0640   42.3200    6.6010 C.3    75  LYS75       0.0271
     47  CG       -43.2140   41.3470    5.4210 C.3    75  LYS75       0.0035
     48  CD       -42.5230   41.9500    4.2070 C.3    75  LYS75       0.0206
     49  CE       -42.7680   41.1700    2.9730 C.3    75  LYS75       0.1093
     50  NZ       -42.0810   41.8010    1.8270 N.3    75  LYS75      -0.1314
     51  N        -38.3410   35.9190    8.3430 N.3    83  ILE83      -0.1245
     52  CA       -38.1660   36.5490    7.0320 C.3    83  ILE83       0.1561
     53  C        -37.5030   35.5780    6.0460 C.2    83  ILE83       0.2260
     54  O        -38.0340   35.3510    4.9520 O.2    83  ILE83      -0.2867
     55  CB       -37.3680   37.8800    7.1220 C.3    83  ILE83       0.0252
     56  CG1      -38.2570   38.9750    7.7020 C.3    83  ILE83       0.0019
     57  CG2      -36.8460   38.3110    5.7220 C.3    83  ILE83       0.0019
     58  CD1      -37.4630   40.1340    8.2890 C.3    83  ILE83       0.0001
     59  N        -39.7150   32.7740    5.1880 N.3    86  LEU86      -0.1231
     60  CA       -40.8040   33.1120    4.3000 C.3    86  LEU86       0.1693
     61  C        -40.2880   33.0850    2.8290 C.2    86  LEU86       0.2591
     62  O        -40.9640   32.5460    1.9410 O.2    86  LEU86      -0.2718
     63  CB       -41.3660   34.4870    4.6920 C.3    86  LEU86       0.0284
     64  CG       -42.4380   35.1360    3.8150 C.3    86  LEU86       0.0019
     65  CD1      -43.6530   34.2660    3.7250 C.3    86  LEU86       0.0001
     66  CD2      -42.8230   36.5010    4.3980 C.3    86  LEU86       0.0001
     67  N        -39.1140   33.6800    2.6070 N.am   87  GLU87      -0.1979
     68  CA       -38.4360   33.7610    1.3130 C.3    87  GLU87       0.1602
     69  C        -38.1730   32.3550    0.7500 C.2    87  GLU87       0.2287
     70  O        -38.4280   32.0900   -0.4290 O.2    87  GLU87      -0.2864
     71  CB       -37.0970   34.5010    1.4530 C.3    87  GLU87       0.0415
     72  CG       -37.2370   36.0050    1.5890 C.3    87  GLU87       0.1163
     73  CD       -35.9660   36.7250    2.0180 C.2    87  GLU87       0.3649
     74  OE1      -35.9300   37.9740    1.9230 O.co2  87  GLU87      -0.2457
     75  OE2      -35.0190   36.0480    2.4810 O.co2  87  GLU87      -0.2457
     76  N        -41.4920   30.6240   -0.4190 N.3    90  ILE90      -0.1245
     77  CA       -41.9510   31.2340   -1.6680 C.3    90  ILE90       0.1561
     78  C        -41.1190   30.6710   -2.8580 C.2    90  ILE90       0.2260
     79  O        -41.6980   30.2760   -3.8750 O.2    90  ILE90      -0.2867
     80  CB       -41.9370   32.7900   -1.5510 C.3    90  ILE90       0.0252
     81  CG1      -43.0550   33.2710   -0.5840 C.3    90  ILE90       0.0019
     82  CG2      -42.0280   33.4940   -2.9220 C.3    90  ILE90       0.0019
     83  CD1      -42.9230   34.7350   -0.1970 C.3    90  ILE90       0.0001
@<TRIPOS>BOND
     1    13    14    1
     2    13    12    1
     3    14    15    1
     4    11    12    1
     5    11     8    1
     6    79    78    2
     7    10     9    2
     8     9     8    1
     9    82    80    1
    10    78    77    1
    11     8     7    1
    12    77    80    1
    13    77    76    1
    14    80    81    1
    15    25    23   ar
    16    25    26   ar
    17    23    21   ar
    18    27    26    1
    19    26    24   ar
    20    21    20    1
    21    21    22   ar
    22    81    83    1
    23    70    69    2
    24    20    17    1
    25    24    22   ar
    26    69    68    1
    27    17    16    1
    28    17    18    1
    29    68    71    1
    30    68    67    1
    31    71    72    1
    32    18    19    2
    33    72    73    1
    34    50    49    1
    35    74    73   ar
    36    62    61    2
    37    73    75   ar
    38    34    32    1
    39    33    32    1
    40    33    35    1
    41    67    61   am
    42    61    60    1
    43    32    29    1
    44    49    48    1
    45     6     5    1
    46    65    64    1
    47     4     3    2
    48    64    66    1
    49    64    63    1
    50    48    47    1
    51    60    63    1
    52    60    59    1
    53    29    28    1
    54    29    30    1
    55     5     2    1
    56     3     2    1
    57    41    40    1
    58    54    53    2
    59    30    36   am
    60    30    31    2
    61    36    37    1
    62     2     1    1
    63    47    46    1
    64    57    55    1
    65    40    37    1
    66    37    38    1
    67    53    52    1
    68    46    43    1
    69    52    55    1
    70    52    51    1
    71    55    56    1
    72    38    39    2
    73    56    58    1
    74    43    42    1
    75    43    44    1
    76    44    45    2
