@<TRIPOS>MOLECULE
tmp/3tq8A01.pdb
 155 147 0 0 0
SMALL
GASTEIGER

@<TRIPOS>ATOM
      1  N         14.0550   -2.4610   10.8450 N.3     6  ILE6       -0.1231
      2  CA        13.2310   -2.3030   12.0380 C.3     6  ILE6        0.1692
      3  C         12.9680   -0.8100   12.1550 C.2     6  ILE6        0.2592
      4  O         13.8900   -0.0050   12.0130 O.2     6  ILE6       -0.2718
      5  CB        13.8940   -2.9210   13.3060 C.3     6  ILE6        0.0266
      6  CG1       12.9250   -2.8740   14.5030 C.3     6  ILE6        0.0019
      7  CG2       15.2480   -2.2250   13.6430 C.3     6  ILE6        0.0020
      8  CD1       13.3120   -3.7740   15.6600 C.3     6  ILE6        0.0001
      9  N         11.7070   -0.4320   12.3630 N.am    7  ALA7       -0.1966
     10  CA        11.3510    0.9660   12.4500 C.3     7  ALA7        0.1728
     11  C         10.0800    1.1090   13.2610 C.2     7  ALA7        0.2616
     12  O          9.2520    0.1750   13.3110 O.2     7  ALA7       -0.2715
     13  CB        11.1620    1.5650   11.0460 C.3     7  ALA7        0.0334
     14  N          9.9400    2.2850   13.8770 N.am    8  ALA8       -0.1977
     15  CA         8.7160    2.6910   14.5350 C.3     8  ALA8        0.1597
     16  C          8.1470    3.8740   13.7870 C.2     8  ALA8        0.2287
     17  O          8.8440    4.8630   13.5470 O.2     8  ALA8       -0.2864
     18  CB         8.9580    3.0760   16.0080 C.3     8  ALA8        0.0319
     19  N         15.4160   15.5650   13.7170 N.3    19  ASN19      -0.1225
     20  CA        16.4200   14.5660   14.1070 C.3    19  ASN19       0.1785
     21  C         16.1800   13.9050   15.4720 C.2    19  ASN19       0.2597
     22  O         17.1280   13.4500   16.1250 O.2    19  ASN19      -0.2718
     23  CB        17.8580   15.1270   14.0140 C.3    19  ASN19       0.1169
     24  CG        18.8550   14.0620   13.5460 C.2    19  ASN19       0.2627
     25  OD1       18.5420   13.2770   12.6340 O.2    19  ASN19      -0.2716
     26  ND2       20.0360   14.0060   14.1720 N.am   19  ASN19      -0.0877
     27  N         14.9140   13.8450   15.8780 N.am   20  GLU20      -0.1965
     28  CA        14.4880   13.1560   17.0910 C.3    20  GLU20       0.1733
     29  C         13.2570   12.3140   16.7650 C.2    20  GLU20       0.2616
     30  O         12.6030   12.5250   15.7440 O.2    20  GLU20      -0.2715
     31  CB        14.1020   14.1530   18.1840 C.3    20  GLU20       0.0429
     32  CG        15.1370   15.2080   18.4850 C.3    20  GLU20       0.1163
     33  CD        14.7880   16.0040   19.7460 C.2    20  GLU20       0.3649
     34  OE1       13.7060   16.6360   19.7860 O.co2  20  GLU20      -0.2457
     35  OE2       15.5900   15.9750   20.7040 O.co2  20  GLU20      -0.2457
     36  N         12.9490   11.3730   17.6450 N.am   21  LEU21      -0.1977
     37  CA        11.6920   10.6430   17.5920 C.3    21  LEU21       0.1596
     38  C         10.5520   11.5920   17.9330 C.2    21  LEU21       0.2287
     39  O         10.7300   12.5030   18.7600 O.2    21  LEU21      -0.2864
     40  CB        11.7050    9.4620   18.5780 C.3    21  LEU21       0.0297
     41  CG        12.7390    8.3670   18.3030 C.3    21  LEU21       0.0022
     42  CD1       12.6540    7.2700   19.3640 C.3    21  LEU21       0.0001
     43  CD2       12.5790    7.7700   16.9050 C.3    21  LEU21       0.0001
     44  N          7.9390    0.2240   22.5960 N.3    28  ASP28      -0.1225
     45  CA         8.7690    0.1390   21.4070 C.3    28  ASP28       0.1805
     46  C         10.2550    0.0460   21.7340 C.2    28  ASP28       0.2597
     47  O         10.9670   -0.7200   21.1130 O.2    28  ASP28      -0.2718
     48  CB         8.5790    1.3210   20.4740 C.3    28  ASP28       0.1424
     49  CG         9.5160    1.2410   19.2960 C.2    28  ASP28       0.3668
     50  OD1        9.3030    0.3260   18.4790 O.co2  28  ASP28      -0.2456
     51  OD2       10.5030    2.0210   19.2420 O.co2  28  ASP28      -0.2456
     52  N         10.7270    0.8360   22.6950 N.am   29  LEU29      -0.1979
     53  CA        12.1530    0.8060   23.0500 C.3    29  LEU29       0.1596
     54  C         12.5610   -0.5690   23.6050 C.2    29  LEU29       0.2287
     55  O         13.6590   -1.0510   23.3040 O.2    29  LEU29      -0.2864
     56  CB        12.4990    1.9310   24.0320 C.3    29  LEU29       0.0297
     57  CG        12.3070    3.3600   23.5040 C.3    29  LEU29       0.0022
     58  CD1       12.6350    4.4030   24.5750 C.3    29  LEU29       0.0001
     59  CD2       13.1370    3.6110   22.2360 C.3    29  LEU29       0.0001
     60  N         11.0360   -3.5130   22.9090 N.3    31  HIS31      -0.1226
     61  CA        10.9280   -4.3360   21.6990 C.3    31  HIS31       0.1752
     62  C         12.1780   -4.2220   20.8160 C.2    31  HIS31       0.2596
     63  O         12.7550   -5.2330   20.4280 O.2    31  HIS31      -0.2718
     64  CB         9.6420   -3.9120   20.9440 C.3    31  HIS31       0.0759
     65  CG         9.5910   -4.2730   19.4840 C.ar   31  HIS31       0.0818
     66  ND1        9.1430   -5.4970   19.0290 N.ar   31  HIS31      -0.2268
     67  CD2        9.8400   -3.5350   18.3780 C.ar   31  HIS31       0.1154
     68  CE1        9.1550   -5.5070   17.7070 C.ar   31  HIS31       0.1986
     69  NE2        9.5840   -4.3290   17.2880 N.ar   31  HIS31      -0.2212
     70  N         12.5960   -2.9890   20.5310 N.am   32  PHE32      -0.1962
     71  CA        13.7680   -2.7270   19.6970 C.3    32  PHE32       0.1771
     72  C         15.0410   -3.3250   20.2910 C.2    32  PHE32       0.2619
     73  O         15.8170   -3.9860   19.5920 O.2    32  PHE32      -0.2715
     74  CB        13.9310   -1.2150   19.5130 C.3    32  PHE32       0.0574
     75  CG        15.2110   -0.8150   18.8390 C.ar   32  PHE32      -0.0200
     76  CD1       15.3260   -0.8740   17.4550 C.ar   32  PHE32      -0.0042
     77  CD2       16.2890   -0.3560   19.5840 C.ar   32  PHE32      -0.0042
     78  CE1       16.4950   -0.5080   16.8150 C.ar   32  PHE32      -0.0003
     79  CE2       17.4710    0.0330   18.9520 C.ar   32  PHE32      -0.0003
     80  CZ        17.5750   -0.0490   17.5590 C.ar   32  PHE32      -0.0000
     81  N         15.2440   -3.1010   21.5840 N.am   33  LYS33      -0.1977
     82  CA        16.4270   -3.6060   22.2830 C.3    33  LYS33       0.1596
     83  C         16.4550   -5.1480   22.2750 C.2    33  LYS33       0.2287
     84  O         17.4570   -5.7660   21.8890 O.2    33  LYS33      -0.2864
     85  CB        16.4750   -3.0760   23.7240 C.3    33  LYS33       0.0298
     86  CG        17.7710   -3.4070   24.4660 C.3    33  LYS33       0.0038
     87  CD        17.8820   -2.7420   25.8410 C.3    33  LYS33       0.0206
     88  CE        19.2360   -3.0660   26.4620 C.3    33  LYS33       0.1093
     89  NZ        19.2610   -3.0830   27.9690 N.3    33  LYS33      -0.1314
     90  N         21.2050    9.5080   12.3670 N.3    47  THR47      -0.1218
     91  CA        20.6200    8.6670   13.4110 C.3    47  THR47       0.1862
     92  C         21.6250    8.4140   14.5440 C.2    47  THR47       0.2287
     93  O         21.2530    8.5020   15.7190 O.2    47  THR47      -0.2866
     94  CB        20.0560    7.3640   12.8320 C.3    47  THR47       0.1770
     95  OG1       18.9530    7.6840   11.9760 O.3    47  THR47      -0.2211
     96  CG2       19.5680    6.4400   13.9240 C.3    47  THR47       0.0375
     97  N         21.6320   11.5570   16.5020 N.3    50  SER50      -0.1202
     98  CA        20.4150   11.5860   17.3180 C.3    50  SER50       0.2020
     99  C         20.5470   10.7270   18.5800 C.2    50  SER50       0.2618
    100  O         20.2160   11.1660   19.6770 O.2    50  SER50      -0.2717
    101  CB        19.2120   11.1330   16.4990 C.3    50  SER50       0.2103
    102  OG        18.0330   11.2080   17.2710 O.3    50  SER50      -0.2182
    103  N         21.0390    9.5060   18.4270 N.am   51  ILE51      -0.1979
    104  CA        21.2370    8.6070   19.5740 C.3    51  ILE51       0.1595
    105  C         22.3930    9.0890   20.4660 C.2    51  ILE51       0.2287
    106  O         22.3280    8.9990   21.7080 O.2    51  ILE51      -0.2864
    107  CB        21.4410    7.1300   19.1200 C.3    51  ILE51       0.0276
    108  CG1       20.2070    6.6610   18.3500 C.3    51  ILE51       0.0022
    109  CG2       21.6620    6.2120   20.3430 C.3    51  ILE51       0.0022
    110  CD1       20.3600    5.3160   17.6090 C.3    51  ILE51       0.0001
    111  N         24.8780    2.0790   20.8040 N.3    55  LEU55      -0.1245
    112  CA        23.9360    1.2650   21.5680 C.3    55  LEU55       0.1561
    113  C         24.7070    0.0950   22.1790 C.2    55  LEU55       0.2260
    114  O         25.3940   -0.6220   21.4670 O.2    55  LEU55      -0.2867
    115  CB        22.8030    0.7800   20.6700 C.3    55  LEU55       0.0270
    116  CG        21.9550    1.8800   20.0210 C.3    55  LEU55       0.0019
    117  CD1       20.9970    1.2850   19.0160 C.3    55  LEU55       0.0001
    118  CD2       21.1710    2.7010   21.0570 C.3    55  LEU55       0.0001
    119  N         25.8490   -4.3490   21.1510 N.3    58  ARG58      -0.1245
    120  CA        25.6380   -4.5640   19.7330 C.3    58  ARG58       0.1563
    121  C         26.7870   -3.9610   18.9270 C.2    58  ARG58       0.2260
    122  O         27.4110   -2.9810   19.3430 O.2    58  ARG58      -0.2867
    123  CB        24.3280   -3.9090   19.2840 C.3    58  ARG58       0.0307
    124  CG        23.0870   -4.6810   19.6830 C.3    58  ARG58       0.0489
    125  CD        21.9080   -3.7420   19.9230 C.3    58  ARG58       0.2205
    126  NE        22.0130   -3.0830   21.2200 N.pl3  58  ARG58      -0.0865
    127  CZ        21.0870   -2.2770   21.7240 C.cat  58  ARG58       0.5346
    128  NH1       19.9680   -2.0150   21.0420 N.pl3  58  ARG58       0.1354
    129  NH2       21.2790   -1.7210   22.9110 N.pl3  58  ARG58       0.1354
    130  N         18.6010    0.0710   11.1000 N.3    96  ILE96      -0.1245
    131  CA        17.8170    0.7540   12.1310 C.3    96  ILE96       0.1561
    132  C         17.4560    2.2120   11.8110 C.2    96  ILE96       0.2260
    133  O         16.8830    2.8880   12.6570 O.2    96  ILE96      -0.2867
    134  CB        18.4960    0.7050   13.5360 C.3    96  ILE96       0.0252
    135  CG1       19.7610    1.5800   13.5750 C.3    96  ILE96       0.0019
    136  CG2       18.7690   -0.7550   13.9590 C.3    96  ILE96       0.0019
    137  CD1       20.2050    1.9340   14.9820 C.3    96  ILE96       0.0001
    138  N         16.7270    3.8840    5.2860 N.3   102  PHE102     -0.1241
    139  CA        15.5700    3.0170    5.0350 C.3   102  PHE102      0.1605
    140  C         15.1790    3.0230    3.5480 C.2   102  PHE102      0.2264
    141  O         14.9520    1.9720    2.9660 O.2   102  PHE102     -0.2867
    142  CB        14.3560    3.4110    5.8710 C.3   102  PHE102      0.0534
    143  CG        14.4360    3.0420    7.3490 C.ar  102  PHE102     -0.0203
    144  CD1       14.9150    1.8200    7.7800 C.ar  102  PHE102     -0.0042
    145  CD2       13.9500    3.9250    8.2990 C.ar  102  PHE102     -0.0042
    146  CE1       14.9400    1.4960    9.1390 C.ar  102  PHE102     -0.0003
    147  CE2       13.9660    3.6000    9.6620 C.ar  102  PHE102     -0.0003
    148  CZ        14.4770    2.3860   10.0740 C.ar  102  PHE102     -0.0000
    149  N          6.8660   -1.1390   14.1430 N.3   115  THR115     -0.1218
    150  CA         5.9420   -0.6800   15.1690 C.3   115  THR115      0.1862
    151  C          5.0940    0.3950   14.5190 C.2   115  THR115      0.2287
    152  O          5.6290    1.3790   13.9890 O.2   115  THR115     -0.2866
    153  CB         6.6710   -0.0940   16.3840 C.3   115  THR115      0.1770
    154  OG1        7.5770   -1.0720   16.8900 O.3   115  THR115     -0.2211
    155  CG2        5.6720    0.3010   17.4870 C.3   115  THR115      0.0375
@<TRIPOS>BOND
     1   141   140    2
     2   140   139    1
     3   139   138    1
     4   139   142    1
     5   142   143    1
     6   143   144   ar
     7   143   145   ar
     8   144   146   ar
     9   145   147   ar
    10   146   148   ar
    11   147   148   ar
    12     1     2    1
    13    13    10    1
    14   130   131    1
    15   132   131    1
    16   132   133    2
    17    95    94    1
    18     4     3    2
    19     2     3    1
    20     2     5    1
    21   131   134    1
    22     3     9   am
    23     9    10    1
    24    90    91    1
    25    10    11    1
    26    25    24    2
    27    94    91    1
    28    94    96    1
    29    11    12    2
    30    11    14   am
    31     5     7    1
    32     5     6    1
    33    91    92    1
    34   134   135    1
    35   134   136    1
    36    24    23    1
    37    24    26   am
    38    17    16    2
    39   135   137    1
    40    19    20    1
    41    16    15    1
    42    14    15    1
    43   152   151    2
    44    23    20    1
    45    20    21    1
    46   149   150    1
    47     6     8    1
    48   151   150    1
    49    15    18    1
    50    92    93    2
    51   150   153    1
    52    21    27   am
    53    21    22    2
    54    30    29    2
    55    27    28    1
    56   153   154    1
    57   153   155    1
    58   101   102    1
    59   101    98    1
    60    97    98    1
    61    29    28    1
    62    29    36   am
    63    78    76   ar
    64    78    80   ar
    65    43    41    1
    66    28    31    1
    67    69    68   ar
    68    69    67   ar
    69    98    99    1
    70    76    75   ar
    71    80    79   ar
    72    37    36    1
    73    37    38    1
    74    37    40    1
    75   110   108    1
    76    68    66   ar
    77    38    39    2
    78    31    32    1
    79    41    40    1
    80    41    42    1
    81   108   107    1
    82    67    65   ar
    83   103    99   am
    84   103   104    1
    85    50    49   ar
    86    32    33    1
    87    99   100    2
    88    75    74    1
    89    75    77   ar
    90   121   122    2
    91   121   120    1
    92    79    77   ar
    93   117   116    1
    94    66    65   ar
    95   107   104    1
    96   107   109    1
    97    51    49   ar
    98   123   124    1
    99   123   120    1
   100    49    48    1
   101    65    64    1
   102    74    71    1
   103   104   105    1
   104    73    72    2
   105   124   125    1
   106    71    72    1
   107    71    70    1
   108   120   119    1
   109    33    34   ar
   110    33    35   ar
   111   125   126    1
   112   116   115    1
   113   116   118    1
   114    72    81   am
   115    63    62    2
   116   105   106    2
   117    48    45    1
   118    70    62   am
   119   115   112    1
   120   111   112    1
   121    62    61    1
   122    64    61    1
   123   128   127    1
   124    47    46    2
   125   126   127    2
   126    45    46    1
   127    45    44    1
   128   114   113    2
   129   112   113    1
   130    81    82    1
   131    61    60    1
   132   127   129    1
   133    46    52   am
   134    84    83    2
   135    59    57    1
   136    83    82    1
   137    82    85    1
   138    52    53    1
   139    53    54    1
   140    53    56    1
   141    55    54    2
   142    57    56    1
   143    57    58    1
   144    85    86    1
   145    86    87    1
   146    87    88    1
   147    88    89    1
