@<TRIPOS>MOLECULE
tmp/3tq9A01.pdb
 171 166 0 0 0
SMALL
GASTEIGER

@<TRIPOS>ATOM
      1  N         13.3420   -2.1670   10.9740 N.3     6  ILE6       -0.1231
      2  CA        12.5580   -1.8910   12.1740 C.3     6  ILE6        0.1692
      3  C         12.2970   -0.3830   12.2270 C.2     6  ILE6        0.2592
      4  O         13.2280    0.4200   12.1440 O.2     6  ILE6       -0.2718
      5  CB        13.2680   -2.4200   13.4700 C.3     6  ILE6        0.0266
      6  CG1       12.3380   -2.3300   14.6840 C.3     6  ILE6        0.0019
      7  CG2       14.5820   -1.6890   13.7470 C.3     6  ILE6        0.0020
      8  CD1       12.8590   -3.0770   15.8880 C.3     6  ILE6        0.0001
      9  N         11.0290    0.0060   12.3150 N.am    7  ALA7       -0.1966
     10  CA        10.6750    1.4290   12.3200 C.3     7  ALA7        0.1728
     11  C          9.4710    1.6730   13.2080 C.2     7  ALA7        0.2616
     12  O          8.6070    0.8100   13.3230 O.2     7  ALA7       -0.2715
     13  CB        10.3980    1.9110   10.9100 C.3     7  ALA7        0.0334
     14  N          9.4510    2.8310   13.8700 N.am    8  ALA8       -0.1977
     15  CA         8.2690    3.3230   14.5620 C.3     8  ALA8        0.1597
     16  C          7.7340    4.4930   13.7510 C.2     8  ALA8        0.2287
     17  O          8.4930    5.3890   13.3680 O.2     8  ALA8       -0.2864
     18  CB         8.6060    3.7600   15.9690 C.3     8  ALA8        0.0319
     19  N         12.6930   12.4410   17.2380 N.3    21  LEU21      -0.1245
     20  CA        11.4450   11.7140   17.0570 C.3    21  LEU21       0.1561
     21  C         10.2980   12.6670   17.4000 C.2    21  LEU21       0.2260
     22  O         10.4870   13.5830   18.1940 O.2    21  LEU21      -0.2867
     23  CB        11.3940   10.4850   17.9630 C.3    21  LEU21       0.0270
     24  CG        12.5190    9.4470   17.8990 C.3    21  LEU21       0.0019
     25  CD1       12.5710    8.6900   19.2220 C.3    21  LEU21       0.0001
     26  CD2       12.3510    8.4840   16.7520 C.3    21  LEU21       0.0001
     27  N          7.7120   11.8610   19.0920 N.3    23  TRP23      -0.1241
     28  CA         7.1060   11.3530   20.3150 C.3    23  TRP23       0.1605
     29  C          8.1870   10.8390   21.2640 C.2    23  TRP23       0.2264
     30  O          9.3910   10.9670   21.0090 O.2    23  TRP23      -0.2867
     31  CB         6.1410   10.2100   19.9800 C.3    23  TRP23       0.0550
     32  CG         6.8140    9.1450   19.1720 C.ar   23  TRP23       0.0003
     33  CD1        7.6540    8.1710   19.6300 C.ar   23  TRP23       0.0946
     34  CD2        6.7390    8.9810   17.7600 C.ar   23  TRP23       0.0152
     35  NE1        8.1020    7.4050   18.5870 N.ar   23  TRP23      -0.2442
     36  CE2        7.5520    7.8780   17.4250 C.ar   23  TRP23       0.0810
     37  CE3        6.0570    9.6540   16.7420 C.ar   23  TRP23       0.0012
     38  CZ2        7.7060    7.4330   16.1150 C.ar   23  TRP23       0.0191
     39  CZ3        6.2040    9.2090   15.4420 C.ar   23  TRP23       0.0001
     40  CH2        7.0280    8.1090   15.1380 C.ar   23  TRP23       0.0015
     41  N          7.9790    4.8710   25.4850 N.3    26  PRO26      -0.2116
     42  CA         8.8660    3.9460   26.1950 C.3    26  PRO26       0.1372
     43  C          8.6160    2.4850   25.8690 C.2    26  PRO26       0.2244
     44  O          9.5600    1.6970   25.8660 O.2    26  PRO26      -0.2868
     45  CB         8.5390    4.2020   27.6640 C.3    26  PRO26       0.0268
     46  CG         8.0140    5.5680   27.6990 C.3    26  PRO26       0.0207
     47  CD         7.2740    5.7620   26.4210 C.3    26  PRO26       0.0892
     48  N          7.7920    1.3920   22.9610 N.3    28  ASP28      -0.1225
     49  CA         8.4480    1.1430   21.6850 C.3    28  ASP28       0.1805
     50  C          9.9530    0.9380   21.8440 C.2    28  ASP28       0.2598
     51  O         10.5500    0.0920   21.1740 O.2    28  ASP28      -0.2718
     52  CB         8.1980    2.2940   20.7180 C.3    28  ASP28       0.1424
     53  CG         8.8270    2.0510   19.3620 C.2    28  ASP28       0.3668
     54  OD1        8.3320    1.1650   18.6260 O.co2  28  ASP28      -0.2456
     55  OD2        9.8130    2.7420   19.0430 O.co2  28  ASP28      -0.2456
     56  N         10.5670    1.7220   22.7210 N.am   29  LEU29      -0.1966
     57  CA        12.0180    1.6820   22.8910 C.3    29  LEU29       0.1728
     58  C         12.4940    0.3750   23.5180 C.2    29  LEU29       0.2616
     59  O         13.5700   -0.1090   23.1720 O.2    29  LEU29      -0.2715
     60  CB        12.5030    2.8820   23.7140 C.3    29  LEU29       0.0311
     61  CG        12.3690    4.2430   23.0250 C.3    29  LEU29       0.0022
     62  CD1       12.8290    5.3500   23.9550 C.3    29  LEU29       0.0001
     63  CD2       13.1470    4.2760   21.7310 C.3    29  LEU29       0.0001
     64  N         11.6980   -0.1900   24.4260 N.am   30  ALA30      -0.1963
     65  CA        12.0060   -1.4930   25.0230 C.3    30  ALA30       0.1728
     66  C         11.7340   -2.6290   24.0430 C.2    30  ALA30       0.2616
     67  O         12.3430   -3.6880   24.1390 O.2    30  ALA30      -0.2715
     68  CB        11.2190   -1.7080   26.3030 C.3    30  ALA30       0.0334
     69  N         10.8000   -2.4090   23.1250 N.am   31  HIS31      -0.1959
     70  CA        10.5420   -3.3420   22.0300 C.3    31  HIS31       0.1787
     71  C         11.7370   -3.3440   21.0840 C.2    31  HIS31       0.2620
     72  O         12.2980   -4.3930   20.7840 O.2    31  HIS31      -0.2715
     73  CB         9.2580   -2.9390   21.2930 C.3    31  HIS31       0.0785
     74  CG         9.1430   -3.4970   19.9110 C.ar   31  HIS31       0.0821
     75  ND1        8.7350   -4.7890   19.6610 N.ar   31  HIS31      -0.2267
     76  CD2        9.3560   -2.9270   18.7030 C.ar   31  HIS31       0.1154
     77  CE1        8.7200   -4.9950   18.3560 C.ar   31  HIS31       0.1986
     78  NE2        9.0950   -3.8810   17.7530 N.ar   31  HIS31      -0.2212
     79  N         12.1150   -2.1490   20.6410 N.am   32  PHE32      -0.1960
     80  CA        13.3120   -1.9170   19.8300 C.3    32  PHE32       0.1771
     81  C         14.5930   -2.5120   20.4370 C.2    32  PHE32       0.2619
     82  O         15.4770   -2.9540   19.6940 O.2    32  PHE32      -0.2715
     83  CB        13.4780   -0.3980   19.6090 C.3    32  PHE32       0.0574
     84  CG        14.7910    0.0080   18.9710 C.ar   32  PHE32      -0.0200
     85  CD1       14.9300    0.0510   17.5990 C.ar   32  PHE32      -0.0042
     86  CD2       15.8710    0.3800   19.7520 C.ar   32  PHE32      -0.0042
     87  CE1       16.1260    0.4330   17.0240 C.ar   32  PHE32      -0.0003
     88  CE2       17.0670    0.7530   19.1750 C.ar   32  PHE32      -0.0003
     89  CZ        17.1940    0.7840   17.8190 C.ar   32  PHE32      -0.0000
     90  N         14.7030   -2.5090   21.7660 N.am   33  LYS33      -0.1977
     91  CA        15.9240   -2.9720   22.4410 C.3    33  LYS33       0.1596
     92  C         16.0670   -4.4860   22.3950 C.2    33  LYS33       0.2287
     93  O         17.1230   -4.9960   22.0260 O.2    33  LYS33      -0.2864
     94  CB        15.9710   -2.5130   23.9070 C.3    33  LYS33       0.0298
     95  CG        17.3340   -2.7500   24.5730 C.3    33  LYS33       0.0038
     96  CD        17.3360   -2.4460   26.0720 C.3    33  LYS33       0.0206
     97  CE        18.7110   -2.7120   26.6890 C.3    33  LYS33       0.1093
     98  NZ        18.6330   -3.1210   28.1290 N.3    33  LYS33      -0.1314
     99  N         20.7050    9.6610   11.7800 N.3    47  THR47      -0.1218
    100  CA        20.0620    8.8830   12.8500 C.3    47  THR47       0.1862
    101  C         21.0300    8.6530   14.0130 C.2    47  THR47       0.2287
    102  O         20.6080    8.6700   15.1650 O.2    47  THR47      -0.2866
    103  CB        19.4650    7.5480   12.3420 C.3    47  THR47       0.1770
    104  OG1       18.4120    7.8180   11.4160 O.3    47  THR47      -0.2211
    105  CG2       18.8780    6.7210   13.4580 C.3    47  THR47       0.0375
    106  N         21.0470   11.6620   16.1570 N.3    50  SER50      -0.1202
    107  CA        19.7620   11.7710   16.8490 C.3    50  SER50       0.2020
    108  C         19.7690   10.9680   18.1470 C.2    50  SER50       0.2618
    109  O         19.2220   11.3980   19.1540 O.2    50  SER50      -0.2717
    110  CB        18.6380   11.2570   15.9230 C.3    50  SER50       0.2103
    111  OG        17.3600   11.2640   16.5470 O.3    50  SER50      -0.2182
    112  N         20.3710    9.7840   18.0930 N.am   51  ILE51      -0.1979
    113  CA        20.4610    8.8910   19.2420 C.3    51  ILE51       0.1595
    114  C         21.4400    9.4950   20.2190 C.2    51  ILE51       0.2287
    115  O         21.1440    9.6140   21.4090 O.2    51  ILE51      -0.2864
    116  CB        20.9190    7.4830   18.8300 C.3    51  ILE51       0.0276
    117  CG1       19.8010    6.7840   18.0490 C.3    51  ILE51       0.0022
    118  CG2       21.2860    6.6670   20.0450 C.3    51  ILE51       0.0022
    119  CD1       20.2270    5.5400   17.3090 C.3    51  ILE51       0.0001
    120  N         24.4320    2.5600   20.6780 N.3    55  LEU55      -0.1231
    121  CA        23.5050    1.7920   21.5040 C.3    55  LEU55       0.1678
    122  C         24.2900    0.6290   22.1060 C.2    55  LEU55       0.2434
    123  O         24.9870   -0.0780   21.3840 O.2    55  LEU55      -0.2733
    124  CB        22.3110    1.2770   20.6880 C.3    55  LEU55       0.0284
    125  CG        21.3460    2.3110   20.1030 C.3    55  LEU55       0.0019
    126  CD1       20.4190    1.6740   19.0990 C.3    55  LEU55       0.0001
    127  CD2       20.5500    2.9830   21.1970 C.3    55  LEU55       0.0001
    128  N         24.1990    0.4340   23.4370 N.am   56  PRO56      -0.2729
    129  CA        25.0290   -0.5930   24.0710 C.3    56  PRO56       0.1401
    130  C         24.6340   -2.0090   23.6700 C.2    56  PRO56       0.2269
    131  O         23.4840   -2.2510   23.3000 O.2    56  PRO56      -0.2865
    132  CB        24.7910   -0.3660   25.5670 C.3    56  PRO56       0.0296
    133  CG        23.4460    0.2710   25.6430 C.3    56  PRO56       0.0237
    134  CD        23.3310    1.1220   24.4100 C.3    56  PRO56       0.0939
    135  N         25.2730   -3.8370   21.1210 N.3    58  ARG58      -0.1245
    136  CA        24.9790   -4.0120   19.7020 C.3    58  ARG58       0.1563
    137  C         26.1500   -3.5050   18.8800 C.2    58  ARG58       0.2260
    138  O         26.8710   -2.5990   19.3050 O.2    58  ARG58      -0.2867
    139  CB        23.7680   -3.1820   19.3030 C.3    58  ARG58       0.0307
    140  CG        22.4670   -3.8880   19.4300 C.3    58  ARG58       0.0489
    141  CD        21.3820   -2.9250   19.8040 C.3    58  ARG58       0.2205
    142  NE        21.5270   -2.4860   21.1850 N.pl3  58  ARG58      -0.0865
    143  CZ        20.6360   -1.7450   21.8300 C.cat  58  ARG58       0.5346
    144  NH1       19.5190   -1.3480   21.2250 N.pl3  58  ARG58       0.1354
    145  NH2       20.8650   -1.3990   23.0880 N.pl3  58  ARG58       0.1354
    146  N         17.9000    0.2160   11.0640 N.3    96  ILE96      -0.1245
    147  CA        17.1250    1.0310   12.0020 C.3    96  ILE96       0.1561
    148  C         16.7420    2.4300   11.4800 C.2    96  ILE96       0.2260
    149  O         16.0310    3.1350   12.1440 O.2    96  ILE96      -0.2867
    150  CB        17.8270    1.1390   13.3960 C.3    96  ILE96       0.0252
    151  CG1       19.0820    2.0090   13.3560 C.3    96  ILE96       0.0019
    152  CG2       18.1750   -0.2510   13.9470 C.3    96  ILE96       0.0019
    153  CD1       19.5030    2.5030   14.7100 C.3    96  ILE96       0.0001
    154  N         16.2110    3.7730    5.0710 N.3   102  PHE102     -0.1241
    155  CA        15.0400    2.9390    4.8660 C.3   102  PHE102      0.1605
    156  C         14.6770    2.8110    3.3910 C.2   102  PHE102      0.2264
    157  O         14.3960    1.7140    2.9140 O.2   102  PHE102     -0.2867
    158  CB        13.8360    3.5000    5.6240 C.3   102  PHE102      0.0534
    159  CG        13.8530    3.2470    7.1090 C.ar  102  PHE102     -0.0203
    160  CD1       14.2900    2.0390    7.6400 C.ar  102  PHE102     -0.0042
    161  CD2       13.3650    4.2070    7.9800 C.ar  102  PHE102     -0.0042
    162  CE1       14.2660    1.8150    9.0050 C.ar  102  PHE102     -0.0003
    163  CE2       13.3410    3.9820    9.3480 C.ar  102  PHE102     -0.0003
    164  CZ        13.7930    2.7840    9.8590 C.ar  102  PHE102     -0.0000
    165  N          6.2160   -0.4710   14.2610 N.3   115  THR115     -0.1218
    166  CA         5.3180    0.0780   15.2760 C.3   115  THR115      0.1862
    167  C          4.5260    1.2010   14.6160 C.2   115  THR115      0.2287
    168  O          5.1040    2.2190   14.2400 O.2   115  THR115     -0.2866
    169  CB         6.0870    0.6360   16.5020 C.3   115  THR115      0.1770
    170  OG1        7.0460   -0.3260   16.9590 O.3   115  THR115     -0.2211
    171  CG2        5.1270    0.9710   17.6510 C.3   115  THR115      0.0375
@<TRIPOS>BOND
     1   157   156    2
     2   156   155    1
     3   155   154    1
     4   155   158    1
     5   158   159    1
     6   159   160   ar
     7   159   161   ar
     8   160   162   ar
     9   161   163   ar
    10   162   164   ar
    11   163   164   ar
    12    13    10    1
    13     1     2    1
    14   146   147    1
    15   104   103    1
    16   148   147    1
    17   148   149    2
    18    99   100    1
    19   147   150    1
    20     4     3    2
    21     2     3    1
    22     2     5    1
    23     3     9   am
    24     9    10    1
    25    10    11    1
    26   103   100    1
    27   103   105    1
    28   100   101    1
    29    11    12    2
    30    11    14   am
    31   151   150    1
    32   151   153    1
    33    17    16    2
    34   150   152    1
    35     5     7    1
    36     5     6    1
    37    16    15    1
    38    14    15    1
    39   101   102    2
    40   168   167    2
    41   165   166    1
    42    15    18    1
    43   167   166    1
    44     6     8    1
    45    40    39   ar
    46    40    38   ar
    47   166   169    1
    48    39    37   ar
    49   110   111    1
    50   110   107    1
    51    38    36   ar
    52   106   107    1
    53   169   170    1
    54   169   171    1
    55    37    34   ar
    56    26    24    1
    57   107   108    1
    58    87    85   ar
    59    87    89   ar
    60    20    19    1
    61    20    21    1
    62    20    23    1
    63   119   117    1
    64    21    22    2
    65    36    34   ar
    66    36    35   ar
    67    85    84   ar
    68    78    77   ar
    69    78    76   ar
    70    34    32   ar
    71    89    88   ar
    72    24    23    1
    73    24    25    1
    74   117   116    1
    75   112   108   am
    76   112   113    1
    77   108   109    2
    78    77    75   ar
    79    35    33   ar
    80    54    53   ar
    81    76    74   ar
    82   116   113    1
    83   116   118    1
    84   137   138    2
    85   137   136    1
    86    84    83    1
    87    84    86   ar
    88    55    53   ar
    89    27    28    1
    90   126   125    1
    91    32    33   ar
    92    32    31    1
    93    88    86   ar
    94   113   114    1
    95   139   140    1
    96   139   136    1
    97    53    52    1
    98   140   141    1
    99    83    80    1
   100    75    74   ar
   101    82    81    2
   102   136   135    1
   103   141   142    1
   104    80    81    1
   105    80    79    1
   106    74    73    1
   107    31    28    1
   108   125   124    1
   109   125   127    1
   110   114   115    2
   111    28    29    1
   112    81    90   am
   113    79    71   am
   114   120   121    1
   115   124   121    1
   116    52    49    1
   117    72    71    2
   118    30    29    2
   119    71    70    1
   120    51    50    2
   121   142   143    2
   122   144   143    1
   123    73    70    1
   124   123   122    2
   125   121   122    1
   126    49    50    1
   127    49    48    1
   128    63    61    1
   129    90    91    1
   130   143   145    1
   131    50    56   am
   132    93    92    2
   133    70    69    1
   134   122   128   am
   135    92    91    1
   136    91    94    1
   137    56    57    1
   138    57    58    1
   139    57    60    1
   140    61    60    1
   141    61    62    1
   142    69    66   am
   143    59    58    2
   144   131   130    2
   145   128   129    1
   146   128   134    1
   147    58    64   am
   148   130   129    1
   149    94    95    1
   150    66    67    2
   151    66    65    1
   152   129   132    1
   153   134   133    1
   154    64    65    1
   155    95    96    1
   156    65    68    1
   157    41    42    1
   158    41    47    1
   159   132   133    1
   160    44    43    2
   161    43    42    1
   162    96    97    1
   163    42    45    1
   164    47    46    1
   165    97    98    1
   166    45    46    1
