@<TRIPOS>MOLECULE
tmp/3tqcB00.pdb
 155 150 0 0 0
SMALL
GASTEIGER

@<TRIPOS>ATOM
      1  N         -3.6970   49.7270  -30.9360 N.3    33  ILE33      -0.1231
      2  CA        -3.0540   49.1570  -29.7650 C.3    33  ILE33       0.1692
      3  C         -1.8420   48.3000  -30.1550 C.2    33  ILE33       0.2591
      4  O         -0.7540   48.4860  -29.6310 O.2    33  ILE33      -0.2718
      5  CB        -4.0750   48.3470  -28.9280 C.3    33  ILE33       0.0266
      6  CG1       -5.1790   49.2970  -28.4160 C.3    33  ILE33       0.0019
      7  CG2       -3.3840   47.6320  -27.7690 C.3    33  ILE33       0.0020
      8  CD1       -6.3140   48.6070  -27.6670 C.3    33  ILE33       0.0001
      9  N         -2.0320   47.3590  -31.0730 N.am   34  VAL34      -0.1980
     10  CA        -0.9760   46.4020  -31.4190 C.3    34  VAL34       0.1595
     11  C         -0.0040   46.9450  -32.4760 C.2    34  VAL34       0.2287
     12  O          1.1330   46.5020  -32.5560 O.2    34  VAL34      -0.2864
     13  CB        -1.5530   45.0470  -31.8550 C.3    34  VAL34       0.0276
     14  CG1       -2.4970   44.5040  -30.7780 C.3    34  VAL34       0.0022
     15  CG2       -2.2880   45.1650  -33.1450 C.3    34  VAL34       0.0022
     16  N          3.2380   45.0750  -36.1370 N.3    38  GLU38      -0.1245
     17  CA         3.1200   43.8480  -35.3600 C.3    38  GLU38       0.1567
     18  C          2.0140   42.9500  -35.9060 C.2    38  GLU38       0.2260
     19  O          2.1920   41.7330  -35.9840 O.2    38  GLU38      -0.2867
     20  CB         2.8730   44.1940  -33.8810 C.3    38  GLU38       0.0388
     21  CG         2.8180   43.0240  -32.9290 C.3    38  GLU38       0.1160
     22  CD         4.1740   42.3940  -32.6160 C.2    38  GLU38       0.3649
     23  OE1        5.2090   42.8620  -33.1080 O.co2  38  GLU38      -0.2457
     24  OE2        4.1810   41.3970  -31.8760 O.co2  38  GLU38      -0.2457
     25  N          0.8530   38.6240  -36.4380 N.3    43  TYR43      -0.1241
     26  CA        -0.5060   38.0670  -36.3380 C.3    43  TYR43       0.1605
     27  C         -1.1180   37.6160  -37.6500 C.2    43  TYR43       0.2264
     28  O         -1.8420   36.6200  -37.6880 O.2    43  TYR43      -0.2867
     29  CB        -1.4180   39.0350  -35.5740 C.3    43  TYR43       0.0534
     30  CG        -0.8900   39.1750  -34.1720 C.ar   43  TYR43      -0.0201
     31  CD1       -1.0680   38.1570  -33.2610 C.ar   43  TYR43      -0.0009
     32  CD2       -0.1330   40.2800  -33.7890 C.ar   43  TYR43      -0.0009
     33  CE1       -0.5540   38.2390  -31.9900 C.ar   43  TYR43       0.0417
     34  CE2        0.3820   40.3710  -32.5160 C.ar   43  TYR43       0.0417
     35  CZ         0.1660   39.3400  -31.6210 C.ar   43  TYR43       0.1957
     36  OH         0.6700   39.4060  -30.3510 O.3    43  TYR43      -0.2866
     37  N         -1.1700   34.7940  -18.5000 N.3    84  SER84      -0.1202
     38  CA        -1.4180   35.5670  -17.2940 C.3    84  SER84       0.2020
     39  C         -2.4870   36.6060  -17.5040 C.2    84  SER84       0.2619
     40  O         -2.7490   37.0200  -18.6320 O.2    84  SER84      -0.2717
     41  CB        -0.1440   36.3000  -16.8840 C.3    84  SER84       0.2103
     42  OG        -0.3940   37.2930  -15.9030 O.3    84  SER84      -0.2182
     43  N         -3.0700   37.0600  -16.4040 N.am   85  VAL85      -0.1965
     44  CA        -3.8280   38.2890  -16.4140 C.3    85  VAL85       0.1727
     45  C         -2.9130   39.3900  -16.9780 C.2    85  VAL85       0.2616
     46  O         -1.7500   39.4820  -16.6000 O.2    85  VAL85      -0.2715
     47  CB        -4.2860   38.6920  -14.9750 C.3    85  VAL85       0.0290
     48  CG1       -5.0390   40.0490  -14.9850 C.3    85  VAL85       0.0023
     49  CG2       -5.1340   37.5790  -14.3160 C.3    85  VAL85       0.0023
     50  N         -3.4460   40.1940  -17.8950 N.am   86  ALA86      -0.1963
     51  CA        -2.7590   41.3660  -18.4530 C.3    86  ALA86       0.1728
     52  C         -1.6210   41.0580  -19.4260 C.2    86  ALA86       0.2616
     53  O         -0.8490   41.9470  -19.7680 O.2    86  ALA86      -0.2715
     54  CB        -2.2640   42.2740  -17.3440 C.3    86  ALA86       0.0334
     55  N         -1.5070   39.8160  -19.8710 N.am   87  VAL87      -0.1963
     56  CA        -0.4400   39.4450  -20.7840 C.3    87  VAL87       0.1727
     57  C         -0.8490   39.7630  -22.2250 C.2    87  VAL87       0.2617
     58  O         -0.0170   39.8760  -23.1140 O.2    87  VAL87      -0.2715
     59  CB        -0.0660   37.9590  -20.6270 C.3    87  VAL87       0.0290
     60  CG1       -1.0610   37.0720  -21.3330 C.3    87  VAL87       0.0023
     61  CG2        1.3390   37.7050  -21.1560 C.3    87  VAL87       0.0023
     62  N         -2.1460   39.9070  -22.4520 N.am   88  GLY88      -0.1940
     63  CA        -2.6400   40.3210  -23.7520 C.3    88  GLY88       0.2014
     64  C         -3.4490   39.2870  -24.4950 C.2    88  GLY88       0.2639
     65  O         -3.5120   39.3180  -25.7180 O.2    88  GLY88      -0.2714
     66  N         -4.0950   38.3690  -23.7960 N.am   89  LYS89      -0.1963
     67  CA        -4.8160   37.3280  -24.5210 C.3    89  LYS89       0.1728
     68  C         -6.1390   37.8230  -25.1470 C.2    89  LYS89       0.2617
     69  O         -6.5000   37.4190  -26.2580 O.2    89  LYS89      -0.2715
     70  CB        -4.9260   36.0450  -23.6960 C.3    89  LYS89       0.0311
     71  CG        -5.7810   36.0770  -22.5430 C.3    89  LYS89       0.0038
     72  CD        -5.4200   34.9530  -21.5620 C.3    89  LYS89       0.0206
     73  CE        -5.9800   35.3220  -20.2170 C.3    89  LYS89       0.1093
     74  NZ        -5.2260   36.4500  -19.6590 N.3    89  LYS89      -0.1314
     75  N         -6.8140   38.7470  -24.4850 N.am   90  SER90      -0.1936
     76  CA        -7.9960   39.3790  -25.0610 C.3    90  SER90       0.2055
     77  C         -7.6340   40.1790  -26.3150 C.2    90  SER90       0.2644
     78  O         -8.3520   40.1700  -27.3100 O.2    90  SER90      -0.2714
     79  CB        -8.6430   40.3100  -24.0380 C.3    90  SER90       0.2130
     80  OG        -9.2220   41.4190  -24.6830 O.3    90  SER90      -0.2179
     81  N         -6.5120   40.8720  -26.2700 N.am   91  THR91      -0.1936
     82  CA        -6.0190   41.5620  -27.4510 C.3    91  THR91       0.2028
     83  C         -5.6830   40.5700  -28.5640 C.2    91  THR91       0.2642
     84  O         -6.0210   40.7930  -29.7190 O.2    91  THR91      -0.2714
     85  CB        -4.7880   42.3980  -27.1020 C.3    91  THR91       0.1808
     86  OG1       -5.1000   43.2690  -25.9940 O.3    91  THR91      -0.2208
     87  CG2       -4.3170   43.2060  -28.3130 C.3    91  THR91       0.0379
     88  N         -5.0430   39.4640  -28.2100 N.am   92  THR92      -0.1950
     89  CA        -4.6220   38.4610  -29.1920 C.3    92  THR92       0.1897
     90  C         -5.8380   37.8090  -29.8510 C.2    92  THR92       0.2313
     91  O         -5.8820   37.6320  -31.0760 O.2    92  THR92      -0.2863
     92  CB        -3.7080   37.3840  -28.5530 C.3    92  THR92       0.1794
     93  OG1       -2.6290   38.0230  -27.8920 O.3    92  THR92      -0.2208
     94  CG2       -3.1140   36.4500  -29.5930 C.3    92  THR92       0.0378
     95  N        -10.4980   32.0800  -24.9590 N.3   187  GLU187     -0.1245
     96  CA        -9.4660   32.7270  -24.1510 C.3   187  GLU187      0.1567
     97  C         -9.8340   32.6980  -22.6820 C.2   187  GLU187      0.2260
     98  O        -10.9980   32.8460  -22.3150 O.2   187  GLU187     -0.2867
     99  CB        -9.2090   34.1720  -24.5880 C.3   187  GLU187      0.0388
    100  CG       -10.4540   34.9940  -24.7150 C.3   187  GLU187      0.1160
    101  CD       -10.3080   36.4170  -24.2100 C.2   187  GLU187      0.3649
    102  OE1       -9.9250   36.6040  -23.0350 O.co2 187  GLU187     -0.2457
    103  OE2      -10.6440   37.3440  -24.9780 O.co2 187  GLU187     -0.2457
    104  N          2.3810   45.9020  -17.1930 N.3   227  TRP227     -0.1241
    105  CA         1.2390   46.0330  -18.0840 C.3   227  TRP227      0.1605
    106  C         -0.0300   46.0670  -17.2710 C.2   227  TRP227      0.2264
    107  O         -0.9760   46.7910  -17.5790 O.2   227  TRP227     -0.2867
    108  CB         1.1560   44.8780  -19.0600 C.3   227  TRP227      0.0550
    109  CG         2.2950   44.7950  -20.0100 C.ar  227  TRP227      0.0003
    110  CD1        3.1170   45.8050  -20.3990 C.ar  227  TRP227      0.0946
    111  CD2        2.7160   43.6280  -20.7300 C.ar  227  TRP227      0.0152
    112  NE1        4.0330   45.3360  -21.2990 N.ar  227  TRP227     -0.2442
    113  CE2        3.8090   44.0020  -21.5170 C.ar  227  TRP227      0.0810
    114  CE3        2.2800   42.2960  -20.7620 C.ar  227  TRP227      0.0012
    115  CZ2        4.4770   43.1000  -22.3410 C.ar  227  TRP227      0.0191
    116  CZ3        2.9430   41.3960  -21.5710 C.ar  227  TRP227      0.0001
    117  CH2        4.0340   41.8030  -22.3570 C.ar  227  TRP227      0.0015
    118  N         -2.5590   49.1870  -17.0110 N.3   231  ARG231     -0.1245
    119  CA        -3.9620   48.9970  -17.3870 C.3   231  ARG231      0.1563
    120  C         -4.9230   49.5190  -16.3010 C.2   231  ARG231      0.2260
    121  O         -5.9040   50.1960  -16.6160 O.2   231  ARG231     -0.2867
    122  CB        -4.2580   47.5380  -17.7060 C.3   231  ARG231      0.0307
    123  CG        -5.5860   47.3330  -18.4280 C.3   231  ARG231      0.0489
    124  CD        -5.7930   45.8900  -18.7640 C.3   231  ARG231      0.2205
    125  NE        -5.9260   45.0410  -17.5770 N.pl3 231  ARG231     -0.0865
    126  CZ        -6.0610   43.7170  -17.6140 C.cat 231  ARG231      0.5346
    127  NH1       -6.0710   43.0700  -18.7750 N.pl3 231  ARG231      0.1354
    128  NH2       -6.1870   43.0300  -16.4880 N.pl3 231  ARG231      0.1354
    129  N          6.4730   37.4900  -25.4800 N.3   291  LYS291     -0.1245
    130  CA         6.4660   38.9300  -25.6700 C.3   291  LYS291      0.1561
    131  C          7.6360   39.6040  -24.9760 C.2   291  LYS291      0.2260
    132  O          8.0010   39.2270  -23.8720 O.2   291  LYS291     -0.2867
    133  CB         5.1440   39.5160  -25.1470 C.3   291  LYS291      0.0271
    134  CG         3.9640   39.2220  -26.0570 C.3   291  LYS291      0.0035
    135  CD         2.6380   39.5110  -25.4010 C.3   291  LYS291      0.0206
    136  CE         2.2650   40.9560  -25.4240 C.3   291  LYS291      0.1093
    137  NZ         0.8490   41.1320  -25.0020 N.3   291  LYS291     -0.1314
    138  N          7.7540   45.6510  -24.6420 N.3   294  ASP294     -0.1225
    139  CA         6.9650   46.5480  -25.4760 C.3   294  ASP294      0.1805
    140  C          5.7960   45.8250  -26.1600 C.2   294  ASP294      0.2597
    141  O          5.1600   46.3950  -27.0240 O.2   294  ASP294     -0.2718
    142  CB         7.8670   47.2250  -26.5150 C.3   294  ASP294      0.1424
    143  CG         8.4310   46.2360  -27.5390 C.2   294  ASP294      0.3668
    144  OD1        8.0520   45.0460  -27.4770 O.co2 294  ASP294     -0.2456
    145  OD2        9.2410   46.6530  -28.3970 O.co2 294  ASP294     -0.2456
    146  N          5.5410   44.5770  -25.7660 N.am  295  HIS295     -0.1975
    147  CA         4.4940   43.7080  -26.3310 C.3   295  HIS295      0.1656
    148  C          4.8370   42.9920  -27.6400 C.2   295  HIS295      0.2291
    149  O          4.1000   42.0910  -28.0620 O.2   295  HIS295     -0.2864
    150  CB         3.1640   44.4410  -26.5170 C.3   295  HIS295      0.0771
    151  CG         2.4750   44.7660  -25.2370 C.ar  295  HIS295      0.0820
    152  ND1        1.5800   43.9070  -24.6470 N.ar  295  HIS295     -0.2267
    153  CD2        2.5290   45.8650  -24.4450 C.ar  295  HIS295      0.1154
    154  CE1        1.1160   44.4590  -23.5410 C.ar  295  HIS295      0.1986
    155  NE2        1.6760   45.6460  -23.3940 N.ar  295  HIS295     -0.2212
@<TRIPOS>BOND
     1    28    27    2
     2    27    26    1
     3    25    26    1
     4    26    29    1
     5    16    17    1
     6    19    18    2
     7    18    17    1
     8    29    30    1
     9    17    20    1
    10    30    32   ar
    11    30    31   ar
    12    20    21    1
    13    32    34   ar
    14    31    33   ar
    15    15    13    1
    16    23    22   ar
    17    21    22    1
    18    22    24   ar
    19    12    11    2
    20    34    35   ar
    21    11    10    1
    22    33    35   ar
    23    13    10    1
    24    13    14    1
    25    35    36    1
    26    10     9    1
    27    91    90    2
    28     9     3   am
    29     1     2    1
    30     3     2    1
    31     3     4    2
    32    90    89    1
    33     2     5    1
    34    84    83    2
    35    94    92    1
    36    89    92    1
    37    89    88    1
    38     5     6    1
    39     5     7    1
    40    83    88   am
    41    83    82    1
    42    92    93    1
    43     6     8    1
    44   145   143   ar
    45    87    85    1
    46   149   148    2
    47   148   147    1
    48   143   144   ar
    49   143   142    1
    50    82    85    1
    51    82    81    1
    52    78    77    2
    53    85    86    1
    54   141   140    2
    55   150   147    1
    56   150   151    1
    57   142   139    1
    58   147   146    1
    59    77    81   am
    60    77    76    1
    61    69    68    2
    62   140   146   am
    63   140   139    1
    64   134   135    1
    65   134   133    1
    66    65    64    2
    67   130   129    1
    68   130   133    1
    69   130   131    1
    70   139   138    1
    71   136   135    1
    72   136   137    1
    73   151   152   ar
    74   151   153   ar
    75    68    67    1
    76    68    75   am
    77    76    75    1
    78    76    79    1
    79   103   101   ar
    80   131   132    2
    81    95    96    1
    82   100    99    1
    83   100   101    1
    84    80    79    1
    85   152   154   ar
    86    99    96    1
    87    67    66    1
    88    67    70    1
    89    64    66   am
    90    64    63    1
    91   153   155   ar
    92   101   102   ar
    93    96    97    1
    94    63    62    1
    95    70    71    1
    96   154   155   ar
    97    58    57    2
    98    97    98    2
    99    71    72    1
   100    62    57   am
   101   117   115   ar
   102   117   116   ar
   103   115   113   ar
   104    57    56    1
   105   116   114   ar
   106    72    73    1
   107   113   112   ar
   108   113   111   ar
   109    60    59    1
   110   112   110   ar
   111    61    59    1
   112    56    59    1
   113    56    55    1
   114   114   111   ar
   115   111   109   ar
   116   110   109   ar
   117    73    74    1
   118   109   108    1
   119    55    52   am
   120    53    52    2
   121    52    51    1
   122   108   105    1
   123   127   126    1
   124   124   123    1
   125   124   125    1
   126    40    39    2
   127    37    38    1
   128    51    50    1
   129    51    54    1
   130   123   122    1
   131   105   106    1
   132   105   104    1
   133    50    45   am
   134   122   119    1
   135   126   125    2
   136   126   128    1
   137   107   106    2
   138    39    38    1
   139    39    43   am
   140   119   118    1
   141   119   120    1
   142    38    41    1
   143    45    46    2
   144    45    44    1
   145    41    42    1
   146   121   120    2
   147    44    43    1
   148    44    47    1
   149    48    47    1
   150    47    49    1
