@<TRIPOS>MOLECULE
tmp/3tqlA00.pdb
 126 118 0 0 0
SMALL
GASTEIGER

@<TRIPOS>ATOM
      1  N         15.3150   67.8240   22.6020 N.3     8  THR8       -0.1203
      2  CA        15.7800   67.4230   21.2760 C.3     8  THR8        0.1994
      3  C         14.5660   66.9050   20.5170 C.2     8  THR8        0.2617
      4  O         13.4720   66.8340   21.0780 O.2     8  THR8       -0.2717
      5  CB        16.8610   66.2990   21.3940 C.3     8  THR8        0.1784
      6  OG1       17.4400   66.0220   20.0990 O.3     8  THR8       -0.2211
      7  CG2       16.2430   65.0210   21.9650 C.3     8  THR8        0.0376
      8  N         14.7400   66.5500   19.2440 N.am    9  GLU9       -0.1979
      9  CA        13.7800   65.6660   18.5740 C.3     9  GLU9        0.1602
     10  C         14.4990   64.3490   18.3260 C.2     9  GLU9        0.2287
     11  O         15.4860   64.3200   17.6040 O.2     9  GLU9       -0.2864
     12  CB        13.2890   66.2540   17.2530 C.3     9  GLU9        0.0415
     13  CG        12.1790   65.4040   16.6240 C.3     9  GLU9        0.1163
     14  CD        11.8670   65.7830   15.1970 C.2     9  GLU9        0.3649
     15  OE1       12.5650   65.2850   14.2830 O.co2   9  GLU9       -0.2457
     16  OE2       10.9180   66.5670   14.9780 O.co2   9  GLU9       -0.2457
     17  N         15.1400   61.6010   16.5990 N.3    11  THR11      -0.1203
     18  CA        14.8560   61.0750   15.2690 C.3    11  THR11       0.1994
     19  C         16.0930   61.1720   14.3710 C.2    11  THR11       0.2617
     20  O         15.9740   61.3290   13.1640 O.2    11  THR11      -0.2717
     21  CB        13.7710   61.9220   14.6120 C.3    11  THR11       0.1784
     22  OG1       14.1730   63.3010   14.6710 O.3    11  THR11      -0.2211
     23  CG2       12.4430   61.7680   15.3090 C.3    11  THR11       0.0376
     24  N         17.2800   61.0430   14.9520 N.am   12  TYR12      -0.1975
     25  CA        18.5170   61.2480   14.2100 C.3    12  TYR12       0.1639
     26  C         19.6270   60.3180   14.6930 C.2    12  TYR12       0.2290
     27  O         20.6160   60.7560   15.2610 O.2    12  TYR12      -0.2864
     28  CB        18.9440   62.7070   14.3430 C.3    12  TYR12       0.0560
     29  CG        19.9490   63.2100   13.3330 C.ar   12  TYR12      -0.0198
     30  CD1       19.6700   63.1780   11.9660 C.ar   12  TYR12      -0.0009
     31  CD2       21.1480   63.8060   13.7550 C.ar   12  TYR12      -0.0009
     32  CE1       20.5760   63.6900   11.0300 C.ar   12  TYR12       0.0417
     33  CE2       22.0640   64.3180   12.8450 C.ar   12  TYR12       0.0417
     34  CZ        21.7720   64.2660   11.4780 C.ar   12  TYR12       0.1957
     35  OH        22.6760   64.7910   10.5860 O.3    12  TYR12      -0.2866
     36  N         20.8670   60.8920   18.2600 N.3    16  VAL16      -0.1245
     37  CA        19.7410   60.7140   19.1680 C.3    16  VAL16       0.1561
     38  C         18.6640   59.9020   18.4880 C.2    16  VAL16       0.2260
     39  O         18.4750   59.9930   17.2720 O.2    16  VAL16      -0.2867
     40  CB        19.1130   62.0580   19.6350 C.3    16  VAL16       0.0252
     41  CG1       19.8340   62.6040   20.8400 C.3    16  VAL16       0.0019
     42  CG2       19.0630   63.0740   18.4840 C.3    16  VAL16       0.0019
     43  N         11.1260   69.1780   16.0890 N.3    46  TRP46      -0.1241
     44  CA        12.3190   69.9310   15.7070 C.3    46  TRP46       0.1605
     45  C         12.0690   71.4320   15.5760 C.2    46  TRP46       0.2264
     46  O         12.8300   72.2410   16.1000 O.2    46  TRP46      -0.2867
     47  CB        12.8610   69.3760   14.3880 C.3    46  TRP46       0.0550
     48  CG        14.1230   70.0110   13.9140 C.ar   46  TRP46       0.0003
     49  CD1       14.2610   70.9020   12.8850 C.ar   46  TRP46       0.0946
     50  CD2       15.4390   69.8000   14.4390 C.ar   46  TRP46       0.0152
     51  NE1       15.5780   71.2550   12.7380 N.ar   46  TRP46      -0.2442
     52  CE2       16.3230   70.5910   13.6750 C.ar   46  TRP46       0.0810
     53  CE3       15.9520   69.0220   15.4810 C.ar   46  TRP46       0.0012
     54  CZ2       17.6940   70.6270   13.9230 C.ar   46  TRP46       0.0191
     55  CZ3       17.3200   69.0600   15.7240 C.ar   46  TRP46       0.0001
     56  CH2       18.1740   69.8550   14.9440 C.ar   46  TRP46       0.0015
     57  N         21.3450   67.3100   19.8150 N.3    63  GLY63      -0.1210
     58  CA        20.9210   66.1090   19.0990 C.3    63  GLY63       0.1956
     59  C         21.3310   66.1430   17.6400 C.2    63  GLY63       0.2612
     60  O         20.4960   66.3260   16.7620 O.2    63  GLY63      -0.2717
     61  N         22.6210   65.9520   17.3860 N.am   64  GLY64      -0.1956
     62  CA        23.1420   66.0550   16.0360 C.3    64  GLY64       0.1869
     63  C         23.0210   67.4520   15.4590 C.2    64  GLY64       0.2309
     64  O         22.9170   67.6250   14.2440 O.2    64  GLY64      -0.2863
     65  N         24.3180   70.6190   14.1240 N.3    65  ASN65      -0.1240
     66  CA        25.5260   71.1910   13.5620 C.3    65  ASN65       0.1653
     67  C         25.6120   72.6690   13.9340 C.2    65  ASN65       0.2266
     68  O         24.6500   73.4120   13.7800 O.2    65  ASN65      -0.2867
     69  CB        25.5480   71.0700   12.0330 C.3    65  ASN65       0.1155
     70  CG        25.7840   69.6510   11.5590 C.2    65  ASN65       0.2627
     71  OD1       26.5130   68.8790   12.1930 O.2    65  ASN65      -0.2716
     72  ND2       25.1780   69.3000   10.4210 N.am   65  ASN65      -0.0877
     73  N         22.9790   79.5850   12.6460 N.3    70  ARG70      -0.1245
     74  CA        22.4140   79.2150   13.9330 C.3    70  ARG70       0.1563
     75  C         23.0380   80.0000   15.0700 C.2    70  ARG70       0.2260
     76  O         22.3730   80.3000   16.0600 O.2    70  ARG70      -0.2867
     77  CB        22.5870   77.7130   14.1680 C.3    70  ARG70       0.0307
     78  CG        21.6550   76.8820   13.3410 C.3    70  ARG70       0.0489
     79  CD        21.9440   75.4000   13.4800 C.3    70  ARG70       0.2205
     80  NE        20.8990   74.6820   12.7840 N.pl3  70  ARG70      -0.0865
     81  CZ        20.9510   73.3990   12.4610 C.cat  70  ARG70       0.5346
     82  NH1       22.0230   72.6850   12.7770 N.pl3  70  ARG70       0.1354
     83  NH2       19.9250   72.8370   11.8200 N.pl3  70  ARG70       0.1354
     84  N         27.7060   66.4640   11.2150 N.3    84  SER84      -0.1217
     85  CA        27.0130   65.3480   10.5800 C.3    84  SER84       0.1889
     86  C         26.5450   65.7440    9.1810 C.2    84  SER84       0.2288
     87  O         26.0670   66.8670    8.9640 O.2    84  SER84      -0.2866
     88  CB        25.7930   64.9620   11.4180 C.3    84  SER84       0.2089
     89  OG        25.0400   63.9360   10.7860 O.3    84  SER84      -0.2183
     90  N         23.6370   64.7550    6.7540 N.3    86  SER86      -0.1217
     91  CA        22.3760   64.0390    6.9200 C.3    86  SER86       0.1889
     92  C         21.9960   63.3010    5.6560 C.2    86  SER86       0.2288
     93  O         22.1010   63.8640    4.5570 O.2    86  SER86      -0.2866
     94  CB        21.2550   65.0080    7.2810 C.3    86  SER86       0.2089
     95  OG        21.6140   65.7900    8.4050 O.3    86  SER86      -0.2183
     96  N         19.7230   70.2860    4.4280 N.3   153  THR153     -0.1204
     97  CA        18.6330   69.7540    5.2330 C.3   153  THR153      0.1979
     98  C         17.4480   70.7230    5.4260 C.2   153  THR153      0.2459
     99  O         16.2920   70.3060    5.3600 O.2   153  THR153     -0.2732
    100  CB        19.1300   69.2210    6.5700 C.3   153  THR153      0.1783
    101  OG1       19.9900   68.1060    6.3230 O.3   153  THR153     -0.2211
    102  CG2       17.9590   68.7500    7.3900 C.3   153  THR153      0.0376
    103  N         17.7200   72.0140    5.6630 N.am  154  PRO154     -0.2728
    104  CA        16.5430   72.8700    5.8250 C.3   154  PRO154      0.1401
    105  C         15.6920   72.9300    4.5460 C.2   154  PRO154      0.2269
    106  O         14.4580   72.9600    4.6510 O.2   154  PRO154     -0.2865
    107  CB        17.1460   74.2380    6.1880 C.3   154  PRO154      0.0296
    108  CG        18.4920   73.9050    6.7650 C.3   154  PRO154      0.0237
    109  CD        18.9680   72.7310    5.9550 C.3   154  PRO154      0.0939
    110  N         13.8250   69.4750    4.2470 N.3   157  LYS157     -0.1245
    111  CA        12.7360   69.4000    5.2140 C.3   157  LYS157      0.1561
    112  C         11.5660   70.2640    4.7700 C.2   157  LYS157      0.2260
    113  O         10.3960   69.9000    4.9400 O.2   157  LYS157     -0.2867
    114  CB        13.2230   69.8460    6.5960 C.3   157  LYS157      0.0271
    115  CG        14.1010   68.8070    7.2920 C.3   157  LYS157      0.0035
    116  CD        14.4790   69.2310    8.7090 C.3   157  LYS157      0.0206
    117  CE        15.1100   68.0590    9.4590 C.3   157  LYS157      0.1093
    118  NZ        15.7310   68.4390   10.7730 N.3   157  LYS157     -0.1314
    119  N         15.6860   61.5920    8.7770 N.3   170  LEU170     -0.1245
    120  CA        17.1240   61.8400    8.6530 C.3   170  LEU170      0.1561
    121  C         17.9490   60.8430    9.4510 C.2   170  LEU170      0.2260
    122  O         17.5590   60.4110   10.5470 O.2   170  LEU170     -0.2867
    123  CB        17.4720   63.2550    9.1210 C.3   170  LEU170      0.0270
    124  CG        17.1170   64.4350    8.2230 C.3   170  LEU170      0.0019
    125  CD1       15.6250   64.4870    7.9430 C.3   170  LEU170      0.0001
    126  CD2       17.5960   65.7390    8.8630 C.3   170  LEU170      0.0001
@<TRIPOS>BOND
     1   110   111    1
     2    96    97    1
     3   105   106    2
     4   105   104    1
     5    93    92    2
     6   112   113    2
     7   112   111    1
     8   111   114    1
     9    97    98    1
    10    97   100    1
    11    99    98    2
    12    98   103   am
    13    92    91    1
    14   103   104    1
    15   103   109    1
    16   104   107    1
    17   109   108    1
    18   107   108    1
    19   101   100    1
    20   100   102    1
    21   114   115    1
    22    90    91    1
    23    91    94    1
    24    94    95    1
    25   115   116    1
    26   125   124    1
    27   124   126    1
    28   124   123    1
    29   120   119    1
    30   120   123    1
    31   120   121    1
    32   116   117    1
    33    87    86    2
    34    86    85    1
    35   121   122    2
    36   117   118    1
    37    72    70   am
    38    85    84    1
    39    85    88    1
    40    35    34    1
    41    89    88    1
    42    32    34   ar
    43    32    30   ar
    44    34    33   ar
    45    70    69    1
    46    70    71    2
    47    83    81    1
    48    30    29   ar
    49    69    66    1
    50    81    82    1
    51    81    80    2
    52    73    74    1
    53    51    49   ar
    54    51    52   ar
    55    80    79    1
    56    33    31   ar
    57    49    48   ar
    58    20    19    2
    59    29    31   ar
    60    29    28    1
    61    78    79    1
    62    78    77    1
    63    66    67    1
    64    66    65    1
    65    52    54   ar
    66    52    50   ar
    67    68    67    2
    68    48    47    1
    69    48    50   ar
    70    54    56   ar
    71    74    77    1
    72    74    75    1
    73    25    28    1
    74    25    26    1
    75    25    24    1
    76    64    63    2
    77    15    14   ar
    78    19    24   am
    79    19    18    1
    80    47    44    1
    81    50    53   ar
    82    21    22    1
    83    21    18    1
    84    21    23    1
    85    26    27    2
    86    56    55   ar
    87    16    14   ar
    88    75    76    2
    89    14    13    1
    90    18    17    1
    91    63    62    1
    92    53    55   ar
    93    45    44    1
    94    45    46    2
    95    44    43    1
    96    62    61    1
    97    13    12    1
    98    60    59    2
    99    12     9    1
   100    39    38    2
   101    61    59   am
   102    11    10    2
   103    59    58    1
   104    36    37    1
   105    10     9    1
   106    42    40    1
   107    38    37    1
   108     9     8    1
   109    58    57    1
   110    37    40    1
   111     8     3   am
   112    40    41    1
   113     6     5    1
   114     3     4    2
   115     3     2    1
   116     2     5    1
   117     2     1    1
   118     5     7    1
