@<TRIPOS>MOLECULE
tmp/3tqwA00.pdb
 137 133 0 0 0
SMALL
GASTEIGER

@<TRIPOS>ATOM
      1  N         30.3430   16.5220   37.1360 N.3    10  GLU10      -0.1245
      2  CA        29.9180   16.3230   35.7480 C.3    10  GLU10       0.1567
      3  C         30.7790   17.1080   34.7600 C.2    10  GLU10       0.2260
      4  O         30.9330   16.7160   33.6030 O.2    10  GLU10      -0.2867
      5  CB        28.4350   16.6490   35.5720 C.3    10  GLU10       0.0388
      6  CG        27.5330   15.7110   36.3700 C.3    10  GLU10       0.1160
      7  CD        26.0730   16.1000   36.3090 C.2    10  GLU10       0.3649
      8  OE1       25.7170   16.9850   35.5020 O.co2  10  GLU10      -0.2457
      9  OE2       25.2830   15.5140   37.0740 O.co2  10  GLU10      -0.2457
     10  N         21.0720   25.0960   37.8380 N.3    36  TYR36      -0.1241
     11  CA        20.3130   24.2640   36.9100 C.3    36  TYR36       0.1605
     12  C         19.5020   25.1060   35.9210 C.2    36  TYR36       0.2264
     13  O         19.2930   24.7030   34.7740 O.2    36  TYR36      -0.2867
     14  CB        19.3120   23.3990   37.6810 C.3    36  TYR36       0.0534
     15  CG        19.8480   22.1560   38.3700 C.ar   36  TYR36      -0.0201
     16  CD1       21.1130   21.6500   38.0960 C.ar   36  TYR36      -0.0009
     17  CD2       19.0530   21.4680   39.2780 C.ar   36  TYR36      -0.0009
     18  CE1       21.5750   20.4880   38.7310 C.ar   36  TYR36       0.0417
     19  CE2       19.4970   20.3210   39.9080 C.ar   36  TYR36       0.0417
     20  CZ        20.7480   19.8320   39.6350 C.ar   36  TYR36       0.1957
     21  OH        21.1570   18.6860   40.2810 O.3    36  TYR36      -0.2866
     22  N         23.4800   18.4300   31.4600 N.3    52  PHE52      -0.1227
     23  CA        23.3110   18.6750   32.8880 C.3    52  PHE52       0.1736
     24  C         21.9740   18.2120   33.4570 C.2    52  PHE52       0.2595
     25  O         21.7950   18.1990   34.6770 O.2    52  PHE52      -0.2718
     26  CB        23.4690   20.1690   33.1850 C.3    52  PHE52       0.0547
     27  CG        22.2240   20.9690   32.9220 C.ar   52  PHE52      -0.0202
     28  CD1       21.8830   21.3390   31.6280 C.ar   52  PHE52      -0.0042
     29  CD2       21.3920   21.3500   33.9650 C.ar   52  PHE52      -0.0042
     30  CE1       20.7260   22.0690   31.3800 C.ar   52  PHE52      -0.0003
     31  CE2       20.2360   22.0810   33.7220 C.ar   52  PHE52      -0.0003
     32  CZ        19.9060   22.4410   32.4300 C.ar   52  PHE52      -0.0000
     33  N         21.0330   17.8470   32.5910 N.am   53  GLN53      -0.1965
     34  CA        19.6510   17.6540   33.0230 C.3    53  GLN53       0.1733
     35  C         19.0430   16.3390   32.5520 C.2    53  GLN53       0.2616
     36  O         19.5310   15.7150   31.6000 O.2    53  GLN53      -0.2715
     37  CB        18.7840   18.8030   32.4930 C.3    53  GLN53       0.0408
     38  CG        18.3630   18.6040   31.0450 C.3    53  GLN53       0.0908
     39  CD        17.9600   19.8930   30.3710 C.2    53  GLN53       0.2608
     40  OE1       17.0580   20.5930   30.8270 O.2    53  GLN53      -0.2717
     41  NE2       18.6290   20.2160   29.2720 N.am   53  GLN53      -0.0878
     42  N         17.9580   15.9340   33.2090 N.am   54  HIS54      -0.1973
     43  CA        17.1280   14.8390   32.7080 C.3    54  HIS54       0.1656
     44  C         15.9270   15.3660   31.9150 C.2    54  HIS54       0.2291
     45  O         15.6540   16.5700   31.9050 O.2    54  HIS54      -0.2864
     46  CB        16.6840   13.9000   33.8410 C.3    54  HIS54       0.0771
     47  CG        16.1640   14.6020   35.0600 C.ar   54  HIS54       0.0820
     48  ND1       15.0400   15.4020   35.0400 N.ar   54  HIS54      -0.2267
     49  CD2       16.5960   14.5970   36.3440 C.ar   54  HIS54       0.1154
     50  CE1       14.8110   15.8690   36.2540 C.ar   54  HIS54       0.1986
     51  NE2       15.7420   15.3990   37.0660 N.ar   54  HIS54      -0.2212
     52  N         13.1300   17.4560   33.7250 N.3    57  TYR57      -0.1241
     53  CA        13.5700   18.8260   33.9500 C.3    57  TYR57       0.1605
     54  C         13.4660   19.6540   32.6640 C.2    57  TYR57       0.2264
     55  O         12.9950   20.7900   32.6790 O.2    57  TYR57      -0.2867
     56  CB        14.9990   18.8670   34.4960 C.3    57  TYR57       0.0534
     57  CG        15.4020   20.2500   34.9510 C.ar   57  TYR57      -0.0201
     58  CD1       15.8930   21.1840   34.0430 C.ar   57  TYR57      -0.0009
     59  CD2       15.2710   20.6310   36.2820 C.ar   57  TYR57      -0.0009
     60  CE1       16.2570   22.4670   34.4550 C.ar   57  TYR57       0.0417
     61  CE2       15.6370   21.9070   36.7060 C.ar   57  TYR57       0.0417
     62  CZ        16.1210   22.8180   35.7860 C.ar   57  TYR57       0.1957
     63  OH        16.4770   24.0860   36.1970 O.3    57  TYR57      -0.2866
     64  N         21.8160    9.0600   37.3330 N.3    77  TYR77      -0.1241
     65  CA        22.4950    9.2330   38.6120 C.3    77  TYR77       0.1605
     66  C         21.4860    9.0370   39.7390 C.2    77  TYR77       0.2264
     67  O         20.9010   10.0070   40.2210 O.2    77  TYR77      -0.2867
     68  CB        23.1090   10.6350   38.7180 C.3    77  TYR77       0.0534
     69  CG        24.1010   10.9890   37.6290 C.ar   77  TYR77      -0.0201
     70  CD1       25.4290   10.5740   37.7070 C.ar   77  TYR77      -0.0009
     71  CD2       23.7180   11.7650   36.5370 C.ar   77  TYR77      -0.0009
     72  CE1       26.3480   10.9070   36.7180 C.ar   77  TYR77       0.0417
     73  CE2       24.6320   12.1010   35.5400 C.ar   77  TYR77       0.0417
     74  CZ        25.9450   11.6680   35.6380 C.ar   77  TYR77       0.1957
     75  OH        26.8560   11.9980   34.6560 O.3    77  TYR77      -0.2866
     76  N         12.4590   17.8330   40.0140 N.3   105  ASN105     -0.1240
     77  CA        13.2500   17.1730   41.0470 C.3   105  ASN105      0.1653
     78  C         12.5350   17.1040   42.3910 C.2   105  ASN105      0.2266
     79  O         12.8380   16.2380   43.2160 O.2   105  ASN105     -0.2867
     80  CB        14.6440   17.7860   41.1670 C.3   105  ASN105      0.1155
     81  CG        15.5160   17.4570   39.9670 C.2   105  ASN105      0.2627
     82  OD1       15.9550   16.3150   39.7990 O.2   105  ASN105     -0.2716
     83  ND2       15.7650   18.4530   39.1210 N.am  105  ASN105     -0.0877
     84  N         10.3840   14.1670   41.9520 N.3   108  ARG108     -0.1245
     85  CA        11.3010   13.0400   42.0100 C.3   108  ARG108      0.1563
     86  C         11.6190   12.6540   43.4470 C.2   108  ARG108      0.2260
     87  O         11.6150   11.4760   43.7920 O.2   108  ARG108     -0.2867
     88  CB        12.5980   13.3850   41.2690 C.3   108  ARG108      0.0307
     89  CG        13.7050   12.3310   41.3940 C.3   108  ARG108      0.0489
     90  CD        14.9600   12.8130   40.6840 C.3   108  ARG108      0.2205
     91  NE        15.9470   11.7540   40.4860 N.pl3 108  ARG108     -0.0865
     92  CZ        17.1130   11.9380   39.8760 C.cat 108  ARG108      0.5346
     93  NH1       17.4230   13.1390   39.4140 N.pl3 108  ARG108      0.1354
     94  NH2       17.9680   10.9280   39.7270 N.pl3 108  ARG108      0.1354
     95  N         20.5330   15.7350   44.7640 N.3   161  ASN161     -0.1225
     96  CA        21.0400   15.3000   43.4620 C.3   161  ASN161      0.1785
     97  C         22.5080   14.9340   43.5950 C.2   161  ASN161      0.2598
     98  O         23.2700   15.6250   44.2650 O.2   161  ASN161     -0.2718
     99  CB        20.8980   16.3950   42.4040 C.3   161  ASN161      0.1169
    100  CG        19.4540   16.7920   42.1520 C.2   161  ASN161      0.2627
    101  OD1       18.8130   16.2910   41.2280 O.2   161  ASN161     -0.2716
    102  ND2       18.9460   17.7100   42.9580 N.am  161  ASN161     -0.0877
    103  N         22.9020   13.8510   42.9480 N.am  162  THR162     -0.1939
    104  CA        24.2700   13.3630   43.0450 C.3   162  THR162      0.2028
    105  C         25.3380   14.4090   42.6890 C.2   162  THR162      0.2642
    106  O         26.3770   14.4720   43.3430 O.2   162  THR162     -0.2714
    107  CB        24.4430   12.0850   42.2070 C.3   162  THR162      0.1808
    108  OG1       23.6410   11.0440   42.7880 O.3   162  THR162     -0.2208
    109  CG2       25.9110   11.6500   42.1650 C.3   162  THR162      0.0379
    110  N         25.0910   15.2390   41.6750 N.am  163  ASN163     -0.1971
    111  CA        26.0970   16.2360   41.3050 C.3   163  ASN163      0.1688
    112  C         26.3810   17.2120   42.4490 C.2   163  ASN163      0.2292
    113  O         27.4580   17.8000   42.5100 O.2   163  ASN163     -0.2864
    114  CB        25.7290   16.9830   40.0110 C.3   163  ASN163      0.1181
    115  CG        24.5670   17.9380   40.1940 C.2   163  ASN163      0.2629
    116  OD1       23.4200   17.5150   40.3210 O.2   163  ASN163     -0.2716
    117  ND2       24.8560   19.2340   40.2000 N.am  163  ASN163     -0.0877
    118  N         15.0260    9.3570   34.8650 N.3   186  TYR186     -0.1241
    119  CA        15.9360   10.4790   35.1260 C.3   186  TYR186      0.1605
    120  C         17.3450   10.3700   34.5430 C.2   186  TYR186      0.2264
    121  O         18.2790   10.9720   35.0720 O.2   186  TYR186     -0.2867
    122  CB        16.0010   10.7690   36.6280 C.3   186  TYR186      0.0534
    123  CG        14.6360   11.0620   37.1990 C.ar  186  TYR186     -0.0201
    124  CD1       14.0210   10.1790   38.0790 C.ar  186  TYR186     -0.0009
    125  CD2       13.9420   12.2060   36.8260 C.ar  186  TYR186     -0.0009
    126  CE1       12.7600   10.4420   38.5880 C.ar  186  TYR186      0.0417
    127  CE2       12.6860   12.4790   37.3320 C.ar  186  TYR186      0.0417
    128  CZ        12.0990   11.5950   38.2090 C.ar  186  TYR186      0.1957
    129  OH        10.8430   11.8670   38.7060 O.3   186  TYR186     -0.2866
    130  N         20.3020   11.4790   32.3720 N.3   188  ASN188     -0.1240
    131  CA        20.6580   12.7970   31.8650 C.3   188  ASN188      0.1653
    132  C         20.8560   12.7590   30.3570 C.2   188  ASN188      0.2266
    133  O         21.0620   11.6900   29.7690 O.2   188  ASN188     -0.2867
    134  CB        21.8860   13.3500   32.5830 C.3   188  ASN188      0.1155
    135  CG        21.5730   13.7930   34.0090 C.2   188  ASN188      0.2627
    136  OD1       20.6490   13.2790   34.6460 O.2   188  ASN188     -0.2716
    137  ND2       22.3350   14.7500   34.5100 N.am  188  ASN188     -0.0877
@<TRIPOS>BOND
     1    41    39   am
     2   133   132    2
     3   132   131    1
     4    39    40    2
     5    39    38    1
     6    38    37    1
     7    30    28   ar
     8    30    32   ar
     9    22    23    1
    10    36    35    2
    11    28    27   ar
    12   131   130    1
    13   131   134    1
    14    45    44    2
    15    44    43    1
    16    32    31   ar
    17    37    34    1
    18    35    34    1
    19    35    42   am
    20   134   135    1
    21    33    34    1
    22    33    24   am
    23    54    55    2
    24    54    53    1
    25    43    42    1
    26    43    46    1
    27    23    26    1
    28    23    24    1
    29    27    26    1
    30    27    29   ar
    31    24    25    2
    32     4     3    2
    33    31    29   ar
    34    52    53    1
    35    46    47    1
    36    53    56    1
    37   135   137   am
    38   135   136    2
    39    58    60   ar
    40    58    57   ar
    41    60    62   ar
    42    56    57    1
    43   120   121    2
    44   120   119    1
    45    75    74    1
    46     3     2    1
    47    13    12    2
    48   118   119    1
    49    57    59   ar
    50    48    47   ar
    51    48    50   ar
    52    47    49   ar
    53   119   122    1
    54     8     7   ar
    55    73    74   ar
    56    73    71   ar
    57     5     2    1
    58     5     6    1
    59    74    72   ar
    60     2     1    1
    61    62    63    1
    62    62    61   ar
    63    12    11    1
    64    50    51   ar
    65    59    61   ar
    66     7     6    1
    67     7     9   ar
    68    49    51   ar
    69    71    69   ar
    70   122   123    1
    71    72    70   ar
    72   125   123   ar
    73   125   127   ar
    74    11    14    1
    75    11    10    1
    76   123   124   ar
    77   127   128   ar
    78    64    65    1
    79    69    70   ar
    80    69    68    1
    81    14    15    1
    82   124   126   ar
    83    16    15   ar
    84    16    18   ar
    85   128   126   ar
    86   128   129    1
    87    15    17   ar
    88    65    68    1
    89    65    66    1
    90    18    20   ar
    91    83    81   am
    92    17    19   ar
    93    93    92    1
    94    20    19   ar
    95    20    21    1
    96    94    92    1
    97    66    67    2
    98    82    81    2
    99    92    91    2
   100    81    80    1
   101   114   115    1
   102   114   111    1
   103    76    77    1
   104   115   117   am
   105   115   116    2
   106    91    90    1
   107    90    89    1
   108    77    80    1
   109    77    78    1
   110   101   100    2
   111    88    89    1
   112    88    85    1
   113   111   110    1
   114   111   112    1
   115   110   105   am
   116    84    85    1
   117    85    86    1
   118   100    99    1
   119   100   102   am
   120   109   107    1
   121   107   108    1
   122   107   104    1
   123    78    79    2
   124    99    96    1
   125   112   113    2
   126   105   104    1
   127   105   106    2
   128   103   104    1
   129   103    97   am
   130    86    87    2
   131    96    97    1
   132    96    95    1
   133    97    98    2
