@<TRIPOS>MOLECULE
tmp/3tqxB00.pdb
 130 120 0 0 0
SMALL
GASTEIGER

@<TRIPOS>ATOM
      1  N         44.1970   20.4480    1.2640 N.3    47  ASN47      -0.1240
      2  CA        44.8750   21.4820    2.0320 C.3    47  ASN47       0.1653
      3  C         46.1580   20.9580    2.6720 C.2    47  ASN47       0.2266
      4  O         46.6520   21.5190    3.6520 O.2    47  ASN47      -0.2867
      5  CB        43.9350   22.0510    3.0960 C.3    47  ASN47       0.1155
      6  CG        42.7070   22.7120    2.4950 C.2    47  ASN47       0.2627
      7  OD1       42.7360   23.1790    1.3570 O.2    47  ASN47      -0.2716
      8  ND2       41.6220   22.7550    3.2580 N.am   47  ASN47      -0.0877
      9  N         39.6820   22.6610   17.0790 N.3   106  SER106     -0.1202
     10  CA        39.6640   23.1010   15.6900 C.3   106  SER106      0.2020
     11  C         39.6130   24.6230   15.6290 C.2   106  SER106      0.2619
     12  O         39.1730   25.2710   16.5770 O.2   106  SER106     -0.2717
     13  CB        38.4620   22.5080   14.9500 C.3   106  SER106      0.2103
     14  OG        37.2420   23.0570   15.4230 O.3   106  SER106     -0.2182
     15  N         40.0670   25.1890   14.5150 N.am  107  CYS107     -0.1955
     16  CA        40.0340   26.6330   14.3240 C.3   107  CYS107      0.1843
     17  C         38.5900   27.1030   14.1940 C.2   107  CYS107      0.2625
     18  O         38.3080   28.3010   14.2170 O.2   107  CYS107     -0.2714
     19  CB        40.8340   27.0290   13.0810 C.3   107  CYS107      0.0997
     20  SG        41.0300   28.8110   12.8400 S.3   107  CYS107     -0.0797
     21  N         37.6780   26.1470   14.0550 N.am  108  PHE108     -0.1974
     22  CA        36.2590   26.4590   13.9790 C.3   108  PHE108      0.1639
     23  C         35.7390   26.7950   15.3740 C.2   108  PHE108      0.2290
     24  O         34.8710   27.6530   15.5380 O.2   108  PHE108     -0.2864
     25  CB        35.4800   25.2870   13.3780 C.3   108  PHE108      0.0560
     26  CG        34.2310   25.6990   12.6530 C.ar  108  PHE108     -0.0200
     27  CD1       33.3300   26.5760   13.2350 C.ar  108  PHE108     -0.0042
     28  CD2       33.9660   25.2240   11.3810 C.ar  108  PHE108     -0.0042
     29  CE1       32.1830   26.9640   12.5680 C.ar  108  PHE108     -0.0003
     30  CE2       32.8220   25.6080   10.7090 C.ar  108  PHE108     -0.0003
     31  CZ        31.9290   26.4800   11.3040 C.ar  108  PHE108     -0.0000
     32  N         37.6130   30.3410   16.5420 N.3   111  ASN111     -0.1240
     33  CA        36.9260   31.5430   16.0800 C.3   111  ASN111      0.1653
     34  C         35.6040   31.7900   16.8060 C.2   111  ASN111      0.2266
     35  O         35.2530   32.9340   17.1020 O.2   111  ASN111     -0.2867
     36  CB        36.7030   31.4920   14.5640 C.3   111  ASN111      0.1155
     37  CG        37.9780   31.7400   13.7780 C.2   111  ASN111      0.2627
     38  OD1       38.4300   32.8790   13.6500 O.2   111  ASN111     -0.2716
     39  ND2       38.5610   30.6740   13.2400 N.am  111  ASN111     -0.0877
     40  N         36.0030   33.4800    6.5610 N.3   132  HIS132     -0.1241
     41  CA        35.5440   32.1090    6.7590 C.3   132  HIS132      0.1621
     42  C         34.2890   32.0630    7.6260 C.2   132  HIS132      0.2264
     43  O         34.0390   32.9710    8.4190 O.2   132  HIS132     -0.2867
     44  CB        36.6470   31.2500    7.3850 C.3   132  HIS132      0.0745
     45  CG        36.3140   29.7900    7.4430 C.ar  132  HIS132      0.0817
     46  ND1       35.6510   29.2180    8.5080 N.ar  132  HIS132     -0.2268
     47  CD2       36.5490   28.7870    6.5650 C.ar  132  HIS132      0.1154
     48  CE1       35.4940   27.9260    8.2840 C.ar  132  HIS132      0.1986
     49  NE2       36.0310   27.6380    7.1120 N.ar  132  HIS132     -0.2212
     50  N         33.6640   30.2410   10.1460 N.3   134  SER134     -0.1217
     51  CA        34.0640   30.2110   11.5500 C.3   134  SER134      0.1889
     52  C         33.9910   31.6050   12.1640 C.2   134  SER134      0.2288
     53  O         33.4440   31.7850   13.2520 O.2   134  SER134     -0.2866
     54  CB        35.4830   29.6520   11.6930 C.3   134  SER134      0.2089
     55  OG        35.5690   28.3320   11.1810 O.3   134  SER134     -0.2183
     56  N         40.4820   37.0380    7.0400 N.3   176  ASP176     -0.1239
     57  CA        41.2940   35.8850    6.6780 C.3   176  ASP176      0.1674
     58  C         42.6680   36.3900    6.2640 C.2   176  ASP176      0.2266
     59  O         42.7880   37.4800    5.7050 O.2   176  ASP176     -0.2867
     60  CB        40.6640   35.1300    5.5070 C.3   176  ASP176      0.1410
     61  CG        39.3940   34.3990    5.8930 C.2   176  ASP176      0.3668
     62  OD1       38.9120   34.5880    7.0310 O.co2 176  ASP176     -0.2456
     63  OD2       38.8710   33.6400    5.0500 O.co2 176  ASP176     -0.2456
     64  N         44.4940   34.6240    4.1590 N.3   178  VAL178     -0.1245
     65  CA        44.4280   34.2720    2.7470 C.3   178  VAL178      0.1561
     66  C         42.9850   33.9400    2.3820 C.2   178  VAL178      0.2260
     67  O         42.3040   33.2260    3.1160 O.2   178  VAL178     -0.2867
     68  CB        45.3230   33.0630    2.4190 C.3   178  VAL178      0.0252
     69  CG1       45.1850   32.6830    0.9510 C.3   178  VAL178      0.0019
     70  CG2       46.7740   33.3660    2.7660 C.3   178  VAL178      0.0019
     71  N         40.3530   31.9590    0.6430 N.3   180  SER180     -0.1217
     72  CA        40.3160   30.5760    0.1670 C.3   180  SER180      0.1889
     73  C         39.9960   30.3830   -1.3180 C.2   180  SER180      0.2288
     74  O         40.5930   29.5330   -1.9770 O.2   180  SER180     -0.2866
     75  CB        39.3330   29.7650    1.0180 C.3   180  SER180      0.2089
     76  OG        39.6730   29.8380    2.3950 O.3   180  SER180     -0.2183
     77  N         42.8980   35.4700   10.5650 N.3   203  ASP203     -0.1239
     78  CA        42.7230   34.0240   10.5220 C.3   203  ASP203      0.1674
     79  C         43.6410   33.4380    9.4550 C.2   203  ASP203      0.2266
     80  O         43.3610   33.5370    8.2600 O.2   203  ASP203     -0.2867
     81  CB        41.2650   33.6680   10.2250 C.3   203  ASP203      0.1410
     82  CG        40.9740   32.1890   10.4030 C.2   203  ASP203      0.3668
     83  OD1       41.8960   31.3690   10.2070 O.co2 203  ASP203     -0.2456
     84  OD2       39.8220   31.8440   10.7400 O.co2 203  ASP203     -0.2456
     85  N         44.5950   30.2390    8.6390 N.3   205  SER205     -0.1202
     86  CA        44.4820   28.8080    8.3880 C.3   205  SER205      0.2020
     87  C         45.1490   28.4210    7.0670 C.2   205  SER205      0.2618
     88  O         45.6900   27.3230    6.9360 O.2   205  SER205     -0.2717
     89  CB        43.0120   28.3800    8.3840 C.3   205  SER205      0.2103
     90  OG        42.3870   28.6770    9.6210 O.3   205  SER205     -0.2182
     91  N         45.1100   29.3270    6.0930 N.am  206  HIS206     -0.1975
     92  CA        45.6940   29.0690    4.7780 C.3   206  HIS206      0.1656
     93  C         47.0280   29.7820    4.5710 C.2   206  HIS206      0.2291
     94  O         47.3600   30.1740    3.4510 O.2   206  HIS206     -0.2864
     95  CB        44.7220   29.4740    3.6650 C.3   206  HIS206      0.0771
     96  CG        43.6340   28.4750    3.4180 C.ar  206  HIS206      0.0820
     97  ND1       43.8870   27.1370    3.2100 N.ar  206  HIS206     -0.2267
     98  CD2       42.2910   28.6240    3.3320 C.ar  206  HIS206      0.1154
     99  CE1       42.7440   26.5010    3.0140 C.ar  206  HIS206      0.1986
    100  NE2       41.7620   27.3800    3.0820 N.ar  206  HIS206     -0.2212
    101  N         44.7450   26.8230   12.1630 N.3   234  THR234     -0.1218
    102  CA        44.3310   25.4300   12.2510 C.3   234  THR234      0.1862
    103  C         45.5250   24.4910   12.1140 C.2   234  THR234      0.2287
    104  O         46.6050   24.9010   11.6920 O.2   234  THR234     -0.2866
    105  CB        43.2960   25.0830   11.1610 C.3   234  THR234      0.1770
    106  OG1       42.7600   23.7750   11.4000 O.3   234  THR234     -0.2211
    107  CG2       43.9410   25.1230    9.7850 C.3   234  THR234      0.0375
    108  N         44.6920   21.4300   10.7330 N.3   236  GLY236     -0.1210
    109  CA        44.0870   20.5130    9.7870 C.3   236  GLY236      0.1956
    110  C         44.4600   20.8160    8.3510 C.2   236  GLY236      0.2611
    111  O         43.7850   20.3760    7.4210 O.2   236  GLY236     -0.2717
    112  N         45.5390   21.5680    8.1670 N.am  237  LYS237     -0.1979
    113  CA        45.9940   21.9310    6.8300 C.3   237  LYS237      0.1596
    114  C         47.4920   21.6900    6.6470 C.2   237  LYS237      0.2287
    115  O         47.9310   20.5460    6.5250 O.2   237  LYS237     -0.2864
    116  CB        45.6190   23.3830    6.5100 C.3   237  LYS237      0.0298
    117  CG        44.1380   23.5630    6.1850 C.3   237  LYS237      0.0038
    118  CD        43.6910   25.0190    6.2220 C.3   237  LYS237      0.0206
    119  CE        42.1780   25.1170    6.0530 C.3   237  LYS237      0.1093
    120  NZ        41.6730   26.5140    6.1500 N.3   237  LYS237     -0.1314
    121  N         43.9260   17.4910   13.1090 N.3   243  SER243     -0.1202
    122  CA        42.8760   18.3210   13.6880 C.3   243  SER243      0.2020
    123  C         43.4660   19.3190   14.6750 C.2   243  SER243      0.2619
    124  O         44.6640   19.2920   14.9560 O.2   243  SER243     -0.2717
    125  CB        41.8280   17.4550   14.3920 C.3   243  SER243      0.2103
    126  OG        42.3620   16.8590   15.5620 O.3   243  SER243     -0.2182
    127  N         42.6210   20.1970   15.2020 N.am  244  GLY244     -0.1956
    128  CA        43.0630   21.1640   16.1860 C.3   244  GLY244      0.1869
    129  C         43.0710   22.5910   15.6760 C.2   244  GLY244      0.2309
    130  O         43.2320   22.8390   14.4810 O.2   244  GLY244     -0.2863
@<TRIPOS>BOND
     1    74    73    2
     2    73    72    1
     3    72    71    1
     4    72    75    1
     5    69    68    1
     6    75    76    1
     7     1     2    1
     8     7     6    2
     9     2     3    1
    10     2     5    1
    11    66    65    1
    12    66    67    2
    13    68    65    1
    14    68    70    1
    15     6     5    1
    16     6     8   am
    17     3     4    2
    18    65    64    1
    19    99   100   ar
    20    99    97   ar
    21   100    98   ar
    22    97    96   ar
    23    98    96   ar
    24    96    95    1
    25    94    93    2
    26    95    92    1
    27    93    92    1
    28    92    91    1
    29    63    61   ar
    30    60    61    1
    31    60    57    1
    32    59    58    2
    33    61    62   ar
    34   119   120    1
    35   119   118    1
    36    91    87   am
    37   117   118    1
    38   117   116    1
    39    58    57    1
    40   116   113    1
    41   115   114    2
    42    40    41    1
    43    47    49   ar
    44    47    45   ar
    45   114   113    1
    46    57    56    1
    47    41    44    1
    48    41    42    1
    49   113   112    1
    50    88    87    2
    51    87    86    1
    52    49    48   ar
    53    44    45    1
    54   111   110    2
    55    45    46   ar
    56    42    43    2
    57   112   110   am
    58    80    79    2
    59    48    46   ar
    60   110   109    1
    61    89    86    1
    62    89    90    1
    63    86    85    1
    64    79    78    1
    65   107   105    1
    66   109   108    1
    67    50    51    1
    68    83    82   ar
    69    81    82    1
    70    81    78    1
    71    82    84   ar
    72    78    77    1
    73    30    31   ar
    74    30    28   ar
    75   105   106    1
    76   105   102    1
    77    55    54    1
    78    31    29   ar
    79    28    26   ar
    80    51    54    1
    81    51    52    1
    82   104   103    2
    83   103   102    1
    84   101   102    1
    85    52    53    2
    86    29    27   ar
    87    26    27   ar
    88    26    25    1
    89    20    19    1
    90    19    16    1
    91   121   122    1
    92    39    37   am
    93    25    22    1
    94    38    37    2
    95   122   125    1
    96   122   123    1
    97    37    36    1
    98    22    21    1
    99    22    23    1
   100    21    17   am
   101    17    18    2
   102    17    16    1
   103    16    15    1
   104   125   126    1
   105   130   129    2
   106    15    11   am
   107    36    33    1
   108   123   124    2
   109   123   127   am
   110    13    14    1
   111    13    10    1
   112   127   128    1
   113    23    24    2
   114    11    10    1
   115    11    12    2
   116   129   128    1
   117    10     9    1
   118    33    32    1
   119    33    34    1
   120    34    35    2
