@<TRIPOS>MOLECULE
tmp/3tr0A00.pdb
 154 141 0 0 0
SMALL
GASTEIGER

@<TRIPOS>ATOM
      1  N        -13.8350   21.7830  -22.1670 N.3    10  ALA10      -0.1245
      2  CA       -14.9830   21.0730  -22.7080 C.3    10  ALA10       0.1562
      3  C        -16.1710   21.2070  -21.7650 C.2    10  ALA10       0.2260
      4  O        -15.9960   21.4340  -20.5680 O.2    10  ALA10      -0.2867
      5  CB       -14.6460   19.6050  -22.9260 C.3    10  ALA10       0.0290
      6  N        -19.1390   19.9170  -19.3670 N.3    12  SER12      -0.1217
      7  CA       -19.2350   18.7450  -18.5080 C.3    12  SER12       0.1889
      8  C        -19.9550   17.6290  -19.2570 C.2    12  SER12       0.2288
      9  O        -20.9410   17.8740  -19.9520 O.2    12  SER12      -0.2866
     10  CB       -19.9690   19.0830  -17.2040 C.3    12  SER12       0.2089
     11  OG       -19.2420   20.0350  -16.4450 O.3    12  SER12      -0.2183
     12  N        -13.8430   14.5850  -21.2550 N.3    16  LYS16      -0.1245
     13  CA       -12.5360   15.2250  -21.2640 C.3    16  LYS16       0.1561
     14  C        -11.5590   14.5970  -20.2700 C.2    16  LYS16       0.2260
     15  O        -10.4230   14.3010  -20.6180 O.2    16  LYS16      -0.2867
     16  CB       -12.6850   16.7150  -20.9730 C.3    16  LYS16       0.0271
     17  CG       -11.3720   17.4390  -20.7790 C.3    16  LYS16       0.0035
     18  CD       -11.5830   18.6620  -19.9160 C.3    16  LYS16       0.0206
     19  CE       -12.1310   18.2590  -18.5590 C.3    16  LYS16       0.1093
     20  NZ       -12.6260   19.4260  -17.7840 N.3    16  LYS16      -0.1314
     21  N         -5.8380   20.3440   -9.9720 N.3    35  SER35      -0.1217
     22  CA        -6.4010   21.6030   -9.4960 C.3    35  SER35       0.1889
     23  C         -6.8400   21.5580   -8.0400 C.2    35  SER35       0.2288
     24  O         -7.0900   20.4890   -7.4820 O.2    35  SER35      -0.2866
     25  CB        -7.6070   22.0010  -10.3560 C.3    35  SER35       0.2089
     26  OG        -7.2200   22.2000  -11.7110 O.3    35  SER35      -0.2183
     27  N        -15.3530   22.5840   -4.6590 N.3    39  ARG39      -0.1245
     28  CA       -16.4350   21.6780   -5.0130 C.3    39  ARG39       0.1563
     29  C        -16.3770   20.4710   -4.0830 C.2    39  ARG39       0.2260
     30  O        -15.3230   19.8640   -3.9120 O.2    39  ARG39      -0.2867
     31  CB       -16.3160   21.2540   -6.4820 C.3    39  ARG39       0.0307
     32  CG       -17.5610   20.5750   -7.0390 C.3    39  ARG39       0.0489
     33  CD       -17.4380   19.0670   -6.9730 C.3    39  ARG39       0.2205
     34  NE       -16.6160   18.5480   -8.0580 N.pl3  39  ARG39      -0.0865
     35  CZ       -15.9570   17.3960   -8.0110 C.cat  39  ARG39       0.5346
     36  NH1      -16.0090   16.6470   -6.9190 N.pl3  39  ARG39       0.1354
     37  NH2      -15.2430   16.9980   -9.0540 N.pl3  39  ARG39       0.1354
     38  N         -8.5970   15.9550   -7.4900 N.3    51  TYR51      -0.1241
     39  CA        -8.3580   17.3410   -7.1200 C.3    51  TYR51       0.1605
     40  C         -7.6560   17.3690   -5.7820 C.2    51  TYR51       0.2264
     41  O         -7.5690   16.3520   -5.0920 O.2    51  TYR51      -0.2867
     42  CB        -9.6770   18.0960   -6.9440 C.3    51  TYR51       0.0534
     43  CG       -10.4220   18.4380   -8.2160 C.ar   51  TYR51      -0.0201
     44  CD1      -10.1090   19.5810   -8.9420 C.ar   51  TYR51      -0.0009
     45  CD2      -11.4620   17.6410   -8.6650 C.ar   51  TYR51      -0.0009
     46  CE1      -10.8020   19.9060  -10.1000 C.ar   51  TYR51       0.0417
     47  CE2      -12.1590   17.9560   -9.8160 C.ar   51  TYR51       0.0417
     48  CZ       -11.8240   19.0880  -10.5300 C.ar   51  TYR51       0.1957
     49  OH       -12.5180   19.4000  -11.6750 O.3    51  TYR51      -0.2866
     50  N         -4.1140   30.7310  -12.1120 N.3    69  GLU69      -0.1245
     51  CA        -5.3900   30.8890  -12.7690 C.3    69  GLU69       0.1567
     52  C         -6.4630   30.4260  -11.7920 C.2    69  GLU69       0.2260
     53  O         -6.2690   29.4360  -11.0860 O.2    69  GLU69      -0.2867
     54  CB        -5.3850   30.0090  -14.0230 C.3    69  GLU69       0.0388
     55  CG        -6.7090   29.7970  -14.6900 C.3    69  GLU69       0.1160
     56  CD        -7.6120   28.8460  -13.9340 C.2    69  GLU69       0.3649
     57  OE1       -7.1670   27.7390  -13.5350 O.co2  69  GLU69      -0.2457
     58  OE2       -8.7790   29.2220  -13.7440 O.co2  69  GLU69      -0.2457
     59  N        -11.1100   30.4870  -11.1830 N.3    71  ALA71      -0.1245
     60  CA       -12.4220   30.8730  -11.6790 C.3    71  ALA71       0.1562
     61  C        -13.5200   30.3080  -10.8010 C.2    71  ALA71       0.2260
     62  O        -13.2920   29.3910  -10.0090 O.2    71  ALA71      -0.2867
     63  CB       -12.6090   30.4020  -13.1190 C.3    71  ALA71       0.0290
     64  N        -17.1890   28.4430  -10.9420 N.3    73  ILE73      -0.1245
     65  CA       -18.0140   27.6330  -11.8290 C.3    73  ILE73       0.1561
     66  C        -19.1100   26.9350  -11.0340 C.2    73  ILE73       0.2260
     67  O        -18.8320   26.2020  -10.0830 O.2    73  ILE73      -0.2867
     68  CB       -17.1710   26.5820  -12.5620 C.3    73  ILE73       0.0252
     69  CG1      -16.0330   27.2630  -13.3250 C.3    73  ILE73       0.0019
     70  CG2      -18.0390   25.7700  -13.5120 C.3    73  ILE73       0.0019
     71  CD1      -14.9310   26.3290  -13.7330 C.3    73  ILE73       0.0001
     72  N        -12.3900   26.8520   -8.4650 N.3    78  TYR78      -0.1227
     73  CA       -11.3550   25.9870   -9.0130 C.3    78  TYR78       0.1736
     74  C        -10.1400   26.8340   -9.3900 C.2    78  TYR78       0.2596
     75  O        -10.2810   27.9540   -9.8840 O.2    78  TYR78      -0.2718
     76  CB       -11.8560   25.2960  -10.2840 C.3    78  TYR78       0.0548
     77  CG       -13.1290   24.4940  -10.1350 C.ar   78  TYR78      -0.0200
     78  CD1      -13.0980   23.1060  -10.1400 C.ar   78  TYR78      -0.0009
     79  CD2      -14.3620   25.1210  -10.0220 C.ar   78  TYR78      -0.0009
     80  CE1      -14.2560   22.3650  -10.0210 C.ar   78  TYR78       0.0417
     81  CE2      -15.5260   24.3900   -9.8980 C.ar   78  TYR78       0.0417
     82  CZ       -15.4670   23.0120   -9.9000 C.ar   78  TYR78       0.1957
     83  OH       -16.6220   22.2750   -9.7810 O.3    78  TYR78      -0.2866
     84  N         -8.9440   26.2960   -9.1870 N.am   79  GLY79      -0.1942
     85  CA        -7.7450   27.0270   -9.5470 C.3    79  GLY79       0.2014
     86  C         -6.5390   26.1550   -9.8220 C.2    79  GLY79       0.2639
     87  O         -6.4650   25.0150   -9.3650 O.2    79  GLY79      -0.2714
     88  N         -5.5920   26.7050  -10.5760 N.am   80  THR80      -0.1950
     89  CA        -4.3470   26.0210  -10.8910 C.3    80  THR80       0.1897
     90  C         -3.2230   26.5770  -10.0290 C.2    80  THR80       0.2313
     91  O         -2.8370   27.7360  -10.1750 O.2    80  THR80      -0.2863
     92  CB        -3.9610   26.2120  -12.3750 C.3    80  THR80       0.1794
     93  OG1       -4.9670   25.6290  -13.2110 O.3    80  THR80      -0.2208
     94  CG2       -2.6250   25.5510  -12.6710 C.3    80  THR80       0.0378
     95  N         -6.5930   21.1730  -17.4250 N.3    98  GLU98      -0.1231
     96  CA        -8.0040   20.9050  -17.6650 C.3    98  GLU98       0.1699
     97  C         -8.7950   21.9850  -16.9580 C.2    98  GLU98       0.2592
     98  O         -9.1360   21.8390  -15.7850 O.2    98  GLU98      -0.2718
     99  CB        -8.3960   19.5430  -17.1030 C.3    98  GLU98       0.0402
    100  CG        -7.6600   18.3700  -17.7050 C.3    98  GLU98       0.1161
    101  CD        -8.0540   17.0570  -17.0530 C.2    98  GLU98       0.3649
    102  OE1       -7.7360   16.8660  -15.8600 O.co2  98  GLU98      -0.2457
    103  OE2       -8.6910   16.2230  -17.7280 O.co2  98  GLU98      -0.2457
    104  N         -9.0580   23.0800  -17.6610 N.am   99  ILE99      -0.1966
    105  CA        -9.6820   24.2470  -17.0540 C.3    99  ILE99       0.1727
    106  C        -10.7890   24.7850  -17.9480 C.2    99  ILE99       0.2616
    107  O        -10.8570   24.4370  -19.1230 O.2    99  ILE99      -0.2715
    108  CB        -8.6500   25.3560  -16.7830 C.3    99  ILE99       0.0290
    109  CG1       -7.9470   25.7640  -18.0780 C.3    99  ILE99       0.0022
    110  CG2       -7.6180   24.8880  -15.7570 C.3    99  ILE99       0.0023
    111  CD1       -6.8960   26.8440  -17.8930 C.3    99  ILE99       0.0001
    112  N        -11.6610   25.6260  -17.3940 N.am  100  ASP100     -0.1971
    113  CA       -12.7970   26.1330  -18.1580 C.3   100  ASP100      0.1709
    114  C        -12.3850   27.3100  -19.0270 C.2   100  ASP100      0.2293
    115  O        -11.2090   27.6770  -19.0680 O.2   100  ASP100     -0.2864
    116  CB       -13.9710   26.5190  -17.2460 C.3   100  ASP100      0.1436
    117  CG       -13.8200   27.9010  -16.6390 C.2   100  ASP100      0.3671
    118  OD1      -12.6840   28.2990  -16.3350 O.co2 100  ASP100     -0.2456
    119  OD2      -14.8470   28.5940  -16.4620 O.co2 100  ASP100     -0.2456
    120  N        -10.6530   30.2640  -17.1870 N.3   103  GLY103     -0.1225
    121  CA        -9.2660   29.9740  -16.8810 C.3   103  GLY103      0.1811
    122  C         -8.3960   30.0560  -18.1220 C.2   103  GLY103      0.2280
    123  O         -7.2640   30.5450  -18.0710 O.2   103  GLY103     -0.2866
    124  N        -23.5150    9.1490  -14.3580 N.3   134  ARG134     -0.1245
    125  CA       -22.6740    9.3960  -13.1970 C.3   134  ARG134      0.1563
    126  C        -23.5550    9.4610  -11.9610 C.2   134  ARG134      0.2260
    127  O        -24.0290   10.5280  -11.5730 O.2   134  ARG134     -0.2867
    128  CB       -21.8660   10.6810  -13.3740 C.3   134  ARG134      0.0307
    129  CG       -20.8840   10.5890  -14.5270 C.3   134  ARG134      0.0489
    130  CD       -20.0680   11.8530  -14.7350 C.3   134  ARG134      0.2205
    131  NE       -19.1350   11.6610  -15.8410 N.pl3 134  ARG134     -0.0865
    132  CZ       -18.3790   12.6140  -16.3770 C.cat 134  ARG134      0.5346
    133  NH1      -18.4320   13.8580  -15.9180 N.pl3 134  ARG134      0.1354
    134  NH2      -17.5690   12.3170  -17.3810 N.pl3 134  ARG134      0.1354
    135  N        -26.7130   22.0590  -15.4290 N.3   145  ARG145     -0.1245
    136  CA       -25.3920   21.7430  -15.9600 C.3   145  ARG145      0.1563
    137  C        -25.3820   21.7740  -17.4840 C.2   145  ARG145      0.2260
    138  O        -24.3980   22.1880  -18.0960 O.2   145  ARG145     -0.2867
    139  CB       -24.9170   20.3800  -15.4580 C.3   145  ARG145      0.0307
    140  CG       -24.8300   20.2750  -13.9450 C.3   145  ARG145      0.0489
    141  CD       -24.2530   18.9360  -13.5200 C.3   145  ARG145      0.2205
    142  NE       -22.8560   18.7930  -13.9190 N.pl3 145  ARG145     -0.0865
    143  CZ       -22.1480   17.6770  -13.7740 C.cat 145  ARG145      0.5346
    144  NH1      -22.7070   16.5990  -13.2410 N.pl3 145  ARG145      0.1354
    145  NH2      -20.8810   17.6380  -14.1640 N.pl3 145  ARG145      0.1354
    146  N        -20.6280   27.1570  -22.1770 N.3   152  GLU152     -0.1245
    147  CA       -19.2240   26.7960  -22.2960 C.3   152  GLU152      0.1567
    148  C        -18.8880   26.6070  -23.7710 C.2   152  GLU152      0.2260
    149  O        -17.8570   27.0730  -24.2480 O.2   152  GLU152     -0.2867
    150  CB       -18.9230   25.5100  -21.5210 C.3   152  GLU152      0.0388
    151  CG       -17.4510   25.0880  -21.5380 C.3   152  GLU152      0.1160
    152  CD       -16.6270   25.7770  -20.4610 C.2   152  GLU152      0.3649
    153  OE1      -17.2190   26.5050  -19.6370 O.co2 152  GLU152     -0.2457
    154  OE2      -15.3900   25.5880  -20.4330 O.co2 152  GLU152     -0.2457
@<TRIPOS>BOND
     1   149   148    2
     2   148   147    1
     3     5     2    1
     4     2     1    1
     5     2     3    1
     6   147   146    1
     7   147   150    1
     8     3     4    2
     9   151   150    1
    10   151   152    1
    11    13    12    1
    12    13    16    1
    13    13    14    1
    14    16    17    1
    15    17    18    1
    16    15    14    2
    17   152   154   ar
    18   152   153   ar
    19     9     8    2
    20    18    19    1
    21     6     7    1
    22     8     7    1
    23   107   106    2
    24   115   114    2
    25   114   113    1
    26    19    20    1
    27     7    10    1
    28   113   112    1
    29   113   116    1
    30   122   123    2
    31   122   121    1
    32   138   137    2
    33   109   111    1
    34   109   108    1
    35   106   112   am
    36   106   105    1
    37   103   101   ar
    38   100    99    1
    39   100   101    1
    40    96    95    1
    41    96    99    1
    42    96    97    1
    43   104   105    1
    44   104    97   am
    45   137   136    1
    46   134   132    1
    47   116   117    1
    48    10    11    1
    49   120   121    1
    50   105   108    1
    51   101   102   ar
    52    97    98    2
    53   108   110    1
    54   117   119   ar
    55   117   118   ar
    56   132   133    1
    57   132   131    2
    58   136   139    1
    59   136   135    1
    60   131   130    1
    61   139   140    1
    62   130   129    1
    63    55    54    1
    64    55    56    1
    65   129   128    1
    66   124   125    1
    67   145   143    1
    68    54    51    1
    69   140   141    1
    70    56    58   ar
    71    56    57   ar
    72   142   143    2
    73   142   141    1
    74   143   144    1
    75    71    69    1
    76    70    68    1
    77   128   125    1
    78    69    68    1
    79    93    92    1
    80   125   126    1
    81    63    60    1
    82    51    50    1
    83    51    52    1
    84    94    92    1
    85    68    65    1
    86    92    89    1
    87   126   127    2
    88    65    66    1
    89    65    64    1
    90    52    53    2
    91    26    25    1
    92    60    59    1
    93    60    61    1
    94    49    48    1
    95    66    67    2
    96    89    88    1
    97    89    90    1
    98    61    62    2
    99    88    86   am
   100    48    46   ar
   101    48    47   ar
   102    25    22    1
   103    76    77    1
   104    76    73    1
   105    91    90    2
   106    78    77   ar
   107    78    80   ar
   108    77    79   ar
   109    46    44   ar
   110    79    81   ar
   111    80    82   ar
   112    21    22    1
   113    82    81   ar
   114    82    83    1
   115    75    74    2
   116    86    85    1
   117    86    87    2
   118    47    45   ar
   119    85    84    1
   120    22    23    1
   121    74    84   am
   122    74    73    1
   123    37    35    1
   124    73    72    1
   125    44    43   ar
   126    45    43   ar
   127    43    42    1
   128    34    35    2
   129    34    33    1
   130    23    24    2
   131    35    36    1
   132    38    39    1
   133    39    42    1
   134    39    40    1
   135    32    33    1
   136    32    31    1
   137    31    28    1
   138    40    41    2
   139    28    27    1
   140    28    29    1
   141    29    30    2
