@<TRIPOS>MOLECULE
tmp/3tr5A00.pdb
 128 126 0 0 0
SMALL
GASTEIGER

@<TRIPOS>ATOM
      1  N         -5.6850  -43.2690  -70.0560 N.3    14  SER14      -0.1202
      2  CA        -5.4110  -44.6800  -69.8730 C.3    14  SER14       0.2020
      3  C         -5.6330  -45.1180  -68.4400 C.2    14  SER14       0.2619
      4  O         -5.6400  -44.2980  -67.5160 O.2    14  SER14      -0.2717
      5  CB        -3.9580  -44.9620  -70.2500 C.3    14  SER14       0.2103
      6  OG        -3.0760  -44.1740  -69.4600 O.3    14  SER14      -0.2182
      7  N         -5.8110  -46.4230  -68.2700 N.am   15  HIS15      -0.1961
      8  CA        -5.8480  -47.0390  -66.9560 C.3    15  HIS15       0.1772
      9  C         -4.4110  -47.3220  -66.5250 C.2    15  HIS15       0.2462
     10  O         -3.5770  -47.6880  -67.3510 O.2    15  HIS15      -0.2730
     11  CB        -6.6590  -48.3410  -67.0100 C.3    15  HIS15       0.0785
     12  CG        -7.0680  -48.8550  -65.6660 C.ar   15  HIS15       0.0821
     13  ND1       -8.1480  -48.3480  -64.9720 N.ar   15  HIS15      -0.2267
     14  CD2       -6.5440  -49.8310  -64.8880 C.ar   15  HIS15       0.1154
     15  CE1       -8.2660  -48.9870  -63.8210 C.ar   15  HIS15       0.1986
     16  NE2       -7.3070  -49.8950  -63.7480 N.ar   15  HIS15      -0.2212
     17  N         -4.1130  -47.1550  -65.2240 N.am   16  PRO16      -0.2716
     18  CA        -2.7770  -47.4210  -64.6770 C.3    16  PRO16       0.1536
     19  C         -2.2470  -48.7770  -65.1430 C.2    16  PRO16       0.2599
     20  O         -3.0380  -49.7150  -65.2560 O.2    16  PRO16      -0.2715
     21  CB        -3.0210  -47.4490  -63.1650 C.3    16  PRO16       0.0310
     22  CG        -4.2290  -46.5900  -62.9650 C.3    16  PRO16       0.0237
     23  CD        -5.0800  -46.7670  -64.1850 C.3    16  PRO16       0.0939
     24  N         -0.9420  -48.8620  -65.4100 N.am   17  ASP17      -0.1958
     25  CA        -0.2900  -50.0890  -65.8750 C.3    17  ASP17       0.1840
     26  C         -0.4820  -50.3880  -67.3730 C.2    17  ASP17       0.2622
     27  O          0.0450  -51.3790  -67.8830 O.2    17  ASP17      -0.2715
     28  CB        -0.7380  -51.3000  -65.0410 C.3    17  ASP17       0.1450
     29  CG        -0.4600  -51.1270  -63.5510 C.2    17  ASP17       0.3671
     30  OD1       -1.3100  -51.5410  -62.7330 O.co2  17  ASP17      -0.2456
     31  OD2        0.6110  -50.5880  -63.1970 O.co2  17  ASP17      -0.2456
     32  N         -1.2320  -49.5440  -68.0740 N.am   18  ALA18      -0.1963
     33  CA        -1.5040  -49.7680  -69.5020 C.3    18  ALA18       0.1728
     34  C         -0.2840  -49.4930  -70.3900 C.2    18  ALA18       0.2617
     35  O         -0.1230  -50.0960  -71.4580 O.2    18  ALA18      -0.2715
     36  CB        -2.7020  -48.9390  -69.9570 C.3    18  ALA18       0.0334
     37  N          0.5660  -48.5700  -69.9490 N.am   19  GLY19      -0.1940
     38  CA         1.7910  -48.2620  -70.6670 C.3    19  GLY19       0.2014
     39  C          2.0100  -46.7910  -70.9900 C.2    19  GLY19       0.2639
     40  O          2.7960  -46.4620  -71.8800 O.2    19  GLY19      -0.2714
     41  N          1.3300  -45.9010  -70.2710 N.am   20  LYS20      -0.1963
     42  CA         1.4740  -44.4640  -70.5340 C.3    20  LYS20       0.1728
     43  C          2.8990  -43.9480  -70.3020 C.2    20  LYS20       0.2617
     44  O          3.4530  -43.2590  -71.1550 O.2    20  LYS20      -0.2715
     45  CB         0.4480  -43.6350  -69.7500 C.3    20  LYS20       0.0311
     46  CG         0.8130  -42.1580  -69.6190 C.3    20  LYS20       0.0038
     47  CD        -0.3790  -41.3270  -69.2040 C.3    20  LYS20       0.0206
     48  CE        -0.1270  -40.5950  -67.9000 C.3    20  LYS20       0.1093
     49  NZ        -0.1280  -41.5300  -66.7560 N.3    20  LYS20      -0.1314
     50  N          3.4980  -44.2920  -69.1630 N.am   21  THR21      -0.1937
     51  CA         4.8660  -43.8710  -68.8680 C.3    21  THR21       0.2028
     52  C          5.8510  -44.3890  -69.9220 C.2    21  THR21       0.2642
     53  O          6.7640  -43.6740  -70.3520 O.2    21  THR21      -0.2714
     54  CB         5.3340  -44.3510  -67.4710 C.3    21  THR21       0.1808
     55  OG1        4.4280  -43.8790  -66.4660 O.3    21  THR21      -0.2208
     56  CG2        6.7290  -43.8300  -67.1720 C.3    21  THR21       0.0379
     57  N          5.6670  -45.6380  -70.3290 N.am   22  THR22      -0.1950
     58  CA         6.5160  -46.2470  -71.3510 C.3    22  THR22       0.1897
     59  C          6.3450  -45.5490  -72.7030 C.2    22  THR22       0.2313
     60  O          7.3240  -45.2280  -73.3710 O.2    22  THR22      -0.2863
     61  CB         6.2130  -47.7540  -71.5020 C.3    22  THR22       0.1794
     62  OG1        6.3210  -48.3930  -70.2250 O.3    22  THR22      -0.2208
     63  CG2        7.1860  -48.4080  -72.4700 C.3    22  THR22       0.0378
     64  N         -1.5370  -42.8040  -60.7100 N.3    80  HIS80      -0.1241
     65  CA        -1.1970  -43.6240  -59.5510 C.3    80  HIS80       0.1621
     66  C         -1.3950  -42.8730  -58.2340 C.2    80  HIS80       0.2264
     67  O         -2.4630  -42.3160  -57.9960 O.2    80  HIS80      -0.2867
     68  CB         0.2250  -44.1730  -59.6790 C.3    80  HIS80       0.0745
     69  CG         0.4620  -44.9260  -60.9510 C.ar   80  HIS80       0.0817
     70  ND1        0.1660  -46.2650  -61.0920 N.ar   80  HIS80      -0.2268
     71  CD2        0.9560  -44.5230  -62.1480 C.ar   80  HIS80       0.1154
     72  CE1        0.4760  -46.6570  -62.3140 C.ar   80  HIS80       0.1986
     73  NE2        0.9560  -45.6180  -62.9750 N.ar   80  HIS80      -0.2212
     74  N         -1.6250  -51.3800  -76.7110 N.3   127  ASN127     -0.1225
     75  CA        -0.2650  -51.6870  -76.2790 C.3   127  ASN127      0.1785
     76  C         -0.0520  -53.1490  -75.8980 C.2   127  ASN127      0.2597
     77  O         -1.0080  -53.8890  -75.6950 O.2   127  ASN127     -0.2718
     78  CB         0.1100  -50.7890  -75.1020 C.3   127  ASN127      0.1169
     79  CG         1.5970  -50.7510  -74.8500 C.2   127  ASN127      0.2627
     80  OD1        2.4010  -50.9830  -75.7540 O.2   127  ASN127     -0.2716
     81  ND2        1.9760  -50.4520  -73.6150 N.am  127  ASN127     -0.0877
     82  N          1.2150  -53.5480  -75.8180 N.am  128  LYS128     -0.1980
     83  CA         1.6050  -54.8510  -75.2860 C.3   128  LYS128      0.1596
     84  C          1.3000  -56.0120  -76.2150 C.2   128  LYS128      0.2287
     85  O          0.9390  -57.0930  -75.7620 O.2   128  LYS128     -0.2864
     86  CB         0.9550  -55.0890  -73.9230 C.3   128  LYS128      0.0298
     87  CG         1.3640  -54.0710  -72.8800 C.3   128  LYS128      0.0038
     88  CD         0.8340  -54.4400  -71.5110 C.3   128  LYS128      0.0206
     89  CE         1.1790  -53.3680  -70.4970 C.3   128  LYS128      0.1093
     90  NZ         0.7370  -53.7680  -69.1360 N.3   128  LYS128     -0.1314
     91  N          3.3350  -57.7010  -77.6960 N.3   129  ASP129     -0.1225
     92  CA         4.4030  -58.6880  -77.5560 C.3   129  ASP129      0.1805
     93  C          4.0100  -59.8070  -76.5910 C.2   129  ASP129      0.2597
     94  O          4.7060  -60.8170  -76.4670 O.2   129  ASP129     -0.2718
     95  CB         5.6840  -58.0090  -77.0820 C.3   129  ASP129      0.1424
     96  CG         5.4910  -57.2480  -75.7880 C.2   129  ASP129      0.3668
     97  OD1        4.6800  -56.2970  -75.7740 O.co2 129  ASP129     -0.2456
     98  OD2        6.1520  -57.5950  -74.7870 O.co2 129  ASP129     -0.2456
     99  N          2.8870  -59.6160  -75.9080 N.am  130  ARG130     -0.1979
    100  CA         2.3500  -60.6290  -75.0160 C.3   130  ARG130      0.1597
    101  C          0.9890  -61.0470  -75.5480 C.2   130  ARG130      0.2287
    102  O          0.3950  -60.3360  -76.3620 O.2   130  ARG130     -0.2864
    103  CB         2.2160  -60.0800  -73.5950 C.3   130  ARG130      0.0334
    104  CG         3.5150  -59.5510  -73.0150 C.3   130  ARG130      0.0492
    105  CD         4.5170  -60.6690  -72.8200 C.3   130  ARG130      0.2205
    106  NE         4.0560  -61.6240  -71.8170 N.pl3 130  ARG130     -0.0865
    107  CZ         4.7030  -62.7370  -71.4890 C.cat 130  ARG130      0.5346
    108  NH1        5.8450  -63.0430  -72.0900 N.pl3 130  ARG130      0.1354
    109  NH2        4.2070  -63.5440  -70.5610 N.pl3 130  ARG130      0.1354
    110  N          4.0070  -52.2920  -79.4120 N.3   240  SER240     -0.1202
    111  CA         4.6470  -52.6630  -78.1580 C.3   240  SER240      0.2020
    112  C          5.5300  -51.5020  -77.7240 C.2   240  SER240      0.2619
    113  O          6.6580  -51.3590  -78.1990 O.2   240  SER240     -0.2717
    114  CB         5.4990  -53.9200  -78.3450 C.3   240  SER240      0.2103
    115  OG         6.0660  -54.3460  -77.1200 O.3   240  SER240     -0.2182
    116  N          5.0060  -50.6650  -76.8360 N.am  241  ALA241     -0.1965
    117  CA         5.7200  -49.4730  -76.4050 C.3   241  ALA241      0.1728
    118  C          7.0880  -49.8100  -75.8130 C.2   241  ALA241      0.2616
    119  O          8.0810  -49.1580  -76.1280 O.2   241  ALA241     -0.2715
    120  CB         4.8830  -48.6860  -75.4080 C.3   241  ALA241      0.0334
    121  N          7.1430  -50.8320  -74.9640 N.am  242  ILE242     -0.1977
    122  CA         8.3940  -51.1970  -74.2970 C.3   242  ILE242      0.1596
    123  C          9.5030  -51.5290  -75.2980 C.2   242  ILE242      0.2287
    124  O         10.6840  -51.3500  -75.0080 O.2   242  ILE242     -0.2864
    125  CB         8.2110  -52.3970  -73.3350 C.3   242  ILE242      0.0276
    126  CG1        9.4070  -52.5170  -72.3850 C.3   242  ILE242      0.0022
    127  CG2        8.0150  -53.6970  -74.1170 C.3   242  ILE242      0.0022
    128  CD1        9.3540  -51.5820  -71.2100 C.3   242  ILE242      0.0001
@<TRIPOS>BOND
     1   110   111    1
     2   114   111    1
     3   114   115    1
     4   113   112    2
     5   111   112    1
     6   112   116   am
     7    91    92    1
     8    92    95    1
     9    92    93    1
    10    95    96    1
    11   116   117    1
    12    74    75    1
    13    93    94    2
    14    93    99   am
    15   117   118    1
    16   117   120    1
    17   102   101    2
    18    75    76    1
    19    75    78    1
    20    84    85    2
    21    84    83    1
    22   119   118    2
    23    99   100    1
    24    76    82   am
    25    76    77    2
    26    82    83    1
    27   118   121   am
    28    96    97   ar
    29    96    98   ar
    30    80    79    2
    31   101   100    1
    32   123   124    2
    33   123   122    1
    34    83    86    1
    35    78    79    1
    36   100   103    1
    37   121   122    1
    38    79    81   am
    39   122   125    1
    40   127   125    1
    41    86    87    1
    42   103   104    1
    43    60    59    2
    44   125   126    1
    45   104   105    1
    46    87    88    1
    47   105   106    1
    48    59    58    1
    49    63    61    1
    50   126   128    1
    51   108   107    1
    52    40    39    2
    53   106   107    2
    54    88    89    1
    55    61    58    1
    56    61    62    1
    57   107   109    1
    58    35    34    2
    59    58    57    1
    60    44    43    2
    61    39    38    1
    62    39    41   am
    63    38    37    1
    64    42    43    1
    65    42    41    1
    66    42    45    1
    67    89    90    1
    68    34    37   am
    69    34    33    1
    70    53    52    2
    71    57    52   am
    72    43    50   am
    73     5     2    1
    74     5     6    1
    75     1     2    1
    76    36    33    1
    77    52    51    1
    78     2     3    1
    79    45    46    1
    80    46    47    1
    81    33    32    1
    82    47    48    1
    83    50    51    1
    84    51    54    1
    85     3     7   am
    86     3     4    2
    87     7     8    1
    88    32    26   am
    89    48    49    1
    90    27    26    2
    91    54    56    1
    92    54    55    1
    93    26    25    1
    94    10     9    2
    95    11     8    1
    96    11    12    1
    97     8     9    1
    98     9    17   am
    99    25    24    1
   100    25    28    1
   101    12    13   ar
   102    12    14   ar
   103    24    19   am
   104    20    19    2
   105    17    18    1
   106    17    23    1
   107    19    18    1
   108    28    29    1
   109    13    15   ar
   110    14    16   ar
   111    18    21    1
   112    23    22    1
   113    15    16   ar
   114    29    31   ar
   115    29    30   ar
   116    21    22    1
   117    73    72   ar
   118    73    71   ar
   119    72    70   ar
   120    71    69   ar
   121    70    69   ar
   122    69    68    1
   123    64    65    1
   124    68    65    1
   125    65    66    1
   126    66    67    2
