@<TRIPOS>MOLECULE
tmp/3tr6A00.pdb
 187 182 0 0 0
SMALL
GASTEIGER

@<TRIPOS>ATOM
      1  N          0.8670   35.7740   -2.2940 N.3    42  GLN42      -0.1231
      2  CA         1.5330   34.7760   -3.1200 C.3    42  GLN42       0.1698
      3  C          2.0730   35.4030   -4.4030 C.2    42  GLN42       0.2592
      4  O          1.4760   36.3320   -4.9580 O.2    42  GLN42      -0.2718
      5  CB         0.5780   33.6310   -3.4520 C.3    42  GLN42       0.0381
      6  CG         1.2470   32.4230   -4.0840 C.3    42  GLN42       0.0905
      7  CD         0.2700   31.2910   -4.3420 C.2    42  GLN42       0.2608
      8  OE1       -0.9120   31.5250   -4.5900 O.2    42  GLN42      -0.2717
      9  NE2        0.7570   30.0580   -4.2690 N.am   42  GLN42      -0.0878
     10  N          3.2070   34.8920   -4.8700 N.am   43  THR43      -0.1953
     11  CA         3.8400   35.4170   -6.0700 C.3    43  THR43       0.1897
     12  C          2.9650   35.1760   -7.2930 C.2    43  THR43       0.2313
     13  O          2.4200   34.0840   -7.4730 O.2    43  THR43      -0.2863
     14  CB         5.2330   34.7860   -6.2890 C.3    43  THR43       0.1794
     15  OG1        6.0760   35.0980   -5.1750 O.3    43  THR43      -0.2208
     16  CG2        5.8740   35.3170   -7.5630 C.3    43  THR43       0.0378
     17  N         11.2560   34.8250    1.9260 N.3    66  GLY66      -0.1210
     18  CA         9.8100   34.8640    2.0440 C.3    66  GLY66       0.1956
     19  C          9.1690   33.6600    1.3800 C.2    66  GLY66       0.2613
     20  O          8.7140   33.7390    0.2400 O.2    66  GLY66      -0.2717
     21  N          9.1240   32.5450    2.1020 N.am   67  THR67      -0.1938
     22  CA         8.6680   31.2790    1.5410 C.3    67  THR67       0.2028
     23  C          7.1610   31.2250    1.3200 C.2    67  THR67       0.2642
     24  O          6.6960   30.7810    0.2710 O.2    67  THR67      -0.2714
     25  CB         9.0380   30.0950    2.4550 C.3    67  THR67       0.1808
     26  OG1       10.3770   30.2530    2.9360 O.3    67  THR67      -0.2208
     27  CG2        8.9150   28.7800    1.7020 C.3    67  THR67       0.0379
     28  N          6.4060   31.6690    2.3200 N.am   68  PHE68      -0.1959
     29  CA         4.9660   31.4560    2.3410 C.3    68  PHE68       0.1771
     30  C          4.6980   29.9750    2.0870 C.2    68  PHE68       0.2620
     31  O          5.2250   29.1210    2.7920 O.2    68  PHE68      -0.2715
     32  CB         4.2670   32.3210    1.2930 C.3    68  PHE68       0.0574
     33  CG         2.7800   32.4220    1.4870 C.ar   68  PHE68      -0.0200
     34  CD1        2.2090   32.1540    2.7230 C.ar   68  PHE68      -0.0042
     35  CD2        1.9510   32.7700    0.4310 C.ar   68  PHE68      -0.0042
     36  CE1        0.8390   32.2390    2.9060 C.ar   68  PHE68      -0.0003
     37  CE2        0.5790   32.8590    0.6050 C.ar   68  PHE68      -0.0003
     38  CZ         0.0220   32.5920    1.8480 C.ar   68  PHE68      -0.0000
     39  N          3.8920   29.6660    1.0780 N.am   69  THR69      -0.1951
     40  CA         3.6260   28.2730    0.7330 C.3    69  THR69       0.1897
     41  C          4.5680   27.7830   -0.3660 C.2    69  THR69       0.2313
     42  O          4.3460   26.7310   -0.9680 O.2    69  THR69      -0.2863
     43  CB         2.1570   28.0450    0.3330 C.3    69  THR69       0.1794
     44  OG1        1.8210   28.8820   -0.7780 O.3    69  THR69      -0.2208
     45  CG2        1.2330   28.3630    1.5040 C.3    69  THR69       0.0378
     46  N          5.7140   29.1140   -3.4630 N.3    71  TYR71      -0.1227
     47  CA         5.4800   29.2180   -4.9030 C.3    71  TYR71       0.1736
     48  C          6.7440   29.6420   -5.6600 C.2    71  TYR71       0.2596
     49  O          7.1560   28.9860   -6.6180 O.2    71  TYR71      -0.2718
     50  CB         4.3170   30.1710   -5.2180 C.3    71  TYR71       0.0548
     51  CG         3.8370   30.0830   -6.6550 C.ar   71  TYR71      -0.0200
     52  CD1        2.7420   29.2970   -6.9990 C.ar   71  TYR71      -0.0009
     53  CD2        4.4890   30.7720   -7.6700 C.ar   71  TYR71      -0.0009
     54  CE1        2.3050   29.2080   -8.3120 C.ar   71  TYR71       0.0417
     55  CE2        4.0620   30.6890   -8.9810 C.ar   71  TYR71       0.0417
     56  CZ         2.9720   29.9070   -9.2980 C.ar   71  TYR71       0.1957
     57  OH         2.5550   29.8300  -10.6070 O.3    71  TYR71      -0.2866
     58  N          7.3580   30.7390   -5.2290 N.am   72  SER72      -0.1952
     59  CA         8.5490   31.2500   -5.8980 C.3    72  SER72       0.1924
     60  C          9.7460   30.3260   -5.6950 C.2    72  SER72       0.2314
     61  O         10.5870   30.1810   -6.5840 O.2    72  SER72      -0.2863
     62  CB         8.8780   32.6640   -5.4140 C.3    72  SER72       0.2116
     63  OG         9.0530   32.7010   -4.0080 O.3    72  SER72      -0.2180
     64  N         13.6310   31.2810    2.9400 N.3    88  CYS88      -0.1221
     65  CA        13.5350   31.8170    4.2890 C.3    88  CYS88       0.1808
     66  C         12.1170   32.2250    4.6540 C.2    88  CYS88       0.2601
     67  O         11.4130   32.8500    3.8650 O.2    88  CYS88      -0.2717
     68  CB        14.4580   33.0250    4.4430 C.3    88  CYS88       0.0970
     69  SG        16.1370   32.7540    3.8670 S.3    88  CYS88      -0.0800
     70  N         11.7140   31.8690    5.8670 N.am   89  ASP89      -0.1959
     71  CA        10.4480   32.3140    6.4220 C.3    89  ASP89       0.1840
     72  C         10.4670   32.0550    7.9200 C.2    89  ASP89       0.2622
     73  O         11.3730   31.3980    8.4330 O.2    89  ASP89      -0.2715
     74  CB         9.2730   31.5900    5.7600 C.3    89  ASP89       0.1450
     75  CG         7.9890   32.4060    5.7940 C.2    89  ASP89       0.3671
     76  OD1        7.6550   32.9580    6.8630 O.co2  89  ASP89      -0.2456
     77  OD2        7.3160   32.5070    4.7460 O.co2  89  ASP89      -0.2456
     78  N          9.4690   32.5740    8.6210 N.am   90  VAL90      -0.1963
     79  CA         9.3860   32.3940   10.0610 C.3    90  VAL90       0.1727
     80  C          8.0840   31.6840   10.4220 C.2    90  VAL90       0.2616
     81  O          7.8470   31.3480   11.5810 O.2    90  VAL90      -0.2715
     82  CB         9.4610   33.7440   10.7870 C.3    90  VAL90       0.0290
     83  CG1        8.1620   34.5090   10.6030 C.3    90  VAL90       0.0023
     84  CG2        9.7660   33.5420   12.2640 C.3    90  VAL90       0.0023
     85  N          7.2490   31.4460    9.4150 N.am   91  ASP91      -0.1971
     86  CA         5.9280   30.8650    9.6270 C.3    91  ASP91       0.1709
     87  C          5.9280   29.3590    9.3800 C.2    91  ASP91       0.2293
     88  O          6.2160   28.9030    8.2740 O.2    91  ASP91      -0.2864
     89  CB         4.9020   31.5540    8.7210 C.3    91  ASP91       0.1436
     90  CG         3.4750   31.1330    9.0230 C.2    91  ASP91       0.3671
     91  OD1        2.8910   31.6640    9.9910 O.co2  91  ASP91      -0.2456
     92  OD2        2.9330   30.2790    8.2890 O.co2  91  ASP91      -0.2456
     93  N          2.6610   27.7260    6.9150 N.3    94  SER94      -0.1217
     94  CA         2.7970   27.8580    5.4680 C.3    94  SER94       0.1889
     95  C          3.9860   27.0790    4.9000 C.2    94  SER94       0.2288
     96  O          3.8790   26.4660    3.8380 O.2    94  SER94      -0.2866
     97  CB         2.8780   29.3300    5.0600 C.3    94  SER94       0.2089
     98  OG         3.9590   29.9840    5.6900 O.3    94  SER94      -0.2183
     99  N         13.5770   30.8960   10.3100 N.3   116  SER116     -0.1203
    100  CA        13.9420   31.8880   11.3110 C.3   116  SER116      0.2005
    101  C         13.9530   33.2450   10.6260 C.2   116  SER116      0.2461
    102  O         13.9060   33.3100    9.4020 O.2   116  SER116     -0.2732
    103  CB        15.3160   31.5790   11.9140 C.3   116  SER116      0.2103
    104  OG        16.3430   32.3100   11.2600 O.3   116  SER116     -0.2182
    105  N         14.0030   34.3340   11.4070 N.am  117  PRO117     -0.2717
    106  CA        14.0560   35.6550   10.7740 C.3   117  PRO117      0.1535
    107  C         15.0960   35.6880    9.6590 C.2   117  PRO117      0.2598
    108  O         16.2220   35.2420    9.8670 O.2   117  PRO117     -0.2715
    109  CB        14.4770   36.5710   11.9260 C.3   117  PRO117      0.0310
    110  CG        13.9150   35.9100   13.1420 C.3   117  PRO117      0.0237
    111  CD        13.9980   34.4220   12.8800 C.3   117  PRO117      0.0939
    112  N         14.7180   36.1990    8.4900 N.am  118  ALA118     -0.1964
    113  CA        15.6300   36.2730    7.3500 C.3   118  ALA118      0.1728
    114  C         16.8700   37.0840    7.7120 C.2   118  ALA118      0.2616
    115  O         17.9810   36.7750    7.2860 O.2   118  ALA118     -0.2715
    116  CB        14.9270   36.8830    6.1520 C.3   118  ALA118      0.0334
    117  N         16.6540   38.1290    8.5020 N.am  119  LYS119     -0.1977
    118  CA        17.7250   38.9390    9.0650 C.3   119  LYS119      0.1596
    119  C         18.8270   38.0640    9.6720 C.2   119  LYS119      0.2287
    120  O         20.0170   38.3120    9.4670 O.2   119  LYS119     -0.2864
    121  CB        17.1300   39.8680   10.1270 C.3   119  LYS119      0.0298
    122  CG        18.1030   40.7800   10.8330 C.3   119  LYS119      0.0038
    123  CD        17.3800   41.5370   11.9400 C.3   119  LYS119      0.0206
    124  CE        18.3200   42.4630   12.6990 C.3   119  LYS119      0.1093
    125  NZ        17.6220   43.1890   13.7990 N.3   119  LYS119     -0.1314
    126  N         15.9940   36.5820   -4.3320 N.3   138  TYR138     -0.1241
    127  CA        14.6370   37.0980   -4.4880 C.3   138  TYR138      0.1605
    128  C         14.0870   37.5560   -3.1440 C.2   138  TYR138      0.2264
    129  O         13.8800   36.7470   -2.2380 O.2   138  TYR138     -0.2867
    130  CB        13.7350   36.0250   -5.1010 C.3   138  TYR138      0.0534
    131  CG        12.2790   36.4190   -5.2610 C.ar  138  TYR138     -0.0201
    132  CD1       11.9170   37.5810   -5.9280 C.ar  138  TYR138     -0.0009
    133  CD2       11.2660   35.6040   -4.7710 C.ar  138  TYR138     -0.0009
    134  CE1       10.5810   37.9310   -6.0850 C.ar  138  TYR138      0.0417
    135  CE2        9.9350   35.9380   -4.9230 C.ar  138  TYR138      0.0417
    136  CZ         9.5930   37.1020   -5.5780 C.ar  138  TYR138      0.1957
    137  OH         8.2590   37.4280   -5.7240 O.3   138  TYR138     -0.2866
    138  N         11.1900   38.9290   -0.9520 N.3   140  ASP140     -0.1225
    139  CA         9.7320   38.9850   -0.9370 C.3   140  ASP140      0.1805
    140  C          9.1580   38.5880    0.4280 C.2   140  ASP140      0.2598
    141  O          8.3070   37.7030    0.5290 O.2   140  ASP140     -0.2718
    142  CB         9.1710   38.0990   -2.0550 C.3   140  ASP140      0.1424
    143  CG         7.6730   38.2160   -2.1990 C.2   140  ASP140      0.3668
    144  OD1        7.0690   37.3490   -2.8660 O.co2 140  ASP140     -0.2456
    145  OD2        7.0980   39.1740   -1.6420 O.co2 140  ASP140     -0.2456
    146  N          9.6310   39.2530    1.4770 N.am  141  ALA141     -0.1966
    147  CA         9.1550   38.9950    2.8340 C.3   141  ALA141      0.1728
    148  C          8.5420   40.2530    3.4490 C.2   141  ALA141      0.2616
    149  O          7.8440   41.0050    2.7730 O.2   141  ALA141     -0.2715
    150  CB        10.2870   38.4690    3.7010 C.3   141  ALA141      0.0334
    151  N          8.7960   40.4780    4.7330 N.am  142  ASP142     -0.1957
    152  CA         8.3070   41.6840    5.3950 C.3   142  ASP142      0.1840
    153  C          8.9100   42.9280    4.7460 C.2   142  ASP142      0.2621
    154  O         10.1310   43.0660    4.6650 O.2   142  ASP142     -0.2715
    155  CB         8.6030   41.6470    6.9000 C.3   142  ASP142      0.1450
    156  CG        10.0300   41.2180    7.2110 C.2   142  ASP142      0.3671
    157  OD1       10.4640   40.1610    6.7030 O.co2 142  ASP142     -0.2456
    158  OD2       10.7190   41.9380    7.9670 O.co2 142  ASP142     -0.2456
    159  N          8.0490   43.8330    4.2880 N.am  143  LYS143     -0.1977
    160  CA         8.4900   44.9800    3.4940 C.3   143  LYS143      0.1596
    161  C          9.2970   46.0020    4.2930 C.2   143  LYS143      0.2287
    162  O         10.1040   46.7370    3.7290 O.2   143  LYS143     -0.2864
    163  CB         7.3020   45.6620    2.8070 C.3   143  LYS143      0.0298
    164  CG         6.3830   44.7050    2.0590 C.3   143  LYS143      0.0038
    165  CD         7.1530   43.7790    1.1240 C.3   143  LYS143      0.0206
    166  CE         6.2190   42.7510    0.4890 C.3   143  LYS143      0.1093
    167  NZ         6.9480   41.6110   -0.1370 N.3   143  LYS143     -0.1314
    168  N         11.7160   45.5310    6.0990 N.3   145  ASN145     -0.1240
    169  CA        13.1280   45.1700    6.0780 C.3   145  ASN145      0.1653
    170  C         13.7520   45.0340    4.6920 C.2   145  ASN145      0.2266
    171  O         14.8340   44.4600    4.5650 O.2   145  ASN145     -0.2867
    172  CB        13.3540   43.8660    6.8510 C.3   145  ASN145      0.1155
    173  CG        13.4690   44.0830    8.3450 C.2   145  ASN145      0.2627
    174  OD1       13.9820   45.1080    8.7960 O.2   145  ASN145     -0.2716
    175  ND2       12.9970   43.1140    9.1220 N.am  145  ASN145     -0.0877
    176  N         17.5230   43.6870    3.8230 N.3   149  TYR149     -0.1241
    177  CA        17.6780   42.5080    2.9720 C.3   149  TYR149      0.1605
    178  C         18.4340   42.8150    1.6820 C.2   149  TYR149      0.2264
    179  O         19.2180   41.9990    1.2010 O.2   149  TYR149     -0.2867
    180  CB        16.3140   41.9140    2.6260 C.3   149  TYR149      0.0534
    181  CG        15.5110   41.4490    3.8160 C.ar  149  TYR149     -0.0201
    182  CD1       16.1370   40.9960    4.9730 C.ar  149  TYR149     -0.0009
    183  CD2       14.1210   41.4580    3.7800 C.ar  149  TYR149     -0.0009
    184  CE1       15.3970   40.5700    6.0580 C.ar  149  TYR149      0.0417
    185  CE2       13.3800   41.0330    4.8590 C.ar  149  TYR149      0.0417
    186  CZ        14.0190   40.5920    5.9950 C.ar  149  TYR149      0.1957
    187  OH        13.2690   40.1720    7.0690 O.3   149  TYR149     -0.2866
@<TRIPOS>BOND
     1    57    56    1
     2    56    55   ar
     3    56    54   ar
     4    55    53   ar
     5    54    52   ar
     6    53    51   ar
     7    16    14    1
     8    13    12    2
     9    12    11    1
    10    52    51   ar
    11    51    50    1
    12    49    48    2
    13    61    60    2
    14    14    11    1
    15    14    15    1
    16   134   132   ar
    17   134   136   ar
    18    11    10    1
    19   132   131   ar
    20    59    60    1
    21    59    62    1
    22    59    58    1
    23   137   136    1
    24    48    58   am
    25    48    47    1
    26   136   135   ar
    27    62    63    1
    28   131   130    1
    29   131   133   ar
    30    50    47    1
    31   130   127    1
    32     4     3    2
    33   135   133   ar
    34    47    46    1
    35    10     3   am
    36     8     7    2
    37   127   126    1
    38   127   128    1
    39     3     2    1
    40     7     9   am
    41     7     6    1
    42     6     5    1
    43     5     2    1
    44   128   129    2
    45     2     1    1
    46   144   143   ar
    47   143   142    1
    48   143   145   ar
    49   142   139    1
    50    42    41    2
    51   138   139    1
    52   139   140    1
    53    44    43    1
    54    41    40    1
    55   167   166    1
    56    20    19    2
    57    24    23    2
    58    43    40    1
    59    43    45    1
    60   140   141    2
    61   140   146   am
    62    35    37   ar
    63    35    33   ar
    64   166   165    1
    65    37    38   ar
    66    40    39    1
    67    39    30   am
    68   165   164    1
    69   179   178    2
    70    32    33    1
    71    32    29    1
    72    23    22    1
    73    23    28   am
    74    19    18    1
    75    19    21   am
    76   146   147    1
    77    33    34   ar
    78    22    21    1
    79    22    25    1
    80   178   177    1
    81    27    25    1
    82    38    36   ar
    83    17    18    1
    84   164   163    1
    85    30    29    1
    86    30    31    2
    87    28    29    1
    88    25    26    1
    89   180   177    1
    90   180   181    1
    91    34    36   ar
    92   149   148    2
    93   163   160    1
    94   147   148    1
    95   147   150    1
    96    64    65    1
    97   177   176    1
    98   148   151   am
    99   160   159    1
   100   160   161    1
   101   162   161    2
   102   183   181   ar
   103   183   185   ar
   104   181   182   ar
   105    96    95    2
   106    67    66    2
   107    69    68    1
   108   159   153   am
   109    65    68    1
   110    65    66    1
   111   171   170    2
   112    66    70   am
   113   154   153    2
   114   170   169    1
   115   151   152    1
   116   153   152    1
   117    77    75   ar
   118   185   186   ar
   119    95    94    1
   120   182   184   ar
   121    97    94    1
   122    97    98    1
   123   152   155    1
   124    94    93    1
   125    74    75    1
   126    74    71    1
   127    75    76   ar
   128    70    71    1
   129   186   184   ar
   130   186   187    1
   131   169   168    1
   132   169   172    1
   133   116   113    1
   134    71    72    1
   135   157   156   ar
   136   172   173    1
   137   155   156    1
   138   156   158   ar
   139   115   114    2
   140   113   114    1
   141   113   112    1
   142   114   117   am
   143    72    73    2
   144    72    78   am
   145    88    87    2
   146    92    90   ar
   147   173   174    2
   148   173   175   am
   149   112   107   am
   150   117   118    1
   151    78    79    1
   152    89    90    1
   153    89    86    1
   154    90    91   ar
   155   118   119    1
   156   118   121    1
   157    87    86    1
   158   102   101    2
   159    85    86    1
   160    85    80   am
   161   120   119    2
   162   107   108    2
   163   107   106    1
   164    79    80    1
   165    79    82    1
   166   121   122    1
   167    99   100    1
   168    80    81    2
   169    83    82    1
   170   101   100    1
   171   101   105   am
   172   106   105    1
   173   106   109    1
   174    82    84    1
   175   122   123    1
   176   104   103    1
   177   100   103    1
   178   105   111    1
   179   109   110    1
   180   123   124    1
   181   124   125    1
   182   111   110    1
