@<TRIPOS>MOLECULE
tmp/3tr9A00.pdb
 155 145 0 0 0
SMALL
GASTEIGER

@<TRIPOS>ATOM
      1  N        -10.7390   -2.2740    8.6920 N.3    23  ASN23      -0.1240
      2  CA       -11.5640   -1.2610    8.0500 C.3    23  ASN23       0.1653
      3  C        -12.5590   -0.6910    9.0470 C.2    23  ASN23       0.2266
      4  O        -13.2940   -1.4420    9.6880 O.2    23  ASN23      -0.2867
      5  CB       -12.3100   -1.8520    6.8520 C.3    23  ASN23       0.1155
      6  CG       -11.3750   -2.3300    5.7560 C.2    23  ASN23       0.2627
      7  OD1      -10.2680   -1.8180    5.6080 O.2    23  ASN23      -0.2716
      8  ND2      -11.8220   -3.3150    4.9760 N.am   23  ASN23      -0.0877
      9  N        -15.0180   -2.8470    2.8680 N.3    29  PHE29      -0.1241
     10  CA       -15.0830   -4.1850    2.3240 C.3    29  PHE29       0.1605
     11  C        -14.9380   -5.2810    3.3840 C.2    29  PHE29       0.2264
     12  O        -14.2010   -5.1270    4.3620 O.2    29  PHE29      -0.2867
     13  CB       -14.0230   -4.3450    1.2360 C.3    29  PHE29       0.0534
     14  CG       -13.9860   -5.7120    0.6320 C.ar   29  PHE29      -0.0203
     15  CD1      -15.0560   -6.1780   -0.1150 C.ar   29  PHE29      -0.0042
     16  CD2      -12.8870   -6.5290    0.8030 C.ar   29  PHE29      -0.0042
     17  CE1      -15.0280   -7.4410   -0.6760 C.ar   29  PHE29      -0.0003
     18  CE2      -12.8580   -7.7950    0.2450 C.ar   29  PHE29      -0.0003
     19  CZ       -13.9300   -8.2490   -0.4890 C.ar   29  PHE29      -0.0000
     20  N         -4.5950    3.8800    5.7670 N.3    93  ASP93      -0.1239
     21  CA        -5.0960    3.7930    4.4040 C.3    93  ASP93       0.1674
     22  C         -5.9760    5.0170    4.1340 C.2    93  ASP93       0.2266
     23  O         -7.1530    5.0410    4.4990 O.2    93  ASP93      -0.2867
     24  CB        -5.9120    2.4960    4.2490 C.3    93  ASP93       0.1410
     25  CG        -6.2060    2.1500    2.8020 C.2    93  ASP93       0.3668
     26  OD1       -6.1960    3.0590    1.9620 O.co2  93  ASP93      -0.2456
     27  OD2       -6.4550    0.9620    2.4960 O.co2  93  ASP93      -0.2456
     28  N         -0.6710    4.3020    3.4300 N.3   110  ASN110     -0.1225
     29  CA        -1.0560    3.4420    2.3230 C.3   110  ASN110      0.1785
     30  C         -2.0770    4.1670    1.4570 C.2   110  ASN110      0.2597
     31  O         -3.2200    4.3510    1.8690 O.2   110  ASN110     -0.2718
     32  CB        -1.6400    2.1330    2.8530 C.3   110  ASN110      0.1169
     33  CG        -2.2380    1.2770    1.7520 C.2   110  ASN110      0.2627
     34  OD1       -1.7950    1.3220    0.6020 O.2   110  ASN110     -0.2716
     35  ND2       -3.2590    0.4950    2.0980 N.am  110  ASN110     -0.0877
     36  N         -1.6690    4.5940    0.2650 N.am  111  ASP111     -0.1960
     37  CA        -2.5820    5.3490   -0.5920 C.3   111  ASP111      0.1840
     38  C         -2.9490    4.6050   -1.8770 C.2   111  ASP111      0.2621
     39  O         -2.1300    4.4210   -2.7790 O.2   111  ASP111     -0.2715
     40  CB        -2.0650    6.7650   -0.8850 C.3   111  ASP111      0.1450
     41  CG        -3.1130    7.6390   -1.5630 C.2   111  ASP111      0.3671
     42  OD1       -4.2860    7.2040   -1.6580 O.co2 111  ASP111     -0.2456
     43  OD2       -2.7800    8.7740   -1.9800 O.co2 111  ASP111     -0.2456
     44  N         -4.2010    4.1690   -1.9290 N.am  112  GLN112     -0.1977
     45  CA        -4.7660    3.5290   -3.1010 C.3   112  GLN112      0.1601
     46  C         -4.7020    4.4570   -4.3000 C.2   112  GLN112      0.2287
     47  O         -4.7070    4.0090   -5.4490 O.2   112  GLN112     -0.2864
     48  CB        -6.2250    3.1740   -2.8260 C.3   112  GLN112      0.0394
     49  CG        -6.4160    2.0850   -1.7790 C.3   112  GLN112      0.0908
     50  CD        -7.8710    1.9120   -1.4180 C.2   112  GLN112      0.2608
     51  OE1       -8.6850    1.5130   -2.2520 O.2   112  GLN112     -0.2717
     52  NE2       -8.2130    2.2350   -0.1800 N.am  112  GLN112     -0.0878
     53  N          2.9380    3.4090    0.5990 N.3   132  CYS132     -0.1235
     54  CA         2.5920    2.4660   -0.4640 C.3   132  CYS132      0.1677
     55  C          1.8190    3.1800   -1.5590 C.2   132  CYS132      0.2270
     56  O          0.8180    3.8450   -1.2950 O.2   132  CYS132     -0.2867
     57  CB         1.7630    1.3040    0.0660 C.3   132  CYS132      0.0956
     58  SG         1.2580    0.1470   -1.2620 S.3   132  CYS132     -0.0801
     59  N          2.2500   -1.3350   -5.5330 N.3   178  ASP178     -0.1239
     60  CA         1.1510   -2.3030   -5.4650 C.3   178  ASP178      0.1674
     61  C          0.3550   -2.2480   -6.7740 C.2   178  ASP178      0.2266
     62  O         -0.1510   -1.1990   -7.1410 O.2   178  ASP178     -0.2867
     63  CB         0.2470   -1.9100   -4.2920 C.3   178  ASP178      0.1410
     64  CG        -0.9540   -2.8230   -4.1280 C.2   178  ASP178      0.3668
     65  OD1       -1.3440   -3.5120   -5.0900 O.co2 178  ASP178     -0.2456
     66  OD2       -1.5240   -2.8360   -3.0200 O.co2 178  ASP178     -0.2456
     67  N         -2.4950   -3.0910   -7.4800 N.3   180  GLY180     -0.1210
     68  CA        -3.9100   -2.7930   -7.2950 C.3   180  GLY180      0.1956
     69  C         -4.8700   -3.9120   -7.6840 C.2   180  GLY180      0.2612
     70  O         -5.7210   -3.7360   -8.5670 O.2   180  GLY180     -0.2717
     71  N         -4.7530   -5.0630   -7.0310 N.am  181  PHE181     -0.1962
     72  CA        -5.6280   -6.1960   -7.3640 C.3   181  PHE181      0.1771
     73  C         -7.0550   -5.9080   -6.9240 C.2   181  PHE181      0.2620
     74  O         -7.2720   -5.3860   -5.8320 O.2   181  PHE181     -0.2715
     75  CB        -5.1260   -7.4740   -6.6980 C.3   181  PHE181      0.0574
     76  CG        -3.8440   -7.9880   -7.2870 C.ar  181  PHE181     -0.0200
     77  CD1       -2.6580   -7.9320   -6.5720 C.ar  181  PHE181     -0.0042
     78  CD2       -3.8240   -8.5070   -8.5740 C.ar  181  PHE181     -0.0042
     79  CE1       -1.4770   -8.4040   -7.1250 C.ar  181  PHE181     -0.0003
     80  CE2       -2.6350   -8.9760   -9.1350 C.ar  181  PHE181     -0.0003
     81  CZ        -1.4700   -8.9250   -8.4060 C.ar  181  PHE181     -0.0000
     82  N         -8.0200   -6.2330   -7.7790 N.am  182  GLY182     -0.1940
     83  CA        -9.4170   -5.9600   -7.4870 C.3   182  GLY182      0.2014
     84  C        -10.2460   -5.7080   -8.7320 C.2   182  GLY182      0.2638
     85  O         -9.7130   -5.4930   -9.8120 O.2   182  GLY182     -0.2714
     86  N        -11.5640   -5.7610   -8.5860 N.am  183  GLN183     -0.1977
     87  CA       -12.4470   -5.3770   -9.6750 C.3   183  GLN183      0.1601
     88  C        -13.1990   -4.0980   -9.2980 C.2   183  GLN183      0.2287
     89  O        -12.6730   -3.2770   -8.5570 O.2   183  GLN183     -0.2864
     90  CB       -13.3950   -6.5300  -10.0060 C.3   183  GLN183      0.0394
     91  CG       -12.6360   -7.7860  -10.4090 C.3   183  GLN183      0.0908
     92  CD       -13.5390   -8.8500  -10.9700 C.2   183  GLN183      0.2608
     93  OE1      -13.7780   -8.8970  -12.1730 O.2   183  GLN183     -0.2717
     94  NE2      -14.0550   -9.7100  -10.0980 N.am  183  GLN183     -0.0878
     95  N        -11.5650   -0.6650   -9.2600 N.3   186  TYR186     -0.1241
     96  CA       -10.1600   -0.9110   -9.5530 C.3   186  TYR186      0.1605
     97  C         -9.9220   -1.1420  -11.0500 C.2   186  TYR186      0.2264
     98  O         -8.7910   -1.3630  -11.4680 O.2   186  TYR186     -0.2867
     99  CB        -9.6190   -2.0920   -8.7350 C.3   186  TYR186      0.0534
    100  CG        -9.1880   -1.7220   -7.3260 C.ar  186  TYR186     -0.0201
    101  CD1       -9.7370   -0.6260   -6.6700 C.ar  186  TYR186     -0.0009
    102  CD2       -8.2120   -2.4570   -6.6660 C.ar  186  TYR186     -0.0009
    103  CE1       -9.3400   -0.2890   -5.3820 C.ar  186  TYR186      0.0417
    104  CE2       -7.8000   -2.1230   -5.3800 C.ar  186  TYR186      0.0417
    105  CZ        -8.3680   -1.0410   -4.7450 C.ar  186  TYR186      0.1957
    106  OH        -7.9590   -0.7220   -3.4710 O.3   186  TYR186     -0.2866
    107  N          3.6700   -4.8250   -2.6780 N.3   210  LEU210     -0.1245
    108  CA         2.5740   -5.2280   -1.8090 C.3   210  LEU210      0.1561
    109  C          1.4590   -5.8080   -2.6630 C.2   210  LEU210      0.2260
    110  O          1.1900   -5.3060   -3.7570 O.2   210  LEU210     -0.2867
    111  CB         2.0660   -4.0220   -1.0100 C.3   210  LEU210      0.0270
    112  CG         0.9570   -4.2470    0.0270 C.3   210  LEU210      0.0019
    113  CD1        1.0710   -3.2340    1.1590 C.3   210  LEU210      0.0001
    114  CD2       -0.4300   -4.2010   -0.6070 C.3   210  LEU210      0.0001
    115  N         -2.6320   -7.4400   -2.3810 N.3   212  GLY212     -0.1225
    116  CA        -3.8310   -7.6510   -1.5890 C.3   212  GLY212      0.1811
    117  C         -4.9500   -8.3250   -2.3700 C.2   212  GLY212      0.2280
    118  O         -5.6990   -7.6640   -3.0850 O.2   212  GLY212     -0.2866
    119  N        -11.3160  -10.9900   -1.9490 N.3   216  LYS216     -0.1231
    120  CA       -11.8450  -10.1700   -3.0380 C.3   216  LYS216      0.1693
    121  C        -12.6870  -10.9130   -4.0900 C.2   216  LYS216      0.2592
    122  O        -12.6860  -12.1450   -4.1630 O.2   216  LYS216     -0.2718
    123  CB       -10.7170   -9.3560   -3.6870 C.3   216  LYS216      0.0285
    124  CG       -10.1500   -8.2810   -2.7400 C.3   216  LYS216      0.0035
    125  CD        -9.0520   -7.4610   -3.3990 C.3   216  LYS216      0.0206
    126  CE        -8.6370   -6.2670   -2.5220 C.3   216  LYS216      0.1093
    127  NZ        -7.4580   -5.5560   -3.0910 N.3   216  LYS216     -0.1314
    128  N        -13.3950  -10.1390   -4.9070 N.am  217  SER217     -0.1952
    129  CA       -14.3590  -10.6730   -5.8700 C.3   217  SER217      0.1924
    130  C        -13.7680  -11.6280   -6.9030 C.2   217  SER217      0.2314
    131  O        -14.4870  -12.4840   -7.4200 O.2   217  SER217     -0.2863
    132  CB       -15.0760   -9.5300   -6.5960 C.3   217  SER217      0.2116
    133  OG       -14.1610   -8.8050   -7.3950 O.3   217  SER217     -0.2180
    134  N        -14.1580  -17.4180    1.0700 N.3   229  ARG229     -0.1245
    135  CA       -13.0370  -17.2010    0.1580 C.3   229  ARG229      0.1563
    136  C        -11.6630  -17.3750    0.8010 C.2   229  ARG229      0.2260
    137  O        -10.6520  -17.0000    0.2190 O.2   229  ARG229     -0.2867
    138  CB       -13.1370  -15.7990   -0.4480 C.3   229  ARG229      0.0307
    139  CG       -14.4230  -15.6040   -1.2380 C.3   229  ARG229      0.0489
    140  CD       -14.5420  -14.2010   -1.8150 C.3   229  ARG229      0.2205
    141  NE       -15.8930  -13.9870   -2.3330 N.pl3 229  ARG229     -0.0865
    142  CZ       -16.4140  -12.8070   -2.6540 C.cat 229  ARG229      0.5346
    143  NH1      -15.7060  -11.6910   -2.5190 N.pl3 229  ARG229      0.1354
    144  NH2      -17.6610  -12.7450   -3.1070 N.pl3 229  ARG229      0.1354
    145  N         -1.3090   -8.0030    2.2170 N.3   249  ARG249     -0.1245
    146  CA        -2.3730   -7.3060    2.9350 C.3   249  ARG249      0.1563
    147  C         -3.5770   -8.2340    3.0520 C.2   249  ARG249      0.2260
    148  O         -4.1280   -8.6570    2.0400 O.2   249  ARG249     -0.2867
    149  CB        -2.7560   -6.0400    2.1690 C.3   249  ARG249      0.0307
    150  CG        -3.7730   -5.1550    2.8570 C.3   249  ARG249      0.0489
    151  CD        -4.0890   -3.9160    2.0100 C.3   249  ARG249      0.2205
    152  NE        -5.0600   -3.0450    2.6710 N.pl3 249  ARG249     -0.0865
    153  CZ        -6.3800   -3.1870    2.5780 C.cat 249  ARG249      0.5346
    154  NH1       -6.9030   -4.1680    1.8500 N.pl3 249  ARG249      0.1354
    155  NH2       -7.1830   -2.3460    3.2170 N.pl3 249  ARG249      0.1354
@<TRIPOS>BOND
     1    93    92    2
     2    98    97    2
     3    97    96    1
     4    92    91    1
     5    92    94   am
     6    91    90    1
     7    90    87    1
     8    85    84    2
     9    87    88    1
    10    87    86    1
    11    96    95    1
    12    96    99    1
    13    88    89    2
    14    80    78   ar
    15    80    81   ar
    16    99   100    1
    17    84    86   am
    18    84    83    1
    19    78    76   ar
    20    70    69    2
    21    81    79   ar
    22    82    83    1
    23    82    73   am
    24    69    68    1
    25    69    71   am
    26    67    68    1
    27   131   130    2
    28   133   132    1
    29    72    71    1
    30    72    73    1
    31    72    75    1
    32   100   101   ar
    33   100   102   ar
    34    76    75    1
    35    76    77   ar
    36    62    61    2
    37    79    77   ar
    38    73    74    2
    39   130   129    1
    40    61    60    1
    41   101   103   ar
    42   102   104   ar
    43   132   129    1
    44   129   128    1
    45    59    60    1
    46    60    63    1
    47    47    46    2
    48   103   105   ar
    49   104   105   ar
    50    65    64   ar
    51   128   121   am
    52   105   106    1
    53    46    45    1
    54    63    64    1
    55   122   121    2
    56    64    66   ar
    57   121   120    1
    58   110   109    2
    59   123   120    1
    60   123   124    1
    61   125   124    1
    62   125   126    1
    63   144   142    1
    64    45    48    1
    65    45    44    1
    66   127   126    1
    67   118   117    2
    68   120   119    1
    69    48    49    1
    70    39    38    2
    71   107   108    1
    72   109   108    1
    73   142   143    1
    74   142   141    2
    75   115   116    1
    76   117   116    1
    77   141   140    1
    78    51    50    2
    79    43    41   ar
    80    44    38   am
    81    38    37    1
    82   140   139    1
    83   108   111    1
    84    49    50    1
    85    42    41   ar
    86    41    40    1
    87    55    56    2
    88    55    54    1
    89    50    52   am
    90    58    57    1
    91   139   138    1
    92   111   112    1
    93    40    37    1
    94    17    19   ar
    95    17    15   ar
    96   114   112    1
    97    37    36    1
    98    19    18   ar
    99    54    57    1
   100    54    53    1
   101   138   135    1
   102    15    14   ar
   103   112   113    1
   104   135   136    1
   105   135   134    1
   106   137   136    2
   107    18    16   ar
   108    36    30   am
   109    34    33    2
   110    14    16   ar
   111    14    13    1
   112    13    10    1
   113    30    31    2
   114    30    29    1
   115    33    35   am
   116    33    32    1
   117   154   153    1
   118    26    25   ar
   119   151   152    1
   120   151   150    1
   121   148   147    2
   122   149   150    1
   123   149   146    1
   124   145   146    1
   125    29    32    1
   126    29    28    1
   127    10     9    1
   128    10    11    1
   129    27    25   ar
   130   153   152    2
   131   153   155    1
   132    25    24    1
   133   146   147    1
   134    11    12    2
   135    22    21    1
   136    22    23    2
   137    24    21    1
   138    21    20    1
   139     8     6   am
   140     7     6    2
   141     6     5    1
   142     5     2    1
   143     2     1    1
   144     2     3    1
   145     3     4    2
