@<TRIPOS>MOLECULE
tmp/3triA00.pdb
 179 168 0 0 0
SMALL
GASTEIGER

@<TRIPOS>ATOM
      1  N         49.2180    4.2020   13.5760 N.3     8  ILE8       -0.1231
      2  CA        50.4090    3.9240   14.3560 C.3     8  ILE8        0.1692
      3  C         50.0100    2.9850   15.4770 C.2     8  ILE8        0.2593
      4  O         49.2540    3.3580   16.3730 O.2     8  ILE8       -0.2718
      5  CB        51.0240    5.2130   14.9360 C.3     8  ILE8        0.0266
      6  CG1       51.2670    6.2290   13.8190 C.3     8  ILE8        0.0019
      7  CG2       52.3200    4.9010   15.6760 C.3     8  ILE8        0.0020
      8  CD1       52.0820    5.6750   12.6670 C.3     8  ILE8        0.0001
      9  N         50.5220    1.7630   15.4220 N.am    9  GLY9       -0.1942
     10  CA        50.0740    0.7200   16.3210 C.3     9  GLY9        0.2014
     11  C         48.9410   -0.0280   15.6480 C.2     9  GLY9        0.2639
     12  O         48.1120    0.5690   14.9630 O.2     9  GLY9       -0.2714
     13  N         48.9170   -1.3430   15.8230 N.am   10  GLY10      -0.1939
     14  CA        47.8960   -2.1670   15.2090 C.3    10  GLY10       0.2014
     15  C         47.2680   -3.1000   16.2210 C.2    10  GLY10       0.2639
     16  O         47.1560   -4.3010   15.9790 O.2    10  GLY10      -0.2714
     17  N         46.8640   -2.5430   17.3590 N.am   11  GLY11      -0.1939
     18  CA        46.2680   -3.3240   18.4290 C.3    11  GLY11       0.2014
     19  C         44.7870   -3.5870   18.2220 C.2    11  GLY11       0.2638
     20  O         44.3360   -3.7920   17.0930 O.2    11  GLY11      -0.2714
     21  N         44.0290   -3.5800   19.3140 N.am   12  ASN12      -0.1972
     22  CA        42.5930   -3.8230   19.2520 C.3    12  ASN12       0.1688
     23  C         41.8240   -2.6900   18.5760 C.2    12  ASN12       0.2292
     24  O         41.0730   -2.9150   17.6310 O.2    12  ASN12      -0.2864
     25  CB        42.0410   -4.0870   20.6530 C.3    12  ASN12       0.1181
     26  CG        42.5560   -5.3880   21.2460 C.2    12  ASN12       0.2629
     27  OD1       42.6480   -6.4000   20.5550 O.2    12  ASN12      -0.2716
     28  ND2       42.9040   -5.3620   22.5300 N.am   12  ASN12      -0.0877
     29  N         42.9280   -0.2020   16.6800 N.3    13  ALA13      -0.1245
     30  CA        43.3410   -0.0590   15.2890 C.3    13  ALA13       0.1562
     31  C         42.6910   -1.1370   14.4300 C.2    13  ALA13       0.2260
     32  O         42.1280   -0.8510   13.3750 O.2    13  ALA13      -0.2867
     33  CB        44.8530   -0.1340   15.1730 C.3    13  ALA13       0.0290
     34  N         53.1030   -1.3810   13.6520 N.3    34  ASN34      -0.1225
     35  CA        53.0790   -1.9150   15.0060 C.3    34  ASN34       0.1785
     36  C         54.4750   -2.3600   15.4100 C.2    34  ASN34       0.2597
     37  O         55.1950   -2.9630   14.6120 O.2    34  ASN34      -0.2718
     38  CB        52.0910   -3.0790   15.1070 C.3    34  ASN34       0.1169
     39  CG        51.8200   -3.4920   16.5390 C.2    34  ASN34       0.2627
     40  OD1       50.9910   -2.8910   17.2230 O.2    34  ASN34      -0.2716
     41  ND2       52.5130   -4.5300   17.0000 N.am   34  ASN34      -0.0877
     42  N         54.8650   -2.0560   16.6430 N.am   35  ARG35      -0.1966
     43  CA        56.2180   -2.3630   17.0880 C.3    35  ARG35       0.1729
     44  C         56.5410   -3.8490   16.9220 C.2    35  ARG35       0.2616
     45  O         57.6400   -4.2050   16.4940 O.2    35  ARG35      -0.2715
     46  CB        56.4410   -1.9130   18.5310 C.3    35  ARG35       0.0348
     47  CG        55.6940   -2.7330   19.5520 C.3    35  ARG35       0.0492
     48  CD        56.5420   -2.9510   20.7880 C.3    35  ARG35       0.2205
     49  NE        56.6970   -1.7400   21.5870 N.pl3  35  ARG35      -0.0865
     50  CZ        56.0140   -1.4900   22.6990 C.cat  35  ARG35       0.5346
     51  NH1       55.1250   -2.3700   23.1430 N.pl3  35  ARG35       0.1354
     52  NH2       56.2230   -0.3630   23.3690 N.pl3  35  ARG35       0.1354
     53  N         55.5860   -4.7160   17.2460 N.am   36  SER36      -0.1950
     54  CA        55.7930   -6.1520   17.0650 C.3    36  SER36       0.1924
     55  C         55.1380   -6.6490   15.7760 C.2    36  SER36       0.2314
     56  O         54.1580   -6.0760   15.3030 O.2    36  SER36      -0.2863
     57  CB        55.3050   -6.9510   18.2760 C.3    36  SER36       0.2116
     58  OG        53.9110   -7.1790   18.2230 O.3    36  SER36      -0.2180
     59  N         51.0300   -9.0540   15.1500 N.3    39  LYS39      -0.1245
     60  CA        49.7390   -8.3890   15.0060 C.3    39  LYS39       0.1561
     61  C         49.5110   -7.8850   13.5850 C.2    39  LYS39       0.2260
     62  O         48.3710   -7.7820   13.1350 O.2    39  LYS39      -0.2867
     63  CB        49.6070   -7.2460   16.0180 C.3    39  LYS39       0.0271
     64  CG        49.5440   -7.7300   17.4580 C.3    39  LYS39       0.0035
     65  CD        49.4570   -6.5850   18.4520 C.3    39  LYS39       0.0206
     66  CE        49.4750   -7.1180   19.8810 C.3    39  LYS39       0.1093
     67  NZ        49.4070   -6.0370   20.9020 N.3    39  LYS39      -0.1314
     68  N         57.2460    2.8970   12.0730 N.3    55  ASN55      -0.1240
     69  CA        56.2950    4.0030   12.1580 C.3    55  ASN55       0.1653
     70  C         56.5140    5.1020   11.1200 C.2    55  ASN55       0.2266
     71  O         55.5580    5.6090   10.5360 O.2    55  ASN55      -0.2867
     72  CB        56.3010    4.6090   13.5640 C.3    55  ASN55       0.1155
     73  CG        55.7600    3.6580   14.6160 C.2    55  ASN55       0.2627
     74  OD1       55.4310    2.5080   14.3230 O.2    55  ASN55      -0.2716
     75  ND2       55.6720    4.1350   15.8520 N.am   55  ASN55      -0.0877
     76  N         47.1990    4.9490   17.4580 N.3    68  ALA68      -0.1231
     77  CA        46.4690    3.8730   18.1130 C.3    68  ALA68       0.1694
     78  C         47.3670    3.0620   19.0370 C.2    68  ALA68       0.2592
     79  O         47.2460    1.8400   19.1220 O.2    68  ALA68      -0.2718
     80  CB        45.8220    2.9660   17.0720 C.3    68  ALA68       0.0304
     81  N         48.2740    3.7450   19.7230 N.am   69  VAL69      -0.1966
     82  CA        49.1240    3.0910   20.7050 C.3    69  VAL69       0.1727
     83  C         48.5960    3.4250   22.0910 C.2    69  VAL69       0.2616
     84  O         47.7190    4.2830   22.2310 O.2    69  VAL69      -0.2715
     85  CB        50.6020    3.5310   20.5780 C.3    69  VAL69       0.0290
     86  CG1       51.1600    3.1390   19.2160 C.3    69  VAL69       0.0023
     87  CG2       50.7430    5.0320   20.8060 C.3    69  VAL69       0.0023
     88  N         49.1140    2.7390   23.1070 N.am   70  LYS70      -0.1964
     89  CA        48.7460    3.0300   24.4890 C.3    70  LYS70       0.1713
     90  C         48.9850    4.5090   24.7490 C.2    70  LYS70       0.2458
     91  O         49.8020    5.1310   24.0700 O.2    70  LYS70      -0.2730
     92  CB        49.5830    2.1940   25.4610 C.3    70  LYS70       0.0311
     93  CG        49.4480    0.6880   25.2950 C.3    70  LYS70       0.0038
     94  CD        48.1240    0.1700   25.8350 C.3    70  LYS70       0.0206
     95  CE        48.1520   -1.3470   25.9730 C.3    70  LYS70       0.1093
     96  NZ        46.8270   -1.9090   26.3620 N.3    70  LYS70      -0.1314
     97  N         48.2660    5.0830   25.7250 N.am   71  PRO71      -0.2727
     98  CA        48.4130    6.5080   26.0400 C.3    71  PRO71       0.1402
     99  C         49.8390    6.8650   26.4450 C.2    71  PRO71       0.2269
    100  O         50.3140    7.9540   26.1230 O.2    71  PRO71      -0.2865
    101  CB        47.4640    6.7030   27.2280 C.3    71  PRO71       0.0296
    102  CG        46.4490    5.6230   27.0770 C.3    71  PRO71       0.0237
    103  CD        47.2070    4.4470   26.5260 C.3    71  PRO71       0.0939
    104  N         52.4170    5.7550   25.2780 N.3    73  GLN73      -0.1245
    105  CA        53.2820    5.5030   24.1330 C.3    73  GLN73       0.1566
    106  C         53.0530    6.5580   23.0570 C.2    73  GLN73       0.2260
    107  O         53.6540    6.5090   21.9840 O.2    73  GLN73      -0.2867
    108  CB        53.0060    4.1140   23.5590 C.3    73  GLN73       0.0367
    109  CG        53.2190    2.9770   24.5410 C.3    73  GLN73       0.0905
    110  CD        52.6110    1.6770   24.0550 C.2    73  GLN73       0.2608
    111  OE1       51.7540    1.6740   23.1710 O.2    73  GLN73      -0.2717
    112  NE2       53.0520    0.5640   24.6300 N.am   73  GLN73      -0.0878
    113  N         55.8890    8.2080   20.1210 N.3    76  VAL76      -0.1245
    114  CA        55.3560    8.1070   18.7700 C.3    76  VAL76       0.1561
    115  C         55.2860    9.4800   18.1040 C.2    76  VAL76       0.2260
    116  O         55.5830    9.6190   16.9170 O.2    76  VAL76      -0.2867
    117  CB        53.9670    7.4330   18.7710 C.3    76  VAL76       0.0252
    118  CG1       53.1790    7.8120   17.5290 C.3    76  VAL76       0.0019
    119  CG2       54.1160    5.9220   18.8810 C.3    76  VAL76       0.0019
    120  N         58.9070   10.6380   17.5230 N.3    79  GLU79      -0.1245
    121  CA        59.4070    9.7970   16.4430 C.3    79  GLU79       0.1567
    122  C         58.9660   10.3120   15.0730 C.2    79  GLU79       0.2260
    123  O         59.6660   10.1250   14.0770 O.2    79  GLU79      -0.2867
    124  CB        58.9340    8.3530   16.6510 C.3    79  GLU79       0.0388
    125  CG        59.2960    7.3860   15.5320 C.3    79  GLU79       0.1160
    126  CD        58.8510    5.9580   15.8260 C.2    79  GLU79       0.3649
    127  OE1       58.1750    5.7410   16.8560 O.co2  79  GLU79      -0.2457
    128  OE2       59.1830    5.0510   15.0280 O.co2  79  GLU79      -0.2457
    129  N         43.6980    8.5730   19.4850 N.3    94  LEU94      -0.1231
    130  CA        42.6430    7.7700   20.0820 C.3    94  LEU94       0.1693
    131  C         42.8810    7.6330   21.5730 C.2    94  LEU94       0.2592
    132  O         42.0080    7.1800   22.3130 O.2    94  LEU94      -0.2718
    133  CB        42.6120    6.3770   19.4540 C.3    94  LEU94       0.0284
    134  CG        42.6240    6.2930   17.9290 C.3    94  LEU94       0.0019
    135  CD1       42.6100    4.8390   17.4880 C.3    94  LEU94       0.0001
    136  CD2       41.4480    7.0460   17.3510 C.3    94  LEU94       0.0001
    137  N         44.0730    8.0260   22.0080 N.am   95  ALA95      -0.1966
    138  CA        44.5120    7.7570   23.3710 C.3    95  ALA95       0.1728
    139  C         43.6320    8.4140   24.4200 C.2    95  ALA95       0.2616
    140  O         43.3150    9.6000   24.3290 O.2    95  ALA95      -0.2715
    141  CB        45.9650    8.1790   23.5590 C.3    95  ALA95       0.0334
    142  N         43.2370    7.6280   25.4150 N.am   96  VAL96      -0.1977
    143  CA        42.5630    8.1700   26.5830 C.3    96  VAL96       0.1596
    144  C         43.5980    8.8810   27.4500 C.2    96  VAL96       0.2287
    145  O         44.7330    8.4230   27.5710 O.2    96  VAL96      -0.2864
    146  CB        41.8810    7.0590   27.4070 C.3    96  VAL96       0.0276
    147  CG1       41.2050    7.6420   28.6350 C.3    96  VAL96       0.0022
    148  CG2       40.8740    6.3120   26.5530 C.3    96  VAL96       0.0022
    149  N         36.7030    6.3800   20.0260 N.3   117  PRO117     -0.2102
    150  CA        35.9230    5.3410   19.3550 C.3   117  PRO117      0.1504
    151  C         35.7040    4.1430   20.2670 C.2   117  PRO117      0.2576
    152  O         36.1070    4.1630   21.4290 O.2   117  PRO117     -0.2718
    153  CB        36.8410    4.9370   18.2080 C.3   117  PRO117      0.0282
    154  CG        38.2060    5.0640   18.7980 C.3   117  PRO117      0.0208
    155  CD        38.1460    6.2230   19.7700 C.3   117  PRO117      0.0893
    156  N         35.0670    3.1070   19.7350 N.am  118  ASN118     -0.1961
    157  CA        34.9200    1.8530   20.4550 C.3   118  ASN118      0.1819
    158  C         34.9850    0.6570   19.5040 C.2   118  ASN118      0.2621
    159  O         34.9150    0.8170   18.2880 O.2   118  ASN118     -0.2715
    160  CB        33.6470    1.8450   21.3110 C.3   118  ASN118      0.1195
    161  CG        32.3720    1.9660   20.4880 C.2   118  ASN118      0.2630
    162  OD1       32.3840    1.8490   19.2630 O.2   118  ASN118     -0.2716
    163  ND2       31.2580    2.1910   21.1720 N.am  118  ASN118     -0.0877
    164  N         35.1290   -0.5380   20.0630 N.am  119  THR119     -0.1951
    165  CA        35.3600   -1.7390   19.2620 C.3   119  THR119      0.1897
    166  C         34.2750   -2.1040   18.2410 C.2   119  THR119      0.2313
    167  O         34.5860   -2.6780   17.2000 O.2   119  THR119     -0.2863
    168  CB        35.6490   -2.9530   20.1600 C.3   119  THR119      0.1794
    169  OG1       34.6460   -3.0380   21.1800 O.3   119  THR119     -0.2208
    170  CG2       37.0100   -2.8010   20.8160 C.3   119  THR119      0.0378
    171  N         34.7040    8.5200   26.9720 N.3   166  ALA166     -0.1245
    172  CA        35.5660    7.3550   27.0720 C.3   166  ALA166      0.1562
    173  C         35.0160    6.3550   28.0880 C.2   166  ALA166      0.2260
    174  O         35.0390    5.1450   27.8600 O.2   166  ALA166     -0.2867
    175  CB        36.9760    7.7790   27.4520 C.3   166  ALA166      0.0290
    176  N         33.3510    4.4750   25.2240 N.3   170  GLY170     -0.1225
    177  CA        34.6720    3.9100   25.0300 C.3   170  GLY170      0.1811
    178  C         34.7760    2.5600   25.7120 C.2   170  GLY170      0.2280
    179  O         35.0970    1.5570   25.0810 O.2   170  GLY170     -0.2866
@<TRIPOS>BOND
     1    71    70    2
     2    70    69    1
     3    68    69    1
     4    69    72    1
     5     8     6    1
     6    62    61    2
     7    32    31    2
     8    72    73    1
     9     1     2    1
    10    61    60    1
    11    34    35    1
    12     6     5    1
    13   123   122    2
    14    74    73    2
    15     2     5    1
    16     2     3    1
    17    31    30    1
    18    37    36    2
    19    73    75   am
    20     5     7    1
    21    12    11    2
    22    35    38    1
    23    35    36    1
    24    60    59    1
    25    60    63    1
    26   128   126   ar
    27   122   121    1
    28    38    39    1
    29    33    30    1
    30    14    13    1
    31    14    15    1
    32    30    29    1
    33    56    55    2
    34    36    42   am
    35     9     3   am
    36     9    10    1
    37     3     4    2
    38   125   126    1
    39   125   124    1
    40    11    13   am
    41    11    10    1
    42    55    54    1
    43   126   127   ar
    44    16    15    2
    45    63    64    1
    46    15    17   am
    47   121   124    1
    48   121   120    1
    49    45    44    2
    50    39    41   am
    51    39    40    2
    52    42    43    1
    53   116   115    2
    54    44    43    1
    55    44    53   am
    56    54    53    1
    57    54    57    1
    58    80    77    1
    59    43    46    1
    60    20    19    2
    61   167   166    2
    62   136   134    1
    63    17    18    1
    64    76    77    1
    65    64    65    1
    66   135   134    1
    67   118   117    1
    68    24    23    2
    69   134   133    1
    70   115   114    1
    71    77    78    1
    72   153   154    1
    73   153   150    1
    74    19    18    1
    75    19    21   am
    76    58    57    1
    77   166   165    1
    78   159   158    2
    79    65    66    1
    80    46    47    1
    81    23    22    1
    82   114   117    1
    83   114   113    1
    84   117   119    1
    85   154   155    1
    86    78    79    2
    87    78    81   am
    88    86    85    1
    89    22    21    1
    90    22    25    1
    91   165   164    1
    92   165   168    1
    93   162   161    2
    94   150   149    1
    95   150   151    1
    96   133   130    1
    97   129   130    1
    98   158   164   am
    99   158   157    1
   100    47    48    1
   101    81    82    1
   102   156   151   am
   103   156   157    1
   104   155   149    1
   105    66    67    1
   106   130   131    1
   107   168   170    1
   108   168   169    1
   109   151   152    2
   110   157   160    1
   111   161   163   am
   112   161   160    1
   113    27    26    2
   114    85    82    1
   115    85    87    1
   116    25    26    1
   117    82    83    1
   118    48    49    1
   119    26    28   am
   120   131   137   am
   121   131   132    2
   122    49    50    2
   123   107   106    2
   124   137   138    1
   125    83    84    2
   126    83    88   am
   127    50    51    1
   128    50    52    1
   129   106   105    1
   130    88    89    1
   131   111   110    2
   132   138   141    1
   133   138   139    1
   134   108   105    1
   135   108   109    1
   136   110   109    1
   137   110   112   am
   138    91    90    2
   139   105   104    1
   140   140   139    2
   141   139   142   am
   142    89    90    1
   143    89    92    1
   144    90    97   am
   145   177   176    1
   146   177   178    1
   147   179   178    2
   148    93    92    1
   149    93    94    1
   150   142   143    1
   151    97    98    1
   152    97   103    1
   153    94    95    1
   154    95    96    1
   155    98    99    1
   156    98   101    1
   157   100    99    2
   158   103   102    1
   159   148   146    1
   160   143   146    1
   161   143   144    1
   162   171   172    1
   163   172   175    1
   164   172   173    1
   165   102   101    1
   166   146   147    1
   167   144   145    2
   168   174   173    2
