@<TRIPOS>MOLECULE
tmp/3trqA00.pdb
 75 71 0 0 0
SMALL
GASTEIGER

@<TRIPOS>ATOM
      1  N         20.0550   86.3010  112.4050 N.3   247  ASP247     -0.1225
      2  CA        18.9540   85.7620  113.1990 C.3   247  ASP247      0.1805
      3  C         17.8960   85.0640  112.3480 C.2   247  ASP247      0.2598
      4  O         16.7010   85.1860  112.6130 O.2   247  ASP247     -0.2718
      5  CB        18.3010   86.8610  114.0380 C.3   247  ASP247      0.1424
      6  CG        19.1840   87.3230  115.1780 C.2   247  ASP247      0.3668
      7  OD1       20.0240   86.5220  115.6430 O.co2 247  ASP247     -0.2456
      8  OD2       19.0350   88.4850  115.6120 O.co2 247  ASP247     -0.2456
      9  N         18.3370   84.3420  111.3230 N.am  248  GLY248     -0.1942
     10  CA        17.4450   83.4820  110.5630 C.3   248  GLY248      0.2014
     11  C         16.8400   84.0970  109.3150 C.2   248  GLY248      0.2638
     12  O         16.0310   83.4660  108.6350 O.2   248  GLY248     -0.2714
     13  N         17.2200   85.3310  109.0150 N.am  249  ILE249     -0.1977
     14  CA        16.7420   85.9930  107.8070 C.3   249  ILE249      0.1596
     15  C         17.8570   86.7600  107.1230 C.2   249  ILE249      0.2287
     16  O         18.8930   87.0410  107.7230 O.2   249  ILE249     -0.2864
     17  CB        15.6240   87.0020  108.1120 C.3   249  ILE249      0.0276
     18  CG1       16.1520   88.1100  109.0270 C.3   249  ILE249      0.0022
     19  CG2       14.4150   86.3040  108.7240 C.3   249  ILE249      0.0022
     20  CD1       15.1390   89.1860  109.3290 C.3   249  ILE249      0.0001
     21  N         13.3190   84.3110  104.7230 N.3   316  ASN316     -0.1240
     22  CA        13.5080   83.3340  105.7900 C.3   316  ASN316      0.1653
     23  C         14.4100   82.2080  105.2830 C.2   316  ASN316      0.2266
     24  O         14.0620   81.5090  104.3330 O.2   316  ASN316     -0.2867
     25  CB        12.1370   82.7870  106.2200 C.3   316  ASN316      0.1155
     26  CG        12.2130   81.8610  107.4230 C.2   316  ASN316      0.2627
     27  OD1       13.1570   81.0850  107.5680 O.2   316  ASN316     -0.2716
     28  ND2       11.2040   81.9390  108.2940 N.am  316  ASN316     -0.0877
     29  N         15.2180   79.3940  106.5070 N.3   318  THR318     -0.1203
     30  CA        14.7970   78.0310  106.8070 C.3   318  THR318      0.1994
     31  C         13.9620   77.4240  105.6810 C.2   318  THR318      0.2617
     32  O         14.1470   76.2600  105.3210 O.2   318  THR318     -0.2717
     33  CB        13.9950   77.9620  108.1260 C.3   318  THR318      0.1784
     34  OG1       14.7410   78.5980  109.1710 O.3   318  THR318     -0.2211
     35  CG2       13.7190   76.5170  108.5090 C.3   318  THR318      0.0376
     36  N         13.0560   78.2180  105.1180 N.am  319  ASP319     -0.1973
     37  CA        12.0910   77.7070  104.1460 C.3   319  ASP319      0.1709
     38  C         11.9660   78.5670  102.8910 C.2   319  ASP319      0.2293
     39  O         11.1520   78.2800  102.0150 O.2   319  ASP319     -0.2864
     40  CB        10.7190   77.5510  104.8050 C.3   319  ASP319      0.1436
     41  CG        10.1500   78.8720  105.2960 C.2   319  ASP319      0.3671
     42  OD1       10.8660   79.8960  105.2560 O.co2 319  ASP319     -0.2456
     43  OD2        8.9810   78.8820  105.7340 O.co2 319  ASP319     -0.2456
     44  N          6.6840   91.8360  112.1990 N.3   350  GLU350     -0.1231
     45  CA         6.6980   90.4910  111.6330 C.3   350  GLU350      0.1699
     46  C          7.9930   89.7420  111.9460 C.2   350  GLU350      0.2592
     47  O          8.4810   88.9620  111.1290 O.2   350  GLU350     -0.2718
     48  CB         6.4690   90.5420  110.1200 C.3   350  GLU350      0.0402
     49  CG         5.1570   91.2560  109.7050 C.3   350  GLU350      0.1161
     50  CD         4.8860   91.4130  108.2390 C.2   350  GLU350      0.3649
     51  OE1        5.6690   91.1740  107.3620 O.co2 350  GLU350     -0.2457
     52  OE2        3.7450   91.8270  107.9650 O.co2 350  GLU350     -0.2457
     53  N          8.5420   89.9800  113.1330 N.am  351  ILE351     -0.1966
     54  CA         9.7590   89.3000  113.5620 C.3   351  ILE351      0.1727
     55  C          9.7330   89.0170  115.0610 C.2   351  ILE351      0.2616
     56  O          9.7220   89.9380  115.8770 O.2   351  ILE351     -0.2715
     57  CB        11.0180   90.1180  113.2200 C.3   351  ILE351      0.0290
     58  CG1       11.2090   90.1920  111.6990 C.3   351  ILE351      0.0022
     59  CG2       12.2550   89.5350  113.8860 C.3   351  ILE351      0.0023
     60  CD1       11.3820   88.8470  111.0170 C.3   351  ILE351      0.0001
     61  N          9.7220   87.7350  115.4150 N.am  352  ASN352     -0.1958
     62  CA         9.6830   87.3250  116.8130 C.3   352  ASN352      0.1819
     63  C         11.0010   86.7100  117.2760 C.2   352  ASN352      0.2621
     64  O         11.0160   85.8260  118.1320 O.2   352  ASN352     -0.2715
     65  CB         8.5340   86.3430  117.0510 C.3   352  ASN352      0.1195
     66  CG         7.2250   86.9270  116.6810 C.2   352  ASN352      0.2630
     67  OD1        6.8740   87.9880  117.1530 O.2   352  ASN352     -0.2716
     68  ND2        6.4750   86.2800  115.8480 N.am  352  ASN352     -0.0877
     69  N         12.1040   87.1830  116.7040 N.am  353  THR353     -0.1951
     70  CA        13.4270   86.6850  117.0610 C.3   353  THR353      0.1897
     71  C         13.9210   87.3090  118.3630 C.2   353  THR353      0.2313
     72  O         14.1890   88.5090  118.4260 O.2   353  THR353     -0.2863
     73  CB        14.4560   86.9620  115.9470 C.3   353  THR353      0.1794
     74  OG1       14.5300   88.3650  115.7460 O.3   353  THR353     -0.2208
     75  CG2       14.0990   86.2550  114.6540 C.3   353  THR353      0.0378
@<TRIPOS>BOND
     1    39    38    2
     2    38    37    1
     3    37    40    1
     4    37    36    1
     5    24    23    2
     6    21    22    1
     7    40    41    1
     8    36    31   am
     9    42    41   ar
    10    23    22    1
    11    41    43   ar
    12    32    31    2
    13    31    30    1
    14    22    25    1
    15    25    26    1
    16    29    30    1
    17    30    33    1
    18    15    16    2
    19    15    14    1
    20    51    50   ar
    21    26    27    2
    22    26    28   am
    23    14    17    1
    24    14    13    1
    25    52    50   ar
    26    17    19    1
    27    17    18    1
    28    33    35    1
    29    33    34    1
    30    50    49    1
    31    12    11    2
    32    13    11   am
    33    18    20    1
    34    11    10    1
    35    49    48    1
    36    48    45    1
    37    10     9    1
    38    60    58    1
    39    47    46    2
    40     9     3   am
    41    45    46    1
    42    45    44    1
    43    58    57    1
    44    46    53   am
    45     3     4    2
    46     3     2    1
    47     1     2    1
    48    53    54    1
    49     2     5    1
    50    57    54    1
    51    57    59    1
    52    54    55    1
    53     5     6    1
    54    75    73    1
    55    55    61   am
    56    55    56    2
    57     6     8   ar
    58     6     7   ar
    59    61    62    1
    60    74    73    1
    61    68    66   am
    62    73    70    1
    63    66    65    1
    64    66    67    2
    65    69    70    1
    66    69    63   am
    67    62    65    1
    68    62    63    1
    69    70    71    1
    70    63    64    2
    71    71    72    2
