@<TRIPOS>MOLECULE
tmp/3trqA02.pdb
 112 108 0 0 0
SMALL
GASTEIGER

@<TRIPOS>ATOM
      1  N         26.5400   89.3530   96.8400 N.3   233  LEU233     -0.1245
      2  CA        26.6130   87.9130   96.6420 C.3   233  LEU233      0.1561
      3  C         27.4580   87.6390   95.4070 C.2   233  LEU233      0.2260
      4  O         27.1080   88.0500   94.3040 O.2   233  LEU233     -0.2867
      5  CB        25.2180   87.3120   96.4540 C.3   233  LEU233      0.0270
      6  CG        25.1620   85.7930   96.6130 C.3   233  LEU233      0.0019
      7  CD1       25.3210   85.4110   98.0740 C.3   233  LEU233      0.0001
      8  CD2       23.8690   85.2270   96.0400 C.3   233  LEU233      0.0001
      9  N         25.6200   83.5230  102.2530 N.3   242  TRP242     -0.1241
     10  CA        24.2500   83.1450  102.5690 C.3   242  TRP242      0.1605
     11  C         24.1240   82.4420  103.9180 C.2   242  TRP242      0.2264
     12  O         23.1390   82.6210  104.6300 O.2   242  TRP242     -0.2867
     13  CB        23.6210   82.2860  101.4740 C.3   242  TRP242      0.0550
     14  CG        22.1570   82.1080  101.7110 C.ar  242  TRP242      0.0003
     15  CD1       21.5400   81.0190  102.2510 C.ar  242  TRP242      0.0946
     16  CD2       21.1280   83.0710  101.4590 C.ar  242  TRP242      0.0152
     17  NE1       20.1800   81.2350  102.3310 N.ar  242  TRP242     -0.2442
     18  CE2       19.9050   82.4880  101.8530 C.ar  242  TRP242      0.0810
     19  CE3       21.1200   84.3640  100.9270 C.ar  242  TRP242      0.0012
     20  CZ2       18.6870   83.1570  101.7310 C.ar  242  TRP242      0.0191
     21  CZ3       19.9080   85.0270  100.8090 C.ar  242  TRP242      0.0001
     22  CH2       18.7110   84.4230  101.2080 C.ar  242  TRP242      0.0015
     23  N         17.4190   91.0090  101.3070 N.3   252  VAL252     -0.1245
     24  CA        17.9840   90.7360   99.9910 C.3   252  VAL252      0.1561
     25  C         17.5170   91.7920   99.0030 C.2   252  VAL252      0.2260
     26  O         16.3280   92.0890   98.9200 O.2   252  VAL252     -0.2867
     27  CB        17.5420   89.3490   99.4750 C.3   252  VAL252      0.0252
     28  CG1       18.0310   89.1190   98.0490 C.3   252  VAL252      0.0019
     29  CG2       18.0340   88.2430  100.4060 C.3   252  VAL252      0.0019
     30  N         17.7260   92.7860   94.8720 N.3   254  PHE254     -0.1241
     31  CA        18.1120   92.4540   93.5070 C.3   254  PHE254      0.1605
     32  C         18.2590   93.7340   92.7090 C.2   254  PHE254      0.2264
     33  O         17.3480   94.5690   92.6830 O.2   254  PHE254     -0.2867
     34  CB        17.0500   91.5820   92.8260 C.3   254  PHE254      0.0534
     35  CG        17.0120   90.1640   93.3140 C.ar  254  PHE254     -0.0203
     36  CD1       17.9250   89.2300   92.8440 C.ar  254  PHE254     -0.0042
     37  CD2       16.0420   89.7530   94.2150 C.ar  254  PHE254     -0.0042
     38  CE1       17.8840   87.9210   93.2770 C.ar  254  PHE254     -0.0003
     39  CE2       15.9970   88.4440   94.6570 C.ar  254  PHE254     -0.0003
     40  CZ        16.9220   87.5230   94.1850 C.ar  254  PHE254     -0.0000
     41  N         22.2050   91.1390   95.2910 N.3   287  ILE287     -0.1245
     42  CA        22.3830   90.1530   94.2380 C.3   287  ILE287      0.1561
     43  C         22.1410   90.8070   92.8950 C.2   287  ILE287      0.2260
     44  O         21.0780   91.3870   92.6650 O.2   287  ILE287     -0.2867
     45  CB        21.3850   88.9900   94.3720 C.3   287  ILE287      0.0252
     46  CG1       21.5300   88.3190   95.7380 C.3   287  ILE287      0.0019
     47  CG2       21.5690   87.9930   93.2230 C.3   287  ILE287      0.0019
     48  CD1       20.5290   87.2010   95.9830 C.3   287  ILE287      0.0001
     49  N         20.0690   80.7600   88.1950 N.3   295  LEU295     -0.1245
     50  CA        19.1800   80.8630   89.3500 C.3   295  LEU295      0.1561
     51  C         17.9880   81.7970   89.1320 C.2   295  LEU295      0.2260
     52  O         17.0540   81.8060   89.9310 O.2   295  LEU295     -0.2867
     53  CB        19.9630   81.3050   90.5960 C.3   295  LEU295      0.0270
     54  CG        20.8670   80.2190   91.1820 C.3   295  LEU295      0.0019
     55  CD1       21.7880   80.7620   92.2760 C.3   295  LEU295      0.0001
     56  CD2       20.0070   79.0790   91.7050 C.3   295  LEU295      0.0001
     57  N         14.5040   80.1880   89.0520 N.3   298  TYR298     -0.1227
     58  CA        14.1990   79.7340   90.4020 C.3   298  TYR298      0.1736
     59  C         13.7700   80.8920   91.3020 C.2   298  TYR298      0.2595
     60  O         12.7660   80.8000   92.0100 O.2   298  TYR298     -0.2718
     61  CB        15.4040   79.0120   91.0000 C.3   298  TYR298      0.0548
     62  CG        15.3120   78.7900   92.4920 C.ar  298  TYR298     -0.0200
     63  CD1       14.5490   77.7520   93.0180 C.ar  298  TYR298     -0.0009
     64  CD2       15.9940   79.6190   93.3770 C.ar  298  TYR298     -0.0009
     65  CE1       14.4670   77.5500   94.3840 C.ar  298  TYR298      0.0417
     66  CE2       15.9190   79.4230   94.7380 C.ar  298  TYR298      0.0417
     67  CZ        15.1560   78.3890   95.2370 C.ar  298  TYR298      0.1957
     68  OH        15.0860   78.2030   96.5990 O.3   298  TYR298     -0.2866
     69  N         14.5240   81.9860   91.2700 N.am  299  TRP299     -0.1976
     70  CA        14.1940   83.1340   92.1070 C.3   299  TRP299      0.1640
     71  C         12.8500   83.7390   91.7240 C.2   299  TRP299      0.2290
     72  O         12.0330   84.0610   92.5880 O.2   299  TRP299     -0.2864
     73  CB        15.2820   84.1950   92.0130 C.3   299  TRP299      0.0576
     74  CG        16.5240   83.8570   92.7600 C.ar  299  TRP299      0.0006
     75  CD1       16.6250   83.1250   93.9110 C.ar  299  TRP299      0.0946
     76  CD2       17.8580   84.2280   92.4000 C.ar  299  TRP299      0.0152
     77  NE1       17.9470   83.0270   94.2930 N.ar  299  TRP299     -0.2442
     78  CE2       18.7180   83.6940   93.3800 C.ar  299  TRP299      0.0810
     79  CE3       18.4070   84.9600   91.3400 C.ar  299  TRP299      0.0012
     80  CZ2       20.1000   83.8740   93.3330 C.ar  299  TRP299      0.0191
     81  CZ3       19.7820   85.1350   91.2990 C.ar  299  TRP299      0.0001
     82  CH2       20.6070   84.5960   92.2890 C.ar  299  TRP299      0.0015
     83  N         10.1490   83.4730   94.6790 N.3   303  PHE303     -0.1241
     84  CA         9.8600   84.7490   95.3240 C.3   303  PHE303      0.1605
     85  C          8.6800   85.4760   94.6750 C.2   303  PHE303      0.2264
     86  O          8.1930   86.4750   95.2020 O.2   303  PHE303     -0.2867
     87  CB        11.1020   85.6500   95.2890 C.3   303  PHE303      0.0534
     88  CG        12.2740   85.1130   96.0680 C.ar  303  PHE303     -0.0203
     89  CD1       12.0790   84.3680   97.2220 C.ar  303  PHE303     -0.0042
     90  CD2       13.5730   85.3510   95.6450 C.ar  303  PHE303     -0.0042
     91  CE1       13.1560   83.8740   97.9380 C.ar  303  PHE303     -0.0003
     92  CE2       14.6540   84.8590   96.3570 C.ar  303  PHE303     -0.0003
     93  CZ        14.4490   84.1200   97.5020 C.ar  303  PHE303     -0.0000
     94  N         14.0190   87.5040  103.4510 N.3   315  VAL315     -0.1245
     95  CA        13.9140   86.0780  103.1800 C.3   315  VAL315      0.1561
     96  C         14.2090   85.2560  104.4300 C.2   315  VAL315      0.2260
     97  O         15.2070   85.4830  105.1090 O.2   315  VAL315     -0.2867
     98  CB        14.8970   85.6490  102.0590 C.3   315  VAL315      0.0252
     99  CG1       14.7670   84.1630  101.7730 C.3   315  VAL315      0.0019
    100  CG2       14.6480   86.4610  100.7930 C.3   315  VAL315      0.0019
    101  N         15.5720   82.0400  105.9080 N.3   317  VAL317     -0.1245
    102  CA        16.5670   81.0910  105.4090 C.3   317  VAL317      0.1561
    103  C         16.1800   79.6310  105.6250 C.2   317  VAL317      0.2260
    104  O         16.7450   78.7320  104.9990 O.2   317  VAL317     -0.2867
    105  CB        17.9640   81.3430  106.0150 C.3   317  VAL317      0.0252
    106  CG1       18.4470   82.7380  105.6740 C.3   317  VAL317      0.0019
    107  CG2       17.9400   81.1250  107.5210 C.3   317  VAL317      0.0019
    108  N         12.7700   79.6220  102.8150 N.3   320  ALA320     -0.1245
    109  CA        12.7550   80.5280  101.6710 C.3   320  ALA320      0.1562
    110  C         11.4590   81.3300  101.5580 C.2   320  ALA320      0.2260
    111  O         11.1950   81.9510  100.5300 O.2   320  ALA320     -0.2867
    112  CB        13.0370   79.7690  100.3720 C.3   320  ALA320      0.0290
@<TRIPOS>BOND
     1    49    50    1
     2    57    58    1
     3    51    50    1
     4    51    52    2
     5    50    53    1
     6    58    61    1
     7    58    59    1
     8    53    54    1
     9    61    62    1
    10    54    56    1
    11    54    55    1
    12    69    59   am
    13    69    70    1
    14    81    79   ar
    15    81    82   ar
    16    59    60    2
    17    79    76   ar
    18    71    70    1
    19    71    72    2
    20    73    70    1
    21    73    74    1
    22    82    80   ar
    23    76    74   ar
    24    76    78   ar
    25    62    63   ar
    26    62    64   ar
    27    44    43    2
    28    33    32    2
    29    32    31    1
    30    74    75   ar
    31    34    35    1
    32    34    31    1
    33    36    38   ar
    34    36    35   ar
    35    43    42    1
    36    63    65   ar
    37    47    45    1
    38    38    40   ar
    39    35    37   ar
    40    80    78   ar
    41    64    66   ar
    42    78    77   ar
    43    31    30    1
    44    75    77   ar
    45    40    39   ar
    46    37    39   ar
    47    42    45    1
    48    42    41    1
    49     4     3    2
    50    45    46    1
    51    65    67   ar
    52    85    86    2
    53    85    84    1
    54    83    84    1
    55    66    67   ar
    56    67    68    1
    57    87    84    1
    58    87    88    1
    59     3     2    1
    60    90    88   ar
    61    90    92   ar
    62    46    48    1
    63     8     6    1
    64    88    89   ar
    65    92    93   ar
    66     5     6    1
    67     5     2    1
    68     6     7    1
    69     2     1    1
    70    89    91   ar
    71    93    91   ar
    72    28    27    1
    73    26    25    2
    74    25    24    1
    75    27    24    1
    76    27    29    1
    77    24    23    1
    78   112   109    1
    79   111   110    2
    80   100    98    1
    81    21    19   ar
    82    21    22   ar
    83    19    16   ar
    84    22    20   ar
    85    16    14   ar
    86    16    18   ar
    87    13    14    1
    88    13    10    1
    89   110   109    1
    90   109   108    1
    91    14    15   ar
    92    20    18   ar
    93    99    98    1
    94    18    17   ar
    95    98    95    1
    96    15    17   ar
    97     9    10    1
    98    10    11    1
    99    95    94    1
   100    95    96    1
   101    11    12    2
   102    96    97    2
   103   104   103    2
   104   102   103    1
   105   102   101    1
   106   102   105    1
   107   106   105    1
   108   105   107    1
