@<TRIPOS>MOLECULE
tmp/3trqA01.pdb
 81 73 0 0 0
SMALL
GASTEIGER

@<TRIPOS>ATOM
      1  N         18.0350   90.3430  104.5690 N.3   251  ILE251     -0.1245
      2  CA        17.4760   91.3620  103.7000 C.3   251  ILE251      0.1561
      3  C         18.1890   91.2130  102.3660 C.2   251  ILE251      0.2260
      4  O         19.4170   91.2520  102.3050 O.2   251  ILE251     -0.2867
      5  CB        17.7050   92.7710  104.2550 C.3   251  ILE251      0.0252
      6  CG1       17.0660   92.8950  105.6380 C.3   251  ILE251      0.0019
      7  CG2       17.1490   93.8260  103.2970 C.3   251  ILE251      0.0019
      8  CD1       17.3180   94.2250  106.3040 C.3   251  ILE251      0.0001
      9  N         21.5510  103.8360  101.9790 N.3   272  VAL272     -0.1245
     10  CA        20.9780  103.1880  103.1500 C.3   272  VAL272      0.1561
     11  C         22.0800  102.5720  103.9960 C.2   272  VAL272      0.2260
     12  O         22.0760  102.6850  105.2240 O.2   272  VAL272     -0.2867
     13  CB        19.9700  102.0930  102.7620 C.3   272  VAL272      0.0252
     14  CG1       19.5540  101.2900  103.9910 C.3   272  VAL272      0.0019
     15  CG2       18.7580  102.7100  102.0800 C.3   272  VAL272      0.0019
     16  N         23.4520  103.6500  107.9540 N.3   276  ASN276     -0.1240
     17  CA        23.2460  102.6590  109.0080 C.3   276  ASN276      0.1653
     18  C         24.4970  101.8390  109.2960 C.2   276  ASN276      0.2266
     19  O         24.4200  100.7570  109.8750 O.2   276  ASN276     -0.2867
     20  CB        22.1070  101.7080  108.6280 C.3   276  ASN276      0.1155
     21  CG        20.7540  102.3850  108.6270 C.2   276  ASN276      0.2627
     22  OD1       20.1200  102.5270  109.6710 O.2   276  ASN276     -0.2716
     23  ND2       20.2960  102.7990  107.4490 N.am  276  ASN276     -0.0877
     24  N         25.2590  100.1730  112.6660 N.3   279  ASN279     -0.1240
     25  CA        24.2310   99.2820  113.1880 C.3   279  ASN279      0.1653
     26  C         24.5990   97.8330  112.9010 C.2   279  ASN279      0.2266
     27  O         24.3840   97.3480  111.7910 O.2   279  ASN279     -0.2867
     28  CB        22.8800   99.6140  112.5500 C.3   279  ASN279      0.1155
     29  CG        21.7440   98.7790  113.1130 C.2   279  ASN279      0.2627
     30  OD1       21.9620   97.7090  113.6830 O.2   279  ASN279     -0.2716
     31  ND2       20.5200   99.2640  112.9480 N.am  279  ASN279     -0.0877
     32  N         23.2850   95.1910  113.5420 N.3   281  ASP281     -0.1225
     33  CA        22.1470   94.3140  113.2850 C.3   281  ASP281      0.1805
     34  C         21.6910   94.3620  111.8300 C.2   281  ASP281      0.2597
     35  O         20.8100   93.6040  111.4260 O.2   281  ASP281     -0.2718
     36  CB        20.9790   94.6600  114.2100 C.3   281  ASP281      0.1424
     37  CG        21.2870   94.3770  115.6690 C.2   281  ASP281      0.3668
     38  OD1       22.1890   93.5530  115.9420 O.co2 281  ASP281     -0.2456
     39  OD2       20.6210   94.9750  116.5430 O.co2 281  ASP281     -0.2456
     40  N         22.2930   95.2480  111.0430 N.am  282  LEU282     -0.1979
     41  CA        21.9000   95.3990  109.6450 C.3   282  LEU282      0.1596
     42  C         22.9340   94.8680  108.6580 C.2   282  LEU282      0.2287
     43  O         24.0780   95.3220  108.6290 O.2   282  LEU282     -0.2864
     44  CB        21.5970   96.8640  109.3250 C.3   282  LEU282      0.0297
     45  CG        21.1920   97.1230  107.8740 C.3   282  LEU282      0.0022
     46  CD1       19.8460   96.4660  107.5600 C.3   282  LEU282      0.0001
     47  CD2       21.1420   98.6130  107.5840 C.3   282  LEU282      0.0001
     48  N         14.1690  102.3670  104.2610 N.3   340  GLU340     -0.1245
     49  CA        14.4240  102.1030  105.6710 C.3   340  GLU340      0.1567
     50  C         13.1110  101.9570  106.4240 C.2   340  GLU340      0.2260
     51  O         12.9650  101.0870  107.2830 O.2   340  GLU340     -0.2867
     52  CB        15.2880  103.2040  106.2810 C.3   340  GLU340      0.0388
     53  CG        16.6520  103.3080  105.6190 C.3   340  GLU340      0.1160
     54  CD        17.5710  104.2860  106.3110 C.2   340  GLU340      0.3649
     55  OE1       17.5560  104.3400  107.5590 O.co2 340  GLU340     -0.2457
     56  OE2       18.3140  104.9960  105.6030 O.co2 340  GLU340     -0.2457
     57  N         11.6160   98.5320  105.6700 N.3   343  LEU343     -0.1231
     58  CA        12.3160   97.4860  106.4030 C.3   343  LEU343      0.1693
     59  C         11.9170   97.4890  107.8760 C.2   343  LEU343      0.2591
     60  O         11.7200   96.4340  108.4680 O.2   343  LEU343     -0.2718
     61  CB        13.8310   97.6280  106.2440 C.3   343  LEU343      0.0284
     62  CG        14.3550   97.3400  104.8330 C.3   343  LEU343      0.0019
     63  CD1       15.8360   97.6740  104.7400 C.3   343  LEU343      0.0001
     64  CD2       14.1020   95.8890  104.4460 C.3   343  LEU343      0.0001
     65  N         11.7880   98.6780  108.4590 N.am  344  GLU344     -0.1979
     66  CA        11.3520   98.7930  109.8500 C.3   344  GLU344      0.1602
     67  C          9.9690   98.1720  110.0410 C.2   344  GLU344      0.2287
     68  O          9.7510   97.4010  110.9760 O.2   344  GLU344     -0.2864
     69  CB        11.3380  100.2560  110.3030 C.3   344  GLU344      0.0415
     70  CG        12.7200  100.8750  110.4590 C.3   344  GLU344      0.1163
     71  CD        12.6640  102.3090  110.9580 C.2   344  GLU344      0.3649
     72  OE1       11.5550  102.7920  111.2720 O.co2 344  GLU344     -0.2457
     73  OE2       13.7320  102.9520  111.0370 O.co2 344  GLU344     -0.2457
     74  N         10.2530   94.2880  109.7030 N.3   347  LEU347     -0.1245
     75  CA        11.0990   93.6150  110.6840 C.3   347  LEU347      0.1561
     76  C         10.6470   93.8400  112.1250 C.2   347  LEU347      0.2260
     77  O         11.0750   93.1270  113.0330 O.2   347  LEU347     -0.2867
     78  CB        12.5570   94.0470  110.5130 C.3   347  LEU347      0.0270
     79  CG        13.2020   93.6590  109.1800 C.3   347  LEU347      0.0019
     80  CD1       14.6330   94.1620  109.1030 C.3   347  LEU347      0.0001
     81  CD2       13.1520   92.1560  108.9940 C.3   347  LEU347      0.0001
@<TRIPOS>BOND
     1     9    10    1
     2    15    13    1
     3     4     3    2
     4     3     2    1
     5    13    10    1
     6    13    14    1
     7    10    11    1
     8     7     5    1
     9     2     5    1
    10     2     1    1
    11    11    12    2
    12     5     6    1
    13    48    49    1
    14    64    62    1
    15    63    62    1
    16    62    61    1
    17    56    54   ar
    18    53    52    1
    19    53    54    1
    20     6     8    1
    21    57    58    1
    22    49    52    1
    23    49    50    1
    24    61    58    1
    25    54    55   ar
    26    58    59    1
    27    50    51    2
    28    23    21   am
    29    46    45    1
    30    47    45    1
    31    45    44    1
    32    59    65   am
    33    59    60    2
    34    16    17    1
    35    65    66    1
    36    21    20    1
    37    21    22    2
    38    20    17    1
    39    43    42    2
    40    42    41    1
    41    81    79    1
    42    17    18    1
    43    80    79    1
    44    79    78    1
    45    18    19    2
    46    44    41    1
    47    41    40    1
    48    74    75    1
    49    66    67    1
    50    66    69    1
    51    67    68    2
    52    69    70    1
    53    70    71    1
    54    78    75    1
    55    75    76    1
    56    71    73   ar
    57    71    72   ar
    58    40    34   am
    59    35    34    2
    60    27    26    2
    61    34    33    1
    62    76    77    2
    63    28    29    1
    64    28    25    1
    65    24    25    1
    66    26    25    1
    67    31    29   am
    68    29    30    2
    69    33    32    1
    70    33    36    1
    71    36    37    1
    72    37    38   ar
    73    37    39   ar
