@<TRIPOS>MOLECULE
tmp/3trqA04.pdb
 90 84 0 0 0
SMALL
GASTEIGER

@<TRIPOS>ATOM
      1  N         17.2200   85.3310  109.0150 N.3   249  ILE249     -0.1245
      2  CA        16.7420   85.9930  107.8070 C.3   249  ILE249      0.1561
      3  C         17.8570   86.7600  107.1230 C.2   249  ILE249      0.2260
      4  O         18.8930   87.0410  107.7230 O.2   249  ILE249     -0.2867
      5  CB        15.6240   87.0020  108.1120 C.3   249  ILE249      0.0252
      6  CG1       16.1520   88.1100  109.0270 C.3   249  ILE249      0.0019
      7  CG2       14.4150   86.3040  108.7240 C.3   249  ILE249      0.0019
      8  CD1       15.1390   89.1860  109.3290 C.3   249  ILE249      0.0001
      9  N         12.7210   90.5410  102.3900 N.3   314  VAL314     -0.1231
     10  CA        13.2680   89.8070  103.5160 C.3   314  VAL314      0.1692
     11  C         12.9860   88.3280  103.2990 C.2   314  VAL314      0.2592
     12  O         11.8590   87.9440  102.9820 O.2   314  VAL314     -0.2718
     13  CB        12.6500   90.2790  104.8440 C.3   314  VAL314      0.0266
     14  CG1       13.2340   89.4960  106.0020 C.3   314  VAL314      0.0020
     15  CG2       12.8900   91.7700  105.0380 C.3   314  VAL314      0.0020
     16  N         14.0190   87.5040  103.4510 N.am  315  VAL315     -0.1966
     17  CA        13.9140   86.0780  103.1800 C.3   315  VAL315      0.1727
     18  C         14.2090   85.2560  104.4300 C.2   315  VAL315      0.2616
     19  O         15.2070   85.4830  105.1090 O.2   315  VAL315     -0.2715
     20  CB        14.8970   85.6490  102.0590 C.3   315  VAL315      0.0290
     21  CG1       14.7670   84.1630  101.7730 C.3   315  VAL315      0.0023
     22  CG2       14.6480   86.4610  100.7930 C.3   315  VAL315      0.0023
     23  N         13.3190   84.3110  104.7230 N.am  316  ASN316     -0.1972
     24  CA        13.5080   83.3340  105.7900 C.3   316  ASN316      0.1688
     25  C         14.4100   82.2080  105.2830 C.2   316  ASN316      0.2292
     26  O         14.0620   81.5090  104.3330 O.2   316  ASN316     -0.2864
     27  CB        12.1370   82.7870  106.2200 C.3   316  ASN316      0.1181
     28  CG        12.2130   81.8610  107.4230 C.2   316  ASN316      0.2629
     29  OD1       13.1570   81.0850  107.5680 O.2   316  ASN316     -0.2716
     30  ND2       11.2040   81.9390  108.2940 N.am  316  ASN316     -0.0877
     31  N         10.6500   81.3180  102.6120 N.3   321  ASP321     -0.1225
     32  CA         9.4960   82.2050  102.6650 C.3   321  ASP321      0.1805
     33  C         10.0310   83.6300  102.6090 C.2   321  ASP321      0.2598
     34  O         11.1490   83.8900  103.0440 O.2   321  ASP321     -0.2718
     35  CB         8.6910   81.9860  103.9460 C.3   321  ASP321      0.1424
     36  CG         7.3280   82.6480  103.8960 C.2   321  ASP321      0.3668
     37  OD1        6.8820   83.0070  102.7850 O.co2 321  ASP321     -0.2456
     38  OD2        6.7020   82.8030  104.9640 O.co2 321  ASP321     -0.2456
     39  N          9.2480   84.5530  102.0680 N.am  322  SER322     -0.1938
     40  CA         9.7630   85.8950  101.8380 C.3   322  SER322      0.2055
     41  C          8.6660   86.9350  101.7170 C.2   322  SER322      0.2642
     42  O          7.4910   86.6080  101.5460 O.2   322  SER322     -0.2714
     43  CB        10.6220   85.9120  100.5690 C.3   322  SER322      0.2130
     44  OG         9.8270   85.6780   99.4130 O.3   322  SER322     -0.2179
     45  N          9.0670   88.1970  101.8050 N.am  323  VAL323     -0.1977
     46  CA         8.1680   89.3040  101.5230 C.3   323  VAL323      0.1596
     47  C          8.9430   90.3760  100.7670 C.2   323  VAL323      0.2287
     48  O         10.0980   90.6610  101.0900 O.2   323  VAL323     -0.2864
     49  CB         7.5580   89.8920  102.8110 C.3   323  VAL323      0.0276
     50  CG1        8.6450   90.4250  103.7230 C.3   323  VAL323      0.0022
     51  CG2        6.5590   90.9820  102.4690 C.3   323  VAL323      0.0022
     52  N          8.4500   95.8750  108.2540 N.3   346  VAL346     -0.1231
     53  CA         8.4610   94.4310  108.0750 C.3   346  VAL346      0.1692
     54  C          9.1520   93.7150  109.2290 C.2   346  VAL346      0.2591
     55  O          8.6880   92.6710  109.6870 O.2   346  VAL346     -0.2718
     56  CB         9.1540   94.0380  106.7530 C.3   346  VAL346      0.0266
     57  CG1        9.3970   92.5340  106.7060 C.3   346  VAL346      0.0020
     58  CG2        8.3150   94.4910  105.5710 C.3   346  VAL346      0.0020
     59  N         10.2530   94.2880  109.7030 N.am  347  LEU347     -0.1980
     60  CA        11.0990   93.6150  110.6840 C.3   347  LEU347      0.1596
     61  C         10.6470   93.8400  112.1250 C.2   347  LEU347      0.2287
     62  O         11.0750   93.1270  113.0330 O.2   347  LEU347     -0.2864
     63  CB        12.5570   94.0470  110.5130 C.3   347  LEU347      0.0297
     64  CG        13.2020   93.6590  109.1800 C.3   347  LEU347      0.0022
     65  CD1       14.6330   94.1620  109.1030 C.3   347  LEU347      0.0001
     66  CD2       13.1520   92.1560  108.9940 C.3   347  LEU347      0.0001
     67  N          6.6840   91.8360  112.1990 N.3   350  GLU350     -0.1231
     68  CA         6.6980   90.4910  111.6330 C.3   350  GLU350      0.1699
     69  C          7.9930   89.7420  111.9460 C.2   350  GLU350      0.2592
     70  O          8.4810   88.9620  111.1290 O.2   350  GLU350     -0.2718
     71  CB         6.4690   90.5420  110.1200 C.3   350  GLU350      0.0402
     72  CG         5.1570   91.2560  109.7050 C.3   350  GLU350      0.1161
     73  CD         4.8860   91.4130  108.2390 C.2   350  GLU350      0.3649
     74  OE1        5.6690   91.1740  107.3620 O.co2 350  GLU350     -0.2457
     75  OE2        3.7450   91.8270  107.9650 O.co2 350  GLU350     -0.2457
     76  N          8.5420   89.9800  113.1330 N.am  351  ILE351     -0.1980
     77  CA         9.7590   89.3000  113.5620 C.3   351  ILE351      0.1595
     78  C          9.7330   89.0170  115.0610 C.2   351  ILE351      0.2287
     79  O          9.7220   89.9380  115.8770 O.2   351  ILE351     -0.2864
     80  CB        11.0180   90.1180  113.2200 C.3   351  ILE351      0.0276
     81  CG1       11.2090   90.1920  111.6990 C.3   351  ILE351      0.0022
     82  CG2       12.2550   89.5350  113.8860 C.3   351  ILE351      0.0022
     83  CD1       11.3820   88.8470  111.0170 C.3   351  ILE351      0.0001
     84  N         12.1040   87.1830  116.7040 N.3   353  THR353     -0.1218
     85  CA        13.4270   86.6850  117.0610 C.3   353  THR353      0.1862
     86  C         13.9210   87.3090  118.3630 C.2   353  THR353      0.2287
     87  O         14.1890   88.5090  118.4260 O.2   353  THR353     -0.2866
     88  CB        14.4560   86.9620  115.9470 C.3   353  THR353      0.1770
     89  OG1       14.5300   88.3650  115.7460 O.3   353  THR353     -0.2211
     90  CG2       14.0990   86.2550  114.6540 C.3   353  THR353      0.0375
@<TRIPOS>BOND
     1    44    43    1
     2    43    40    1
     3    47    48    2
     4    47    46    1
     5    22    20    1
     6    46    45    1
     7    46    49    1
     8    42    41    2
     9    41    45   am
    10    41    40    1
    11    21    20    1
    12    40    39    1
    13    20    17    1
    14    39    33   am
    15     9    10    1
    16    51    49    1
    17    33    32    1
    18    33    34    2
    19    31    32    1
    20    32    35    1
    21    37    36   ar
    22    49    50    1
    23    12    11    2
    24    17    16    1
    25    17    18    1
    26    11    16   am
    27    11    10    1
    28    10    13    1
    29    36    35    1
    30    36    38   ar
    31    26    25    2
    32    18    23   am
    33    18    19    2
    34    23    24    1
    35    13    15    1
    36    13    14    1
    37    25    24    1
    38    58    56    1
    39    24    27    1
    40    27    28    1
    41    57    56    1
    42    56    53    1
    43     3     4    2
    44     3     2    1
    45    74    73   ar
    46    28    29    2
    47    28    30   am
    48     2     5    1
    49     2     1    1
    50    75    73   ar
    51    53    52    1
    52    53    54    1
    53     5     7    1
    54     5     6    1
    55    73    72    1
    56    66    64    1
    57     6     8    1
    58    65    64    1
    59    64    63    1
    60    54    55    2
    61    54    59   am
    62    59    60    1
    63    72    71    1
    64    71    68    1
    65    63    60    1
    66    60    61    1
    67    83    81    1
    68    70    69    2
    69    68    69    1
    70    68    67    1
    71    81    80    1
    72    69    76   am
    73    61    62    2
    74    76    77    1
    75    80    77    1
    76    80    82    1
    77    77    78    1
    78    90    88    1
    79    78    79    2
    80    89    88    1
    81    88    85    1
    82    84    85    1
    83    85    86    1
    84    86    87    2
