@<TRIPOS>MOLECULE
tmp/3ts4A00.pdb
 205 204 0 0 0
SMALL
GASTEIGER

@<TRIPOS>ATOM
      1  N         18.9280   28.8530    4.4260 N.3    71  ASP71      -0.1239
      2  CA        19.1720   30.2480    4.7810 C.3    71  ASP71       0.1674
      3  C         19.3190   30.4870    6.2750 C.2    71  ASP71       0.2266
      4  O         19.1080   31.6130    6.7370 O.2    71  ASP71      -0.2867
      5  CB        18.0240   31.1190    4.2460 C.3    71  ASP71       0.1410
      6  CG        16.6770   30.6910    4.7840 C.2    71  ASP71       0.3668
      7  OD1       15.6810   31.4310    4.6340 O.co2  71  ASP71      -0.2456
      8  OD2       16.6220   29.5980    5.3700 O.co2  71  ASP71      -0.2456
      9  N         12.9100   31.6990    7.9870 N.3    75  GLY75      -0.1210
     10  CA        12.7680   31.7280    6.5400 C.3    75  GLY75       0.1956
     11  C         12.4250   30.3680    5.9630 C.2    75  GLY75       0.2612
     12  O         11.4430   29.7370    6.3740 O.2    75  GLY75      -0.2717
     13  N         13.2360   29.9120    5.0130 N.am   76  ILE76      -0.1965
     14  CA        12.9940   28.6250    4.3550 C.3    76  ILE76       0.1727
     15  C         13.0750   27.4820    5.3660 C.2    76  ILE76       0.2616
     16  O         14.0110   27.3990    6.1420 O.2    76  ILE76      -0.2715
     17  CB        14.0220   28.3530    3.2430 C.3    76  ILE76       0.0290
     18  CG1       14.0000   29.4520    2.1810 C.3    76  ILE76       0.0022
     19  CG2       13.7610   26.9670    2.6280 C.3    76  ILE76       0.0023
     20  CD1       15.2480   29.4890    1.3050 C.3    76  ILE76       0.0001
     21  N         12.1030   26.5820    5.3520 N.am   77  LEU77      -0.1963
     22  CA        12.1330   25.4550    6.2740 C.3    77  LEU77       0.1728
     23  C         12.5870   24.1690    5.5930 C.2    77  LEU77       0.2616
     24  O         13.2900   23.3730    6.1850 O.2    77  LEU77      -0.2715
     25  CB        10.7500   25.2170    6.8710 C.3    77  LEU77       0.0311
     26  CG        10.1100   26.3800    7.6280 C.3    77  LEU77       0.0022
     27  CD1        8.7430   25.9560    8.1230 C.3    77  LEU77       0.0001
     28  CD2       11.0070   26.8170    8.7760 C.3    77  LEU77       0.0001
     29  N         12.1900   23.9960    4.3390 N.am   78  ALA78      -0.1963
     30  CA        12.3770   22.7300    3.6490 C.3    78  ALA78       0.1728
     31  C         11.9960   22.9210    2.1940 C.2    78  ALA78       0.2616
     32  O         11.3920   23.9150    1.8320 O.2    78  ALA78      -0.2715
     33  CB        11.5210   21.6470    4.2760 C.3    78  ALA78       0.0334
     34  N         12.3450   21.9590    1.3610 N.am   79  HIS79      -0.1959
     35  CA        11.8970   21.9790   -0.0200 C.3    79  HIS79       0.1787
     36  C         12.0110   20.5910   -0.6130 C.2    79  HIS79       0.2620
     37  O         12.6710   19.7320   -0.0550 O.2    79  HIS79      -0.2715
     38  CB        12.6390   23.0300   -0.8760 C.3    79  HIS79       0.0785
     39  CG        14.1250   22.8600   -0.9300 C.ar   79  HIS79       0.0821
     40  ND1       14.9920   23.9220   -0.7730 N.ar   79  HIS79      -0.2267
     41  CD2       14.9000   21.7700   -1.1130 C.ar   79  HIS79       0.1154
     42  CE1       16.2350   23.4920   -0.8670 C.ar   79  HIS79       0.1986
     43  NE2       16.2090   22.1880   -1.0710 N.ar   79  HIS79      -0.2212
     44  N         11.3480   20.3700   -1.7410 N.am   80  ALA80      -0.1977
     45  CA        11.3170   19.0460   -2.3150 C.3    80  ALA80       0.1597
     46  C         11.2060   19.1550   -3.8240 C.2    80  ALA80       0.2287
     47  O         10.6160   20.0970   -4.3510 O.2    80  ALA80      -0.2864
     48  CB        10.1730   18.2420   -1.7500 C.3    80  ALA80       0.0319
     49  N          4.1720   17.6870   10.0790 N.3   110  LEU110     -0.1231
     50  CA         3.3920   18.5960    9.2350 C.3   110  LEU110      0.1693
     51  C          4.2250   19.0660    8.0570 C.2   110  LEU110      0.2592
     52  O          3.7580   19.0530    6.9020 O.2   110  LEU110     -0.2718
     53  CB         2.9000   19.8030   10.0480 C.3   110  LEU110      0.0284
     54  CG         1.8470   19.5040   11.1210 C.3   110  LEU110      0.0019
     55  CD1        1.6020   20.7650   11.9280 C.3   110  LEU110      0.0001
     56  CD2        0.5570   18.9890   10.4740 C.3   110  LEU110      0.0001
     57  N          5.4710   19.4400    8.3290 N.am  111  THR111     -0.1953
     58  CA         6.3890   19.8390    7.2580 C.3   111  THR111      0.1897
     59  C          6.6010   18.7180    6.2390 C.2   111  THR111      0.2313
     60  O          6.5920   18.9780    5.0270 O.2   111  THR111     -0.2863
     61  CB         7.7380   20.3130    7.8310 C.3   111  THR111      0.1794
     62  OG1        7.5050   21.4210    8.7170 O.3   111  THR111     -0.2208
     63  CG2        8.6370   20.7840    6.7250 C.3   111  THR111      0.0378
     64  N          3.6120   18.3650    3.8790 N.3   114  HIS114     -0.1226
     65  CA         3.7080   19.3780    2.8440 C.3   114  HIS114      0.1752
     66  C          4.7600   19.0250    1.7910 C.2   114  HIS114      0.2595
     67  O          4.4670   19.0500    0.5770 O.2   114  HIS114     -0.2718
     68  CB         4.0050   20.7340    3.4800 C.3   114  HIS114      0.0759
     69  CG         4.0970   21.8530    2.5010 C.ar  114  HIS114      0.0818
     70  ND1        3.0150   22.6510    2.1800 N.ar  114  HIS114     -0.2268
     71  CD2        5.1470   22.3350    1.7990 C.ar  114  HIS114      0.1154
     72  CE1        3.3950   23.5650    1.3080 C.ar  114  HIS114      0.1986
     73  NE2        4.6870   23.4070    1.0700 N.ar  114  HIS114     -0.2212
     74  N          5.9690   18.6720    2.2230 N.am  115  GLU115     -0.1979
     75  CA         7.0490   18.3770    1.2660 C.3   115  GLU115      0.1602
     76  C          6.7840   17.1240    0.4140 C.2   115  GLU115      0.2287
     77  O          7.0430   17.1130   -0.8060 O.2   115  GLU115     -0.2864
     78  CB         8.4140   18.2970    1.9710 C.3   115  GLU115      0.0415
     79  CG         8.8290   19.6280    2.6010 C.3   115  GLU115      0.1163
     80  CD         8.8630   20.7860    1.6160 C.2   115  GLU115      0.3649
     81  OE1        8.6640   21.9420    2.0520 O.co2 115  GLU115     -0.2457
     82  OE2        9.1120   20.5780    0.4070 O.co2 115  GLU115     -0.2457
     83  N          4.7720   17.8700   -2.5130 N.3   118  HIS118     -0.1241
     84  CA         5.6270   18.3020   -3.6270 C.3   118  HIS118      0.1621
     85  C          6.3490   17.1310   -4.2960 C.2   118  HIS118      0.2264
     86  O          6.4670   17.0590   -5.5290 O.2   118  HIS118     -0.2867
     87  CB         6.6780   19.3090   -3.1500 C.3   118  HIS118      0.0745
     88  CG         6.1170   20.6520   -2.8120 C.ar  118  HIS118      0.0817
     89  ND1        5.2360   21.3270   -3.6340 N.ar  118  HIS118     -0.2268
     90  CD2        6.3270   21.4540   -1.7450 C.ar  118  HIS118      0.1154
     91  CE1        4.9230   22.4820   -3.0800 C.ar  118  HIS118      0.1986
     92  NE2        5.5680   22.5820   -1.9280 N.ar  118  HIS118     -0.2212
     93  N          1.2940   24.5210   -4.9170 N.3   124  HIS124     -0.1241
     94  CA         0.6620   25.1360   -3.7630 C.3   124  HIS124      0.1621
     95  C         -0.8290   25.3630   -3.9240 C.2   124  HIS124      0.2264
     96  O         -1.3460   25.4410   -5.0420 O.2   124  HIS124     -0.2867
     97  CB         1.3400   26.4440   -3.3830 C.3   124  HIS124      0.0745
     98  CG         2.6450   26.2550   -2.6850 C.ar  124  HIS124      0.0817
     99  ND1        3.6740   27.1660   -2.7660 N.ar  124  HIS124     -0.2268
    100  CD2        3.0960   25.2420   -1.9100 C.ar  124  HIS124      0.1154
    101  CE1        4.6990   26.7320   -2.0540 C.ar  124  HIS124      0.1986
    102  NE2        4.3750   25.5630   -1.5330 N.ar  124  HIS124     -0.2212
    103  N         -6.0500   28.6100    2.5310 N.3   128  PRO128     -0.2102
    104  CA        -5.3600   28.7170    3.8230 C.3   128  PRO128      0.1504
    105  C         -5.5830   27.5000    4.7180 C.2   128  PRO128      0.2576
    106  O         -4.8270   27.2910    5.6630 O.2   128  PRO128     -0.2718
    107  CB        -6.0150   29.9460    4.4650 C.3   128  PRO128      0.0282
    108  CG        -6.5710   30.7170    3.3270 C.3   128  PRO128      0.0208
    109  CD        -6.9980   29.7200    2.3190 C.3   128  PRO128      0.0893
    110  N         -6.6160   26.7140    4.4320 N.am  129  LYS129     -0.1966
    111  CA        -6.9090   25.5170    5.2220 C.3   129  LYS129      0.1728
    112  C         -6.2610   24.2490    4.6510 C.2   129  LYS129      0.2616
    113  O         -6.3690   23.1710    5.2380 O.2   129  LYS129     -0.2715
    114  CB        -8.4270   25.3010    5.3410 C.3   129  LYS129      0.0311
    115  CG        -9.0990   26.0610    6.4830 C.3   129  LYS129      0.0038
    116  CD        -9.7500   27.3470    6.0020 C.3   129  LYS129      0.0206
    117  CE       -10.6170   27.9860    7.0900 C.3   129  LYS129      0.1093
    118  NZ        -9.8240   28.4050    8.2830 N.3   129  LYS129     -0.1314
    119  N         -5.6000   24.3790    3.5050 N.am  130  ALA130     -0.1963
    120  CA        -4.9900   23.2240    2.8410 C.3   130  ALA130      0.1728
    121  C         -3.5510   23.0610    3.3050 C.2   130  ALA130      0.2616
    122  O         -2.8520   24.0480    3.5220 O.2   130  ALA130     -0.2715
    123  CB        -5.0390   23.4100    1.3430 C.3   130  ALA130      0.0334
    124  N         -3.0980   21.8190    3.4810 N.am  131  VAL131     -0.1977
    125  CA        -1.7160   21.6230    3.9310 C.3   131  VAL131      0.1596
    126  C         -0.7160   22.0790    2.8540 C.2   131  VAL131      0.2287
    127  O          0.4480   22.3660    3.1530 O.2   131  VAL131     -0.2864
    128  CB        -1.4370   20.1590    4.3970 C.3   131  VAL131      0.0276
    129  CG1       -1.4110   19.2220    3.2180 C.3   131  VAL131      0.0022
    130  CG2       -0.1170   20.0690    5.1370 C.3   131  VAL131      0.0022
    131  N         -0.9190   24.8790    1.3720 N.3   133  PHE133     -0.1228
    132  CA        -0.8260   26.3360    1.4290 C.3   133  PHE133      0.1721
    133  C          0.6370   26.6580    1.7630 C.2   133  PHE133      0.2437
    134  O          1.2760   25.9160    2.5150 O.2   133  PHE133     -0.2733
    135  CB        -1.7810   26.8760    2.4980 C.3   133  PHE133      0.0547
    136  CG        -1.8090   28.3750    2.5930 C.ar  133  PHE133     -0.0202
    137  CD1       -2.5180   29.1230    1.6690 C.ar  133  PHE133     -0.0042
    138  CD2       -1.1370   29.0260    3.6170 C.ar  133  PHE133     -0.0042
    139  CE1       -2.5460   30.5070    1.7520 C.ar  133  PHE133     -0.0003
    140  CE2       -1.1600   30.4130    3.7130 C.ar  133  PHE133     -0.0003
    141  CZ        -1.8630   31.1480    2.7740 C.ar  133  PHE133     -0.0000
    142  N          1.1760   27.7530    1.1930 N.am  134  PRO134     -0.2718
    143  CA         2.6340   27.9420    1.1200 C.3   134  PRO134      0.1535
    144  C          3.4020   28.2500    2.3970 C.2   134  PRO134      0.2599
    145  O          4.6230   28.4030    2.3050 O.2   134  PRO134     -0.2715
    146  CB         2.8000   29.1290    0.1520 C.3   134  PRO134      0.0310
    147  CG         1.4880   29.2970   -0.5030 C.3   134  PRO134      0.0237
    148  CD         0.4570   28.8020    0.4570 C.3   134  PRO134      0.0939
    149  N          2.7480   28.3620    3.5480 N.am  135  THR135     -0.1937
    150  CA         3.4960   28.6550    4.7660 C.3   135  THR135      0.2028
    151  C          3.1250   27.8030    5.9740 C.2   135  THR135      0.2642
    152  O          1.9800   27.3870    6.1540 O.2   135  THR135     -0.2714
    153  CB         3.4250   30.1540    5.1800 C.3   135  THR135      0.1808
    154  OG1        4.5190   30.4550    6.0560 O.3   135  THR135     -0.2208
    155  CG2        2.1260   30.4460    5.9030 C.3   135  THR135      0.0379
    156  N          4.1270   27.5640    6.8030 N.am  136  TYR136     -0.1959
    157  CA         3.9880   26.7190    7.9620 C.3   136  TYR136      0.1771
    158  C          3.1010   27.3430    9.0290 C.2   136  TYR136      0.2619
    159  O          3.1210   28.5580    9.2630 O.2   136  TYR136     -0.2715
    160  CB         5.3650   26.4310    8.5590 C.3   136  TYR136      0.0574
    161  CG         5.3060   25.6770    9.8640 C.ar  136  TYR136     -0.0198
    162  CD1        5.3310   24.2910    9.8850 C.ar  136  TYR136     -0.0009
    163  CD2        5.2260   26.3470   11.0740 C.ar  136  TYR136     -0.0009
    164  CE1        5.2780   23.5910   11.0690 C.ar  136  TYR136      0.0417
    165  CE2        5.1670   25.6510   12.2690 C.ar  136  TYR136      0.0417
    166  CZ         5.1960   24.2720   12.2550 C.ar  136  TYR136      0.1957
    167  OH         5.1360   23.5590   13.4220 O.3   136  TYR136     -0.2866
    168  N          2.3870   26.4710    9.6940 N.am  137  LYS137     -0.1977
    169  CA         1.6780   26.7930   10.8860 C.3   137  LYS137      0.1596
    170  C          1.3250   25.5230   11.6110 C.2   137  LYS137      0.2287
    171  O          0.9600   24.5610   11.0130 O.2   137  LYS137     -0.2864
    172  CB         0.4620   27.6010   10.5520 C.3   137  LYS137      0.0298
    173  CG        -0.7700   26.8620   10.4450 C.3   137  LYS137      0.0038
    174  CD        -1.8130   27.8170   10.8900 C.3   137  LYS137      0.0206
    175  CE        -3.1760   27.3370   10.6890 C.3   137  LYS137      0.1093
    176  NZ        -3.9950   27.8980   11.8020 N.3   137  LYS137     -0.1314
    177  N         -0.7750   22.9210   13.6170 N.3   139  VAL139     -0.1245
    178  CA        -2.0900   22.4680   13.9360 C.3   139  VAL139      0.1561
    179  C         -1.9680   21.1640   14.6470 C.2   139  VAL139      0.2260
    180  O         -1.0660   20.4170   14.4430 O.2   139  VAL139     -0.2867
    181  CB        -2.9860   22.2810   12.7020 C.3   139  VAL139      0.0252
    182  CG1       -3.0830   23.5220   11.9500 C.3   139  VAL139      0.0019
    183  CG2       -2.4980   21.2010   11.8550 C.3   139  VAL139      0.0019
    184  N         -5.1990   16.2280   12.8320 N.3   144  PHE144     -0.1227
    185  CA        -4.8750   16.6990   11.4910 C.3   144  PHE144      0.1736
    186  C         -5.5350   15.8680   10.3750 C.2   144  PHE144      0.2595
    187  O         -5.5200   14.6890   10.3870 O.2   144  PHE144     -0.2718
    188  CB        -3.3540   16.8060   11.2880 C.3   144  PHE144      0.0547
    189  CG        -2.9740   17.0920    9.8660 C.ar  144  PHE144     -0.0202
    190  CD1       -2.9280   18.3610    9.3870 C.ar  144  PHE144     -0.0042
    191  CD2       -2.7640   16.0880    9.0280 C.ar  144  PHE144     -0.0042
    192  CE1       -2.6070   18.5900    8.0940 C.ar  144  PHE144     -0.0003
    193  CE2       -2.4550   16.3300    7.7300 C.ar  144  PHE144     -0.0003
    194  CZ        -2.3950   17.5620    7.2790 C.ar  144  PHE144     -0.0000
    195  N         -6.1120   16.5610    9.4030 N.am  145  ARG145     -0.1980
    196  CA        -6.6660   15.9010    8.2290 C.3   145  ARG145      0.1597
    197  C         -6.3890   16.7500    6.9960 C.2   145  ARG145      0.2287
    198  O         -6.3240   17.9770    7.0810 O.2   145  ARG145     -0.2864
    199  CB        -8.1760   15.6950    8.3780 C.3   145  ARG145      0.0334
    200  CG        -8.6190   15.1940    9.7420 C.3   145  ARG145      0.0492
    201  CD        -9.5220   13.9790    9.6130 C.3   145  ARG145      0.2205
    202  NE        -8.7510   12.7540    9.4280 N.pl3 145  ARG145     -0.0865
    203  CZ        -9.2700   11.5930    9.0440 C.cat 145  ARG145      0.5346
    204  NH1       -8.4870   10.5310    8.9050 N.pl3 145  ARG145      0.1354
    205  NH2      -10.5680   11.4940    8.7910 N.pl3 145  ARG145      0.1354
@<TRIPOS>BOND
     1    86    85    2
     2    96    95    2
     3    93    94    1
     4    47    46    2
     5    85    84    1
     6    95    94    1
     7    46    45    1
     8    94    97    1
     9    89    91   ar
    10    89    88   ar
    11    84    87    1
    12    84    83    1
    13    97    98    1
    14    87    88    1
    15    91    92   ar
    16    88    90   ar
    17    99    98   ar
    18    99   101   ar
    19    98   100   ar
    20    45    48    1
    21    45    44    1
    22   101   102   ar
    23    92    90   ar
    24   100   102   ar
    25    44    36   am
    26    41    43   ar
    27    41    39   ar
    28    43    42   ar
    29    39    38    1
    30    39    40   ar
    31    38    35    1
    32    42    40   ar
    33    77    76    2
    34    36    37    2
    35    36    35    1
    36   147   146    1
    37   147   148    1
    38    35    34    1
    39   146   143    1
    40    82    80   ar
    41    76    75    1
    42   148   142    1
    43    67    66    2
    44    73    72   ar
    45    73    71   ar
    46   143   142    1
    47   143   144    1
    48   142   133   am
    49    75    78    1
    50    75    74    1
    51    20    18    1
    52    72    70   ar
    53   123   120    1
    54    34    31   am
    55   131   132    1
    56   132   133    1
    57   132   135    1
    58    80    81   ar
    59    80    79    1
    60   137   139   ar
    61   137   136   ar
    62   139   141   ar
    63   133   134    2
    64    66    74   am
    65    66    65    1
    66    71    69   ar
    67    32    31    2
    68    78    79    1
    69    70    69   ar
    70    18    17    1
    71    31    30    1
    72   145   144    2
    73   109   103    1
    74   109   108    1
    75   144   149   am
    76   135   136    1
    77    69    68    1
    78   103   104    1
    79   136   138   ar
    80    19    17    1
    81   141   140   ar
    82   120   121    1
    83   120   119    1
    84    65    68    1
    85    65    64    1
    86   126   127    2
    87   126   125    1
    88   129   128    1
    89    17    14    1
    90   121   124   am
    91   121   122    2
    92   108   107    1
    93   124   125    1
    94   119   112   am
    95   149   150    1
    96   138   140   ar
    97    30    33    1
    98    30    29    1
    99   104   107    1
   100   104   105    1
   101   125   128    1
   102     5     2    1
   103     5     6    1
   104    29    23   am
   105    14    13    1
   106    14    15    1
   107   128   130    1
   108     1     2    1
   109   110   105   am
   110   110   111    1
   111     7     6   ar
   112   112   111    1
   113   112   113    2
   114   105   106    2
   115   150   153    1
   116   150   151    1
   117     2     3    1
   118     6     8   ar
   119    13    11   am
   120    60    59    2
   121   153   155    1
   122   153   154    1
   123   111   114    1
   124   114   115    1
   125    21    15   am
   126    21    22    1
   127    15    16    2
   128    23    24    2
   129    23    22    1
   130    11    12    2
   131    11    10    1
   132   151   152    2
   133   151   156   am
   134   116   115    1
   135   116   117    1
   136    59    58    1
   137    22    25    1
   138     3     4    2
   139    10     9    1
   140    63    61    1
   141   156   157    1
   142    25    26    1
   143    52    51    2
   144   197   198    2
   145   197   196    1
   146   117   118    1
   147    58    61    1
   148    58    57    1
   149   194   193   ar
   150   194   192   ar
   151    26    27    1
   152    26    28    1
   153   193   191   ar
   154    61    62    1
   155   157   160    1
   156   157   158    1
   157    51    57   am
   158    51    50    1
   159   192   190   ar
   160   196   199    1
   161   196   195    1
   162   199   200    1
   163   160   161    1
   164   205   203    1
   165   204   203    1
   166   191   189   ar
   167   158   159    2
   168   158   168   am
   169   203   202    2
   170    50    53    1
   171    50    49    1
   172   190   189   ar
   173   195   186   am
   174   202   201    1
   175   201   200    1
   176   168   169    1
   177   161   162   ar
   178   161   163   ar
   179   189   188    1
   180   162   164   ar
   181    53    54    1
   182   186   187    2
   183   186   185    1
   184   173   172    1
   185   173   174    1
   186    56    54    1
   187   172   169    1
   188   175   174    1
   189   175   176    1
   190   169   170    1
   191   171   170    2
   192   164   166   ar
   193   163   165   ar
   194    54    55    1
   195   188   185    1
   196   185   184    1
   197   183   181    1
   198   182   181    1
   199   166   165   ar
   200   166   167    1
   201   181   178    1
   202   177   178    1
   203   178   179    1
   204   180   179    2
