@<TRIPOS>MOLECULE
tmp/3tscC01.pdb
 100 98 0 0 0
SMALL
GASTEIGER

@<TRIPOS>ATOM
      1  N          1.1280   32.3560    0.7100 N.3   108  PRO108     -0.2116
      2  CA         1.9400   31.1770    0.4110 C.3   108  PRO108      0.1372
      3  C          2.1380   30.3050    1.6610 C.2   108  PRO108      0.2244
      4  O          2.5310   30.8060    2.7050 O.2   108  PRO108     -0.2868
      5  CB         3.2660   31.7590   -0.1040 C.3   108  PRO108      0.0268
      6  CG         2.9050   33.1460   -0.5690 C.3   108  PRO108      0.0207
      7  CD         1.8370   33.6110    0.4080 C.3   108  PRO108      0.0892
      8  N         -1.9130   27.3400   -9.0430 N.3   162  GLN162     -0.1231
      9  CA        -0.6990   27.9030   -8.4950 C.3   162  GLN162      0.1683
     10  C         -0.2870   27.0880   -7.2720 C.2   162  GLN162      0.2434
     11  O         -1.1280   26.8670   -6.3960 O.2   162  GLN162     -0.2733
     12  CB        -0.9470   29.3700   -8.1240 C.3   162  GLN162      0.0380
     13  CG         0.1610   30.0190   -7.3260 C.3   162  GLN162      0.0905
     14  CD         0.0730   31.5400   -7.2940 C.2   162  GLN162      0.2608
     15  OE1       -0.9680   32.1490   -7.5980 O.2   162  GLN162     -0.2717
     16  NE2        1.1740   32.1660   -6.9070 N.am  162  GLN162     -0.0878
     17  N          1.0000   26.6550   -7.1840 N.am  163  PRO163     -0.2718
     18  CA         1.4200   25.8090   -6.0480 C.3   163  PRO163      0.1535
     19  C          1.5240   26.5820   -4.7380 C.2   163  PRO163      0.2599
     20  O          1.6530   27.7990   -4.7660 O.2   163  PRO163     -0.2715
     21  CB         2.8260   25.3360   -6.4660 C.3   163  PRO163      0.0310
     22  CG         3.3240   26.3860   -7.4300 C.3   163  PRO163      0.0237
     23  CD         2.0800   26.8190   -8.1750 C.3   163  PRO163      0.0939
     24  N          1.5030   25.8660   -3.6160 N.am  164  PHE164     -0.1960
     25  CA         1.8050   26.4220   -2.2820 C.3   164  PHE164      0.1771
     26  C          0.7670   27.3980   -1.7910 C.2   164  PHE164      0.2619
     27  O          1.0800   28.3430   -1.0500 O.2   164  PHE164     -0.2715
     28  CB         3.2370   27.0160   -2.1440 C.3   164  PHE164      0.0574
     29  CG         4.2980   26.1680   -2.7440 C.ar  164  PHE164     -0.0200
     30  CD1        4.6340   24.9230   -2.1780 C.ar  164  PHE164     -0.0042
     31  CD2        4.9680   26.5820   -3.9050 C.ar  164  PHE164     -0.0042
     32  CE1        5.6180   24.1180   -2.7480 C.ar  164  PHE164     -0.0003
     33  CE2        5.9570   25.7580   -4.4880 C.ar  164  PHE164     -0.0003
     34  CZ         6.2810   24.5250   -3.9050 C.ar  164  PHE164     -0.0000
     35  N         -0.4730   27.1670   -2.2220 N.am  165  MET165     -0.1977
     36  CA        -1.6060   27.8030   -1.6070 C.3   165  MET165      0.1605
     37  C         -2.9210   27.1450   -2.0120 C.2   165  MET165      0.2287
     38  O         -3.6790   27.6700   -2.8490 O.2   165  MET165     -0.2864
     39  CB        -1.5950   29.3330   -1.7510 C.3   165  MET165      0.0413
     40  CG        -1.2160   29.8910   -3.1140 C.3   165  MET165      0.0598
     41  SD        -0.9730   31.6650   -2.8840 S.3   165  MET165     -0.1393
     42  CE        -0.9780   32.0900   -4.5990 C.3   165  MET165      0.0692
     43  N          7.1820   33.1910    0.0320 N.3   214  VAL214     -0.1245
     44  CA         7.2830   32.4830   -1.2500 C.3   214  VAL214      0.1561
     45  C          8.5080   31.5560   -1.2740 C.2   214  VAL214      0.2260
     46  O          8.3870   30.3450   -1.5620 O.2   214  VAL214     -0.2867
     47  CB         7.2950   33.4650   -2.4500 C.3   214  VAL214      0.0252
     48  CG1        7.6530   32.7460   -3.7440 C.3   214  VAL214      0.0019
     49  CG2        5.9330   34.1350   -2.5990 C.3   214  VAL214      0.0019
     50  N          8.4570   27.4290   -1.5920 N.3   218  MET218     -0.1245
     51  CA         9.1940   26.8470   -2.7230 C.3   218  MET218      0.1570
     52  C         10.2210   25.7810   -2.3410 C.2   218  MET218      0.2261
     53  O         10.3370   24.7640   -3.0470 O.2   218  MET218     -0.2867
     54  CB         9.8750   27.9480   -3.5380 C.3   218  MET218      0.0387
     55  CG         8.9300   28.7530   -4.4160 C.3   218  MET218      0.0595
     56  SD         9.7740   30.1520   -5.2080 S.3   218  MET218     -0.1393
     57  CE        10.9720   29.3210   -6.2560 C.3   218  MET218      0.0692
     58  N          8.2670   22.4080   -8.5280 N.3   224  LEU224     -0.1231
     59  CA         7.1180   23.2210   -8.8750 C.3   224  LEU224      0.1693
     60  C          7.4660   24.6870   -9.2010 C.2   224  LEU224      0.2592
     61  O          6.5570   25.5170   -9.3780 O.2   224  LEU224     -0.2718
     62  CB         6.1290   23.1760   -7.6860 C.3   224  LEU224      0.0284
     63  CG         5.5640   21.7840   -7.3450 C.3   224  LEU224      0.0019
     64  CD1        4.6350   21.9100   -6.1490 C.3   224  LEU224      0.0001
     65  CD2        4.8310   21.1320   -8.5160 C.3   224  LEU224      0.0001
     66  N          8.7710   25.0020   -9.2720 N.am  225  SER225     -0.1952
     67  CA         9.2490   26.3860   -9.3590 C.3   225  SER225      0.1924
     68  C          8.8980   27.1540  -10.6310 C.2   225  SER225      0.2314
     69  O          8.9390   28.3910  -10.6210 O.2   225  SER225     -0.2863
     70  CB        10.7810   26.4370   -9.1640 C.3   225  SER225      0.2116
     71  OG        11.4170   25.9330  -10.3490 O.3   225  SER225     -0.2180
     72  N          5.9510   26.9940  -12.5370 N.3   227  VAL227     -0.1231
     73  CA         4.5170   27.0840  -12.8650 C.3   227  VAL227      0.1692
     74  C          4.1050   28.4770  -13.4070 C.2   227  VAL227      0.2591
     75  O          3.1800   28.5770  -14.2160 O.2   227  VAL227     -0.2718
     76  CB         3.6200   26.6750  -11.6620 C.3   227  VAL227      0.0266
     77  CG1        2.1230   26.8380  -11.9860 C.3   227  VAL227      0.0020
     78  CG2        3.9130   25.2490  -11.2110 C.3   227  VAL227      0.0020
     79  N          4.7940   29.5360  -12.9880 N.am  228  LEU228     -0.1980
     80  CA         4.4550   30.9240  -13.4030 C.3   228  LEU228      0.1596
     81  C          5.3630   31.5000  -14.5040 C.2   228  LEU228      0.2287
     82  O          5.4110   32.7150  -14.6810 O.2   228  LEU228     -0.2864
     83  CB         4.4030   31.8660  -12.1840 C.3   228  LEU228      0.0297
     84  CG         3.0320   32.1070  -11.5200 C.3   228  LEU228      0.0022
     85  CD1        2.2000   30.8510  -11.3860 C.3   228  LEU228      0.0001
     86  CD2        3.1940   32.7400  -10.1490 C.3   228  LEU228      0.0001
     87  N          7.9470   38.6690  -16.4390 N.3   235  TRP235     -0.1241
     88  CA         7.2600   37.8230  -15.4550 C.3   235  TRP235      0.1605
     89  C          6.1110   38.5100  -14.7420 C.2   235  TRP235      0.2264
     90  O          5.2890   37.8560  -14.0900 O.2   235  TRP235     -0.2867
     91  CB         8.2810   37.3300  -14.4120 C.3   235  TRP235      0.0550
     92  CG         9.1450   36.1720  -14.8900 C.ar  235  TRP235      0.0003
     93  CD1       10.1540   36.1890  -15.8720 C.ar  235  TRP235      0.0946
     94  CD2        9.1010   34.7870  -14.4220 C.ar  235  TRP235      0.0152
     95  NE1       10.7020   34.9500  -16.0330 N.ar  235  TRP235     -0.2442
     96  CE2       10.1260   34.0600  -15.1920 C.ar  235  TRP235      0.0810
     97  CE3        8.3400   34.0980  -13.4820 C.ar  235  TRP235      0.0012
     98  CZ2       10.3550   32.7040  -15.0120 C.ar  235  TRP235      0.0191
     99  CZ3        8.5800   32.7280  -13.3010 C.ar  235  TRP235      0.0001
    100  CH2        9.5680   32.0440  -14.0460 C.ar  235  TRP235      0.0015
@<TRIPOS>BOND
     1    87    88    1
     2    95    93   ar
     3    95    96   ar
     4    93    92   ar
     5    88    89    1
     6    88    91    1
     7    96    98   ar
     8    96    94   ar
     9    98   100   ar
    10    92    94   ar
    11    92    91    1
    12    89    90    2
    13    82    81    2
    14    81    80    1
    15    94    97   ar
    16    75    74    2
    17   100    99   ar
    18    97    99   ar
    19    74    79   am
    20    74    73    1
    21    80    79    1
    22    80    83    1
    23    73    72    1
    24    73    76    1
    25    83    84    1
    26    77    76    1
    27    76    78    1
    28    84    85    1
    29    84    86    1
    30    68    69    2
    31    68    67    1
    32    71    70    1
    33    61    60    2
    34    67    66    1
    35    67    70    1
    36    66    60   am
    37    60    59    1
    38     8     9    1
    39    59    58    1
    40    59    62    1
    41    65    63    1
    42     9    12    1
    43     9    10    1
    44    23    22    1
    45    23    17    1
    46    12    13    1
    47    62    63    1
    48    15    14    2
    49    22    21    1
    50    63    64    1
    51    13    14    1
    52    14    16   am
    53    10    17   am
    54    10    11    2
    55    17    18    1
    56    21    18    1
    57    57    56    1
    58    18    19    1
    59    56    55    1
    60    20    19    2
    61    19    24   am
    62    42    41    1
    63    33    34   ar
    64    33    31   ar
    65    55    54    1
    66    34    32   ar
    67    31    29   ar
    68    48    47    1
    69    24    25    1
    70    54    51    1
    71    40    41    1
    72    40    39    1
    73    53    52    2
    74    38    37    2
    75    32    30   ar
    76    29    30   ar
    77    29    28    1
    78    51    52    1
    79    51    50    1
    80    49    47    1
    81    47    44    1
    82    25    28    1
    83    25    26    1
    84    35    26   am
    85    35    36    1
    86    37    36    1
    87    26    27    2
    88    39    36    1
    89    46    45    2
    90    45    44    1
    91    44    43    1
    92     6     5    1
    93     6     7    1
    94     5     2    1
    95     7     1    1
    96     2     1    1
    97     2     3    1
    98     3     4    2
