@<TRIPOS>MOLECULE
tmp/3tsdA00.pdb
 147 138 0 0 0
SMALL
GASTEIGER

@<TRIPOS>ATOM
      1  N        -39.0700   40.0050    1.2850 N.3    53  ALA53      -0.1245
      2  CA       -38.1290   41.0580    0.8990 C.3    53  ALA53       0.1562
      3  C        -36.7440   40.9320    1.5670 C.2    53  ALA53       0.2260
      4  O        -36.6470   40.5400    2.7500 O.2    53  ALA53      -0.2867
      5  CB       -38.7620   42.4290    1.2150 C.3    53  ALA53       0.0290
      6  N        -34.6590   42.5330    3.6260 N.3    55  MET55      -0.1245
      7  CA       -34.7680   43.6810    4.5090 C.3    55  MET55       0.1570
      8  C        -34.4270   43.1660    5.8790 C.2    55  MET55       0.2261
      9  O        -34.8140   42.0440    6.2240 O.2    55  MET55      -0.2867
     10  CB       -36.1970   44.2200    4.5320 C.3    55  MET55       0.0387
     11  CG       -36.5750   45.1250    3.3810 C.3    55  MET55       0.0595
     12  SD       -38.3230   45.5540    3.4160 S.3    55  MET55      -0.1393
     13  CE       -38.3370   46.9120    4.5670 C.3    55  MET55       0.0692
     14  N        -32.0060   51.7080   -5.5110 N.3   256  ALA256     -0.1245
     15  CA       -33.1640   52.5950   -5.5100 C.3   256  ALA256      0.1562
     16  C        -33.6000   52.9850   -6.9140 C.2   256  ALA256      0.2260
     17  O        -34.7930   52.9930   -7.2150 O.2   256  ALA256     -0.2867
     18  CB       -32.8830   53.8330   -4.6840 C.3   256  ALA256      0.0290
     19  N        -34.6090   48.4380   -8.7420 N.3   283  ASN283     -0.1240
     20  CA       -36.0270   48.4700   -9.0560 C.3   283  ASN283      0.1653
     21  C        -36.3450   49.4490  -10.1710 C.2   283  ASN283      0.2266
     22  O        -35.7610   50.5350  -10.2410 O.2   283  ASN283     -0.2867
     23  CB       -36.8260   48.8180   -7.8000 C.3   283  ASN283      0.1155
     24  CG       -37.1250   47.5940   -6.9490 C.2   283  ASN283      0.2627
     25  OD1      -36.4200   46.5850   -7.0190 O.2   283  ASN283     -0.2716
     26  ND2      -38.1970   47.6590   -6.1770 N.am  283  ASN283     -0.0877
     27  N        -37.2240   43.2600  -11.0860 N.3   302  LYS302     -0.1245
     28  CA       -38.0600   43.6170   -9.9470 C.3   302  LYS302      0.1561
     29  C        -38.5940   45.0440  -10.0810 C.2   302  LYS302      0.2260
     30  O        -37.8460   45.9670  -10.4540 O.2   302  LYS302     -0.2867
     31  CB       -37.3180   43.4380   -8.6240 C.3   302  LYS302      0.0271
     32  CG       -38.1490   43.7830   -7.4040 C.3   302  LYS302      0.0035
     33  CD       -37.7150   43.0270   -6.1690 C.3   302  LYS302      0.0206
     34  CE       -36.2450   43.2170   -5.8910 C.3   302  LYS302      0.1093
     35  NZ       -35.9460   44.5310   -5.2930 N.3   302  LYS302     -0.1314
     36  N        -43.6930   51.2400   -1.8540 N.3   308  GLY308     -0.1210
     37  CA       -43.4470   50.6520   -0.5430 C.3   308  GLY308      0.1956
     38  C        -44.1620   51.3380    0.6160 C.2   308  GLY308      0.2613
     39  O        -44.2940   52.5640    0.6360 O.2   308  GLY308     -0.2717
     40  N        -44.6170   50.5500    1.5870 N.am  309  SER309     -0.1938
     41  CA       -45.4380   51.0760    2.6800 C.3   309  SER309      0.2055
     42  C        -44.6630   51.9220    3.6960 C.2   309  SER309      0.2643
     43  O        -45.2620   52.6430    4.5070 O.2   309  SER309     -0.2714
     44  CB       -46.1710   49.9430    3.4040 C.3   309  SER309      0.2130
     45  OG       -45.2860   49.1870    4.2120 O.3   309  SER309     -0.2179
     46  N        -43.3450   51.7620    3.7220 N.am  310  ILE310     -0.1963
     47  CA       -42.4950   52.6910    4.4580 C.3   310  ILE310      0.1727
     48  C        -41.7880   53.7050    3.5540 C.2   310  ILE310      0.2616
     49  O        -41.0770   54.5930    4.0400 O.2   310  ILE310     -0.2715
     50  CB       -41.4890   51.9580    5.3410 C.3   310  ILE310      0.0290
     51  CG1      -40.8310   50.8340    4.5520 C.3   310  ILE310      0.0022
     52  CG2      -42.1790   51.4140    6.5880 C.3   310  ILE310      0.0023
     53  CD1      -39.9850   49.9620    5.4070 C.3   310  ILE310      0.0001
     54  N        -42.0000   53.5810    2.2450 N.am  311  CYS311     -0.1954
     55  CA       -41.2580   54.3840    1.2830 C.3   311  CYS311      0.1843
     56  C        -41.6920   55.8530    1.2210 C.2   311  CYS311      0.2626
     57  O        -42.8500   56.1840    0.9760 O.2   311  CYS311     -0.2714
     58  CB       -41.3180   53.7570   -0.0990 C.3   311  CYS311      0.0997
     59  SG       -39.9290   54.2420   -1.1090 S.3   311  CYS311     -0.0797
     60  N        -40.7180   56.7200    1.4510 N.am  312  THR312     -0.1936
     61  CA       -40.8910   58.1600    1.4760 C.3   312  THR312      0.2028
     62  C        -40.4760   58.8270    0.1620 C.2   312  THR312      0.2642
     63  O        -40.5060   60.0420    0.0500 O.2   312  THR312     -0.2714
     64  CB       -39.9910   58.7080    2.5610 C.3   312  THR312      0.1808
     65  OG1      -38.7590   57.9660    2.5230 O.3   312  THR312     -0.2208
     66  CG2      -40.6510   58.5430    3.9440 C.3   312  THR312      0.0379
     67  N        -40.0470   58.0250   -0.8050 N.am  313  THR313     -0.1950
     68  CA       -39.6210   58.4780   -2.1190 C.3   313  THR313      0.1897
     69  C        -40.5850   59.4680   -2.7880 C.2   313  THR313      0.2313
     70  O        -40.1680   60.5310   -3.2640 O.2   313  THR313     -0.2863
     71  CB       -39.4350   57.2660   -3.0440 C.3   313  THR313      0.1794
     72  OG1      -38.3750   56.4530   -2.5350 O.3   313  THR313     -0.2208
     73  CG2      -39.1040   57.6830   -4.4580 C.3   313  THR313      0.0378
     74  N        -43.0530   44.5370   -6.4870 N.3   344  ASP344     -0.1225
     75  CA       -42.4000   44.8490   -5.2370 C.3   344  ASP344      0.1805
     76  C        -42.9530   46.1100   -4.5640 C.2   344  ASP344      0.2598
     77  O        -42.6370   47.2270   -4.9580 O.2   344  ASP344     -0.2718
     78  CB       -40.9070   45.0250   -5.5310 C.3   344  ASP344      0.1424
     79  CG       -40.0890   45.2030   -4.2920 C.2   344  ASP344      0.3668
     80  OD1      -40.6380   45.0190   -3.1750 O.co2 344  ASP344     -0.2456
     81  OD2      -38.8880   45.5160   -4.4400 O.co2 344  ASP344     -0.2456
     82  N        -43.7120   45.9200   -3.4940 N.am  345  GLY345     -0.1942
     83  CA       -44.2510   47.0320   -2.7450 C.3   345  GLY345      0.2014
     84  C        -45.7050   47.3770   -3.0110 C.2   345  GLY345      0.2639
     85  O        -46.2500   47.1690   -4.1010 O.2   345  GLY345     -0.2714
     86  N        -46.3440   47.9090   -1.9820 N.am  346  GLY346     -0.1939
     87  CA       -47.6780   48.4420   -2.1220 C.3   346  GLY346      0.2014
     88  C        -48.8040   47.4970   -1.7530 C.2   346  GLY346      0.2638
     89  O        -49.9490   47.9330   -1.6870 O.2   346  GLY346     -0.2714
     90  N        -48.5000   46.2280   -1.4760 N.am  347  ILE347     -0.1977
     91  CA       -49.5690   45.2530   -1.3110 C.3   347  ILE347      0.1596
     92  C        -50.0120   45.1660    0.1320 C.2   347  ILE347      0.2287
     93  O        -49.2660   44.7120    1.0080 O.2   347  ILE347     -0.2864
     94  CB       -49.1330   43.8670   -1.8030 C.3   347  ILE347      0.0276
     95  CG1      -49.0690   43.8610   -3.3250 C.3   347  ILE347      0.0022
     96  CG2      -50.0910   42.7680   -1.3030 C.3   347  ILE347      0.0022
     97  CD1      -48.1790   42.8110   -3.8620 C.3   347  ILE347      0.0001
     98  N        -43.5200   40.5430   -4.1560 N.3   365  MET365     -0.1230
     99  CA       -42.6040   40.5930   -3.0310 C.3   365  MET365      0.1702
    100  C        -43.2010   41.4470   -1.9120 C.2   365  MET365      0.2592
    101  O        -43.7450   42.5260   -2.1680 O.2   365  MET365     -0.2718
    102  CB       -41.2550   41.1170   -3.4940 C.3   365  MET365      0.0401
    103  CG       -40.3740   41.5740   -2.3680 C.3   365  MET365      0.0596
    104  SD       -38.7750   42.1090   -2.9750 S.3   365  MET365     -0.1393
    105  CE       -37.7990   40.6260   -2.7380 C.3   365  MET365      0.0692
    106  N        -43.1420   40.9350   -0.6860 N.am  366  LEU366     -0.1966
    107  CA       -43.8150   41.5710    0.4520 C.3   366  LEU366      0.1728
    108  C        -42.8220   41.8360    1.5660 C.2   366  LEU366      0.2617
    109  O        -42.1210   40.9190    1.9870 O.2   366  LEU366     -0.2715
    110  CB       -44.9180   40.6660    1.0050 C.3   366  LEU366      0.0311
    111  CG       -45.9700   40.1630    0.0160 C.3   366  LEU366      0.0022
    112  CD1      -46.9980   39.2790    0.7260 C.3   366  LEU366      0.0001
    113  CD2      -46.6530   41.3190   -0.6670 C.3   366  LEU366      0.0001
    114  N        -42.6590   43.0910    1.9690 N.am  367  GLY367     -0.1940
    115  CA       -41.9940   43.3530    3.2350 C.3   367  GLY367      0.2014
    116  C        -42.8770   43.3740    4.4720 C.2   367  GLY367      0.2640
    117  O        -42.7100   42.5910    5.4020 O.2   367  GLY367     -0.2714
    118  N        -43.8880   44.2330    4.4400 N.am  368  SER368     -0.1935
    119  CA       -44.5430   44.6350    5.6670 C.3   368  SER368      0.2055
    120  C        -45.5220   43.5810    6.1420 C.2   368  SER368      0.2642
    121  O        -45.7470   43.4320    7.3350 O.2   368  SER368     -0.2714
    122  CB       -45.2380   45.9850    5.4980 C.3   368  SER368      0.2130
    123  OG       -46.5280   45.8410    4.9330 O.3   368  SER368     -0.2179
    124  N        -46.1050   42.8460    5.2070 N.am  369  MET369     -0.1976
    125  CA       -47.0730   41.8280    5.5820 C.3   369  MET369      0.1605
    126  C        -46.3900   40.7170    6.3480 C.2   369  MET369      0.2287
    127  O        -47.0390   39.9780    7.0830 O.2   369  MET369     -0.2864
    128  CB       -47.8150   41.2730    4.3610 C.3   369  MET369      0.0413
    129  CG       -48.6900   42.3190    3.6700 C.3   369  MET369      0.0598
    130  SD       -50.1270   41.6460    2.8100 S.3   369  MET369     -0.1393
    131  CE       -50.7140   40.4480    4.0210 C.3   369  MET369      0.0692
    132  N        -40.5090   47.2550   12.1900 N.3   385  TYR385     -0.1241
    133  CA       -40.3610   47.2560   10.7240 C.3   385  TYR385      0.1605
    134  C        -39.7300   48.5770   10.2240 C.2   385  TYR385      0.2264
    135  O        -40.2820   49.6530   10.4540 O.2   385  TYR385     -0.2867
    136  CB       -41.7330   46.9910   10.0680 C.3   385  TYR385      0.0534
    137  CG       -41.7820   46.9870    8.5450 C.ar  385  TYR385     -0.0201
    138  CD1      -42.5430   47.9250    7.8550 C.ar  385  TYR385     -0.0009
    139  CD2      -41.0930   46.0360    7.7990 C.ar  385  TYR385     -0.0009
    140  CE1      -42.6070   47.9240    6.4660 C.ar  385  TYR385      0.0417
    141  CE2      -41.1550   46.0250    6.4090 C.ar  385  TYR385      0.0417
    142  CZ       -41.9120   46.9740    5.7450 C.ar  385  TYR385      0.1957
    143  OH       -41.9800   46.9870    4.3650 O.3   385  TYR385     -0.2866
    144  N        -37.0590   50.5330    6.8950 N.3   387  GLY387     -0.1225
    145  CA       -36.5230   50.4620    5.5440 C.3   387  GLY387      0.1811
    146  C        -35.0510   50.8380    5.4520 C.2   387  GLY387      0.2280
    147  O        -34.3900   50.6030    4.4350 O.2   387  GLY387     -0.2866
@<TRIPOS>BOND
     1    27    28    1
     2    30    29    2
     3    22    21    2
     4    21    20    1
     5    29    28    1
     6    28    31    1
     7    20    19    1
     8    20    23    1
     9    31    32    1
    10    23    24    1
    11    32    33    1
    12    17    16    2
    13    25    24    2
    14    24    26   am
    15    16    15    1
    16    74    75    1
    17    33    34    1
    18    34    35    1
    19    78    75    1
    20    78    79    1
    21    14    15    1
    22    15    18    1
    23    75    76    1
    24    77    76    2
    25    76    82   am
    26    73    71    1
    27    81    79   ar
    28    79    80   ar
    29    98    99    1
    30    85    84    2
    31    97    95    1
    32    82    83    1
    33   102    99    1
    34   102   103    1
    35    95    94    1
    36    70    69    2
    37    71    72    1
    38    71    68    1
    39    99   100    1
    40    84    83    1
    41    84    86   am
    42   104   105    1
    43   104   103    1
    44    69    68    1
    45   101   100    2
    46    87    86    1
    47    87    88    1
    48    68    67    1
    49   100   106   am
    50    36    37    1
    51    94    91    1
    52    94    96    1
    53    88    89    2
    54    88    90   am
    55    90    91    1
    56    91    92    1
    57    59    58    1
    58    67    62   am
    59   106   107    1
    60   113   111    1
    61    37    38    1
    62    58    55    1
    63   111   112    1
    64   111   110    1
    65    63    62    2
    66    92    93    2
    67    62    61    1
    68   107   110    1
    69   107   108    1
    70    38    39    2
    71    38    40   am
    72     2     5    1
    73     2     1    1
    74     2     3    1
    75    57    56    2
    76    56    55    1
    77    56    60   am
    78    55    54    1
    79    60    61    1
    80    61    64    1
    81   108   114   am
    82   108   109    2
    83     3     4    2
    84    40    41    1
    85   114   115    1
    86    54    48   am
    87    65    64    1
    88    64    66    1
    89    41    44    1
    90    41    42    1
    91   130   129    1
    92   130   131    1
    93   115   116    1
    94    11    12    1
    95    11    10    1
    96    44    45    1
    97    12    13    1
    98    48    49    2
    99    48    47    1
   100     6     7    1
   101   129   128    1
   102    42    46   am
   103    42    43    2
   104    46    47    1
   105   128   125    1
   106   143   142    1
   107   147   146    2
   108   118   116   am
   109   118   119    1
   110    47    50    1
   111   116   117    2
   112     7    10    1
   113     7     8    1
   114    51    50    1
   115    51    53    1
   116   123   122    1
   117   124   125    1
   118   124   120   am
   119    50    52    1
   120   146   145    1
   121   122   119    1
   122   145   144    1
   123   125   126    1
   124   119   120    1
   125   142   141   ar
   126   142   140   ar
   127     8     9    2
   128   120   121    2
   129   126   127    2
   130   141   139   ar
   131   140   138   ar
   132   139   137   ar
   133   138   137   ar
   134   137   136    1
   135   136   133    1
   136   134   135    2
   137   134   133    1
   138   133   132    1
