@<TRIPOS>MOLECULE
tmp/3tsdB00.pdb
 184 174 0 0 0
SMALL
GASTEIGER

@<TRIPOS>ATOM
      1  N        -57.0180   30.9170   36.8380 N.3    59  ALA59      -0.1231
      2  CA       -58.4440   30.8020   37.1370 C.3    59  ALA59       0.1694
      3  C        -59.2370   29.7150   36.3720 C.2    59  ALA59       0.2593
      4  O        -58.9190   29.3470   35.2350 O.2    59  ALA59      -0.2718
      5  CB       -59.1090   32.1580   36.9780 C.3    59  ALA59       0.0304
      6  N        -60.3330   29.2970   37.0000 N.am   60  GLY60      -0.1942
      7  CA       -61.1430   28.1450   36.6310 C.3    60  GLY60       0.2014
      8  C        -62.1830   28.4280   35.5580 C.2    60  GLY60       0.2638
      9  O        -63.3110   27.9280   35.6180 O.2    60  GLY60      -0.2714
     10  N        -61.8310   29.3220   34.6420 N.am   61  MET61      -0.1976
     11  CA       -62.7150   29.7750   33.5770 C.3    61  MET61       0.1605
     12  C        -62.4040   29.0840   32.2520 C.2    61  MET61       0.2287
     13  O        -61.2570   28.7310   31.9920 O.2    61  MET61      -0.2864
     14  CB       -62.5620   31.2830   33.4070 C.3    61  MET61       0.0413
     15  CG       -62.5610   32.0350   34.7290 C.3    61  MET61       0.0598
     16  SD       -62.0820   33.7610   34.5860 S.3    61  MET61      -0.1393
     17  CE       -63.4020   34.4220   33.5760 C.3    61  MET61       0.0692
     18  N        -66.5310   26.4300   43.6110 N.3   236  ASP236     -0.1239
     19  CA       -66.7150   27.8140   43.2280 C.3   236  ASP236      0.1674
     20  C        -68.1780   28.1970   43.1580 C.2   236  ASP236      0.2266
     21  O        -68.9570   27.6290   42.3940 O.2   236  ASP236     -0.2867
     22  CB       -66.0060   28.1310   41.9080 C.3   236  ASP236      0.1410
     23  CG       -65.6890   29.6130   41.7610 C.2   236  ASP236      0.3668
     24  OD1      -64.8270   30.1100   42.5200 O.co2 236  ASP236     -0.2456
     25  OD2      -66.2970   30.2790   40.8940 O.co2 236  ASP236     -0.2456
     26  N        -70.6420   32.0100   43.5980 N.3   238  ALA238     -0.1245
     27  CA       -70.5760   33.4670   43.6840 C.3   238  ALA238      0.1562
     28  C        -70.7280   33.9130   45.1330 C.2   238  ALA238      0.2260
     29  O        -69.8820   34.6300   45.6610 O.2   238  ALA238     -0.2867
     30  CB       -71.6450   34.1000   42.8150 C.3   238  ALA238      0.0290
     31  N        -66.6030   32.0400   46.6570 N.3   265  ASN265     -0.1240
     32  CA       -65.8340   33.1960   47.0880 C.3   265  ASN265      0.1653
     33  C        -66.4570   33.8680   48.2900 C.2   265  ASN265      0.2266
     34  O        -67.6830   33.8980   48.4410 O.2   265  ASN265     -0.2867
     35  CB       -65.7030   34.2050   45.9580 C.3   265  ASN265      0.1155
     36  CG       -64.5690   33.8750   45.0090 C.2   265  ASN265      0.2627
     37  OD1      -64.2760   32.7150   44.7520 O.2   265  ASN265     -0.2716
     38  ND2      -63.9270   34.8990   44.4850 N.am  265  ASN265     -0.0877
     39  N        -60.9560   31.1330   49.1580 N.3   284  LYS284     -0.1245
     40  CA       -60.8290   32.0260   48.0150 C.3   284  LYS284      0.1561
     41  C        -61.6140   33.3150   48.2230 C.2   284  LYS284      0.2260
     42  O        -62.8080   33.2900   48.5180 O.2   284  LYS284     -0.2867
     43  CB       -61.2780   31.3350   46.7240 C.3   284  LYS284      0.0271
     44  CG       -60.8150   32.0600   45.4680 C.3   284  LYS284      0.0035
     45  CD       -60.5010   31.0730   44.3600 C.3   284  LYS284      0.0206
     46  CE       -61.7580   30.3850   43.8320 C.3   284  LYS284      0.1093
     47  NZ       -62.4360   31.2040   42.7620 N.3   284  LYS284     -0.1314
     48  N        -63.4850   41.4180   39.8630 N.3   290  GLY290     -0.1210
     49  CA       -62.9960   40.9760   38.5600 C.3   290  GLY290      0.1956
     50  C        -63.2520   41.9490   37.4200 C.2   290  GLY290      0.2613
     51  O        -64.1740   42.7650   37.4830 O.2   290  GLY290     -0.2717
     52  N        -62.4210   41.8760   36.3820 N.am  291  SER291     -0.1938
     53  CA       -62.4930   42.8220   35.2660 C.3   291  SER291      0.2055
     54  C        -63.7350   42.6240   34.3860 C.2   291  SER291      0.2643
     55  O        -64.3170   43.5880   33.8870 O.2   291  SER291     -0.2714
     56  CB       -61.2120   42.7730   34.4220 C.3   291  SER291      0.2130
     57  OG       -60.9850   41.4830   33.8830 O.3   291  SER291     -0.2179
     58  N        -64.1360   41.3720   34.1990 N.am  292  ILE292     -0.1963
     59  CA       -65.3500   41.0570   33.4500 C.3   292  ILE292      0.1727
     60  C        -66.5450   40.9210   34.4300 C.2   292  ILE292      0.2616
     61  O        -67.6700   40.5850   34.0450 O.2   292  ILE292     -0.2715
     62  CB       -65.1210   39.8250   32.5140 C.3   292  ILE292      0.0290
     63  CG1      -64.0280   40.1400   31.4990 C.3   292  ILE292      0.0022
     64  CG2      -66.3550   39.4770   31.7030 C.3   292  ILE292      0.0023
     65  CD1      -64.4960   40.9910   30.3190 C.3   292  ILE292      0.0001
     66  N        -66.2940   41.2200   35.7040 N.am  293  CYS293     -0.1954
     67  CA       -67.3230   41.0920   36.7400 C.3   293  CYS293      0.1843
     68  C        -68.3340   42.2610   36.8080 C.2   293  CYS293      0.2626
     69  O        -67.9680   43.4450   36.9040 O.2   293  CYS293     -0.2714
     70  CB       -66.6880   40.8290   38.1060 C.3   293  CYS293      0.0997
     71  SG       -67.7170   39.8190   39.1550 S.3   293  CYS293     -0.0797
     72  N        -69.6050   41.8930   36.6690 N.am  294  THR294     -0.1936
     73  CA       -70.7480   42.8020   36.7630 C.3   294  THR294      0.2028
     74  C        -71.5870   42.7620   38.0600 C.2   294  THR294      0.2642
     75  O        -72.6630   43.3450   38.1150 O.2   294  THR294     -0.2714
     76  CB       -71.6170   42.6750   35.5190 C.3   294  THR294      0.1808
     77  OG1      -71.6800   41.2920   35.1460 O.3   294  THR294     -0.2208
     78  CG2      -70.9790   43.4640   34.3750 C.3   294  THR294      0.0379
     79  N        -71.1390   42.0040   39.0570 N.am  295  THR295     -0.1950
     80  CA       -71.8220   41.9010   40.3530 C.3   295  THR295      0.1897
     81  C        -72.1770   43.2350   41.0560 C.2   295  THR295      0.2313
     82  O        -73.3100   43.4370   41.4640 O.2   295  THR295     -0.2863
     83  CB       -70.9960   41.0120   41.3000 C.3   295  THR295      0.1794
     84  OG1      -71.0390   39.6750   40.8080 O.3   295  THR295     -0.2208
     85  CG2      -71.5330   41.0340   42.7350 C.3   295  THR295      0.0378
     86  N        -58.4880   36.5840   44.7390 N.3   326  ASP326     -0.1225
     87  CA       -59.0490   36.2830   43.4370 C.3   326  ASP326      0.1805
     88  C        -59.7390   37.5150   42.8310 C.2   326  ASP326      0.2598
     89  O        -60.7880   37.9510   43.3130 O.2   326  ASP326     -0.2718
     90  CB       -60.0430   35.1190   43.5940 C.3   326  ASP326      0.1424
     91  CG       -60.7570   34.7710   42.3040 C.2   326  ASP326      0.3668
     92  OD1      -60.2680   35.1320   41.2100 O.co2 326  ASP326     -0.2456
     93  OD2      -61.8130   34.1140   42.3860 O.co2 326  ASP326     -0.2456
     94  N        -59.1630   38.0630   41.7660 N.am  327  GLY327     -0.1942
     95  CA       -59.8150   39.1420   41.0350 C.3   327  GLY327      0.2014
     96  C        -59.2950   40.5500   41.2780 C.2   327  GLY327      0.2639
     97  O        -58.7910   40.8730   42.3590 O.2   327  GLY327     -0.2714
     98  N        -59.4210   41.3880   40.2560 N.am  328  GLY328     -0.1939
     99  CA       -59.0030   42.7760   40.3350 C.3   328  GLY328      0.2014
    100  C        -57.5340   43.1050   40.1360 C.2   328  GLY328      0.2639
    101  O        -57.1370   44.2500   40.3040 O.2   328  GLY328     -0.2714
    102  N        -56.7160   42.1260   39.7720 N.am  329  ILE329     -0.1963
    103  CA       -55.2920   42.4000   39.6130 C.3   329  ILE329      0.1727
    104  C        -54.9570   42.7520   38.1720 C.2   329  ILE329      0.2616
    105  O        -55.0140   41.9050   37.2860 O.2   329  ILE329     -0.2715
    106  CB       -54.4160   41.2070   40.1200 C.3   329  ILE329      0.0290
    107  CG1      -54.3960   41.1760   41.6520 C.3   329  ILE329      0.0022
    108  CG2      -52.9850   41.3200   39.6060 C.3   329  ILE329      0.0023
    109  CD1      -54.0380   39.8590   42.2350 C.3   329  ILE329      0.0001
    110  N        -54.6530   44.0290   37.9470 N.am  330  LYS330     -0.1977
    111  CA       -54.2810   44.5050   36.6270 C.3   330  LYS330      0.1596
    112  C        -52.7840   44.5650   36.3600 C.2   330  LYS330      0.2287
    113  O        -52.3710   44.6190   35.2080 O.2   330  LYS330     -0.2864
    114  CB       -54.8710   45.9040   36.4110 C.3   330  LYS330      0.0298
    115  CG       -56.3590   45.8910   36.2380 C.3   330  LYS330      0.0038
    116  CD       -56.7450   44.8610   35.1740 C.3   330  LYS330      0.0206
    117  CE       -56.9600   45.5000   33.7850 C.3   330  LYS330      0.1093
    118  NZ       -57.0890   44.4870   32.6960 N.3   330  LYS330     -0.1314
    119  N        -54.9880   34.6620   42.1980 N.3   347  MET347     -0.1230
    120  CA       -55.6320   33.9760   41.0890 C.3   347  MET347      0.1702
    121  C        -55.8990   34.9670   39.9520 C.2   347  MET347      0.2592
    122  O        -56.4490   36.0530   40.1780 O.2   347  MET347     -0.2718
    123  CB       -56.9260   33.3070   41.5640 C.3   347  MET347      0.0401
    124  CG       -57.7370   32.6910   40.4490 C.3   347  MET347      0.0596
    125  SD       -59.0610   31.5830   40.9790 S.3   347  MET347     -0.1393
    126  CE       -58.1630   30.0800   41.3440 C.3   347  MET347      0.0692
    127  N        -55.4930   34.6010   38.7380 N.am  348  LEU348     -0.1966
    128  CA       -55.5210   35.5300   37.6080 C.3   348  LEU348      0.1728
    129  C        -56.2980   34.9970   36.4260 C.2   348  LEU348      0.2617
    130  O        -55.9210   33.9870   35.8370 O.2   348  LEU348     -0.2715
    131  CB       -54.0990   35.8190   37.1410 C.3   348  LEU348      0.0311
    132  CG       -53.1690   36.4050   38.1940 C.3   348  LEU348      0.0022
    133  CD1      -51.7670   36.5040   37.6440 C.3   348  LEU348      0.0001
    134  CD2      -53.6660   37.7720   38.6450 C.3   348  LEU348      0.0001
    135  N        -57.4200   35.6300   36.1090 N.am  349  GLY349     -0.1940
    136  CA       -58.1180   35.2970   34.8820 C.3   349  GLY349      0.2014
    137  C        -57.6660   36.0210   33.6340 C.2   349  GLY349      0.2640
    138  O        -57.2330   35.4140   32.6620 O.2   349  GLY349     -0.2714
    139  N        -57.6960   37.3440   33.6980 N.am  350  SER350     -0.1935
    140  CA       -57.6220   38.1530   32.4890 C.3   350  SER350      0.2055
    141  C        -56.2000   38.3040   32.0030 C.2   350  SER350      0.2642
    142  O        -55.9650   38.4680   30.8160 O.2   350  SER350     -0.2714
    143  CB       -58.2510   39.5320   32.7130 C.3   350  SER350      0.2130
    144  OG       -57.3290   40.4470   33.2750 O.3   350  SER350     -0.2179
    145  N        -55.2480   38.2600   32.9250 N.am  351  MET351     -0.1976
    146  CA       -53.8590   38.4500   32.5480 C.3   351  MET351      0.1605
    147  C        -53.3390   37.2390   31.8100 C.2   351  MET351      0.2287
    148  O        -52.3860   37.3350   31.0400 O.2   351  MET351     -0.2864
    149  CB       -53.0050   38.7760   33.7690 C.3   351  MET351      0.0413
    150  CG       -53.4170   40.0970   34.3820 C.3   351  MET351      0.0598
    151  SD       -52.2320   40.7580   35.5410 S.3   351  MET351     -0.1393
    152  CE       -50.8170   40.9340   34.4500 C.3   351  MET351      0.0692
    153  N        -62.1690   36.7900   25.7600 N.3   368  TYR368     -0.1241
    154  CA       -62.2540   36.6310   27.2150 C.3   368  TYR368      0.1605
    155  C        -63.6800   36.9380   27.6970 C.2   368  TYR368      0.2264
    156  O        -64.1600   38.0640   27.5460 O.2   368  TYR368     -0.2867
    157  CB       -61.2360   37.5470   27.9100 C.3   368  TYR368      0.0534
    158  CG       -61.2010   37.4420   29.4260 C.ar  368  TYR368     -0.0201
    159  CD1      -61.1360   36.2030   30.0610 C.ar  368  TYR368     -0.0009
    160  CD2      -61.2050   38.5810   30.2230 C.ar  368  TYR368     -0.0009
    161  CE1      -61.0970   36.1050   31.4520 C.ar  368  TYR368      0.0417
    162  CE2      -61.1650   38.4890   31.6080 C.ar  368  TYR368      0.0417
    163  CZ       -61.1100   37.2540   32.2200 C.ar  368  TYR368      0.1957
    164  OH       -61.0720   37.1720   33.5970 O.3   368  TYR368     -0.2866
    165  N        -66.9250   36.1450   30.8760 N.3   370  GLY370     -0.1210
    166  CA       -67.1680   35.7910   32.2640 C.3   370  GLY370      0.1956
    167  C        -67.8630   34.4480   32.4130 C.2   370  GLY370      0.2611
    168  O        -68.4920   33.9560   31.4700 O.2   370  GLY370     -0.2717
    169  N        -67.7520   33.8490   33.5980 N.am  371  MET371     -0.1979
    170  CA       -68.4100   32.5720   33.8660 C.3   371  MET371      0.1605
    171  C        -69.8540   32.7740   34.3230 C.2   371  MET371      0.2287
    172  O        -70.7930   32.5180   33.5660 O.2   371  MET371     -0.2864
    173  CB       -67.6240   31.7440   34.8940 C.3   371  MET371      0.0413
    174  CG       -66.3510   31.0980   34.3460 C.3   371  MET371      0.0598
    175  SD       -66.6020   29.9430   32.9670 S.3   371  MET371     -0.1393
    176  CE       -67.1590   28.4590   33.8140 C.3   371  MET371      0.0692
    177  N        -71.1150   38.9290   29.5760 N.3   372  ILE372     -0.1245
    178  CA       -70.2040   39.9950   29.1770 C.3   372  ILE372      0.1561
    179  C        -68.8500   39.4560   28.7220 C.2   372  ILE372      0.2260
    180  O        -68.2330   38.6450   29.4070 O.2   372  ILE372     -0.2867
    181  CB       -70.0170   41.0420   30.3060 C.3   372  ILE372      0.0252
    182  CG1      -68.7500   41.8770   30.0420 C.3   372  ILE372      0.0019
    183  CG2      -70.0430   40.3540   31.6660 C.3   372  ILE372      0.0019
    184  CD1      -68.4100   42.9500   31.0890 C.3   372  ILE372      0.0001
@<TRIPOS>BOND
     1   153   154    1
     2   154   155    1
     3   154   157    1
     4   156   155    2
     5   157   158    1
     6   179   178    1
     7   179   180    2
     8   178   177    1
     9   178   181    1
    10   158   159   ar
    11   158   160   ar
    12   182   181    1
    13   182   184    1
    14   159   161   ar
    15   160   162   ar
    16   181   183    1
    17    65    63    1
    18   142   141    2
    19   165   166    1
    20   148   147    2
    21   161   163   ar
    22   168   167    2
    23    63    62    1
    24   162   163   ar
    25    64    62    1
    26   147   146    1
    27    13    12    2
    28   141   140    1
    29   141   145   am
    30   163   164    1
    31    12    11    1
    32   166   167    1
    33   167   169   am
    34   140   143    1
    35   140   139    1
    36    62    59    1
    37   146   145    1
    38   146   149    1
    39   138   137    2
    40   118   117    1
    41   143   144    1
    42   175   176    1
    43   175   174    1
    44    14    11    1
    45    14    15    1
    46    59    58    1
    47    59    60    1
    48   172   171    2
    49    17    16    1
    50    11    10    1
    51   169   170    1
    52   137   139   am
    53   137   136    1
    54   149   150    1
    55   117   116    1
    56   170   171    1
    57   170   173    1
    58    57    56    1
    59    55    54    2
    60    61    60    2
    61    58    54   am
    62   174   173    1
    63    78    76    1
    64   150   151    1
    65    54    53    1
    66    56    53    1
    67    60    66   am
    68   152   151    1
    69    16    15    1
    70    10     8   am
    71   136   135    1
    72    77    76    1
    73   116   115    1
    74   113   112    2
    75     4     3    2
    76    53    52    1
    77    76    73    1
    78     8     9    2
    79     8     7    1
    80    66    67    1
    81   130   129    2
    82   135   129   am
    83   115   114    1
    84   112   111    1
    85     3     6   am
    86     3     2    1
    87    52    50   am
    88   114   111    1
    89   129   128    1
    90   111   110    1
    91     7     6    1
    92    72    73    1
    93    72    68   am
    94    67    68    1
    95    67    70    1
    96    73    74    1
    97    68    69    2
    98     1     2    1
    99     5     2    1
   100   131   128    1
   101   131   132    1
   102   105   104    2
   103    50    51    2
   104    50    49    1
   105   128   127    1
   106   133   132    1
   107   110   104   am
   108    74    75    2
   109    74    79   am
   110    70    71    1
   111   104   103    1
   112   132   134    1
   113    49    48    1
   114   127   121   am
   115    79    80    1
   116   108   106    1
   117   103   102    1
   118   103   106    1
   119   102   100   am
   120   121   122    2
   121   121   120    1
   122   106   107    1
   123   100   101    2
   124   100    99    1
   125    98    99    1
   126    98    96   am
   127    80    81    1
   128    80    83    1
   129   124   125    1
   130   124   123    1
   131    84    83    1
   132    25    23   ar
   133   125   126    1
   134    95    96    1
   135    95    94    1
   136    81    82    2
   137   120   123    1
   138   120   119    1
   139    92    91   ar
   140    96    97    2
   141    83    85    1
   142   107   109    1
   143    23    22    1
   144    23    24   ar
   145    94    88   am
   146    22    19    1
   147    91    93   ar
   148    91    90    1
   149    21    20    2
   150    47    46    1
   151    30    27    1
   152    88    89    2
   153    88    87    1
   154    20    19    1
   155    19    18    1
   156    87    90    1
   157    87    86    1
   158    26    27    1
   159    27    28    1
   160    46    45    1
   161    45    44    1
   162    38    36   am
   163    37    36    2
   164    36    35    1
   165    28    29    2
   166    44    43    1
   167    35    32    1
   168    31    32    1
   169    43    40    1
   170    32    33    1
   171    40    41    1
   172    40    39    1
   173    41    42    2
   174    33    34    2
