@<TRIPOS>MOLECULE
tmp/3tsoB00.pdb
 187 183 0 0 0
SMALL
GASTEIGER

@<TRIPOS>ATOM
      1  N        -21.5530   50.0660   19.0210 N.3    11  SER11      -0.1202
      2  CA       -20.3310   50.4390   18.3120 C.3    11  SER11       0.2020
      3  C        -20.5070   51.7610   17.5780 C.2    11  SER11       0.2619
      4  O        -21.5780   52.0310   16.9840 O.2    11  SER11      -0.2717
      5  CB       -19.9260   49.2850   17.3880 C.3    11  SER11       0.2103
      6  OG       -18.7810   49.6090   16.6530 O.3    11  SER11      -0.2182
      7  N        -19.4950   52.6220   17.6450 N.am   12  GLY12      -0.1942
      8  CA       -19.4820   53.8650   16.8540 C.3    12  GLY12       0.2014
      9  C        -20.0030   55.1140   17.5700 C.2    12  GLY12       0.2639
     10  O        -19.8600   56.2280   17.0610 O.2    12  GLY12      -0.2714
     11  N        -20.6540   54.9290   18.7220 N.am   13  VAL13      -0.1963
     12  CA       -21.3630   56.0990   19.3480 C.3    13  VAL13       0.1727
     13  C        -20.4130   57.0980   20.0180 C.2    13  VAL13       0.2617
     14  O        -20.7840   58.2420   20.2530 O.2    13  VAL13      -0.2715
     15  CB       -22.3920   55.6550   20.3530 C.3    13  VAL13       0.0290
     16  CG1      -23.4050   54.7010   19.6710 C.3    13  VAL13       0.0023
     17  CG2      -21.7190   55.0100   21.5860 C.3    13  VAL13       0.0023
     18  N        -19.1980   56.6630   20.3370 N.am   14  GLY14      -0.1940
     19  CA       -18.1480   57.5430   20.9260 C.3    14  GLY14       0.2014
     20  C        -17.6420   57.1730   22.3410 C.2    14  GLY14       0.2639
     21  O        -17.0300   58.0150   23.0100 O.2    14  GLY14      -0.2714
     22  N        -17.8480   55.9240   22.7770 N.am   15  LYS15      -0.1963
     23  CA       -17.4640   55.5030   24.1640 C.3    15  LYS15       0.1728
     24  C        -16.0030   55.7000   24.4470 C.2    15  LYS15       0.2617
     25  O        -15.6260   56.3030   25.5000 O.2    15  LYS15      -0.2715
     26  CB       -17.8710   54.0370   24.4800 C.3    15  LYS15       0.0311
     27  CG       -19.3800   53.7640   24.4540 C.3    15  LYS15       0.0038
     28  CD       -19.7610   52.2880   24.6630 C.3    15  LYS15       0.0206
     29  CE       -19.0920   51.3720   23.5890 C.3    15  LYS15       0.1093
     30  NZ       -19.5360   51.6630   22.1300 N.3    15  LYS15      -0.1314
     31  N        -15.1610   55.2290   23.5240 N.am   16  THR16      -0.1937
     32  CA       -13.7220   55.2640   23.7000 C.3    16  THR16       0.2028
     33  C        -13.2200   56.7180   23.6930 C.2    16  THR16       0.2642
     34  O        -12.3250   57.0400   24.4600 O.2    16  THR16      -0.2714
     35  CB       -13.0080   54.4740   22.5560 C.3    16  THR16       0.1808
     36  OG1      -13.3440   53.0890   22.6680 O.3    16  THR16      -0.2208
     37  CG2      -11.4380   54.6270   22.6070 C.3    16  THR16       0.0379
     38  N        -13.7660   57.5670   22.8000 N.am   17  ASN17      -0.1971
     39  CA       -13.4090   58.9950   22.8350 C.3    17  ASN17       0.1688
     40  C        -13.9980   59.7750   24.0360 C.2    17  ASN17       0.2292
     41  O        -13.3700   60.6880   24.5540 O.2    17  ASN17      -0.2864
     42  CB       -13.7280   59.6840   21.5120 C.3    17  ASN17       0.1181
     43  CG       -12.7420   59.3720   20.5210 C.2    17  ASN17       0.2629
     44  OD1      -12.9340   58.4910   19.6220 O.2    17  ASN17      -0.2716
     45  ND2      -11.5960   60.0480   20.6500 N.am   17  ASN17      -0.0877
     46  N         -8.5890   63.1620   22.0500 N.3    27  PHE27      -0.1227
     47  CA        -9.6260   62.7410   21.1660 C.3    27  PHE27       0.1736
     48  C         -8.9410   62.2490   19.8730 C.2    27  PHE27       0.2596
     49  O         -7.8860   62.7680   19.4790 O.2    27  PHE27      -0.2718
     50  CB       -10.5040   63.9340   20.8490 C.3    27  PHE27       0.0547
     51  CG       -11.5660   63.6380   19.8530 C.ar   27  PHE27      -0.0202
     52  CD1      -12.7660   63.1090   20.2600 C.ar   27  PHE27      -0.0042
     53  CD2      -11.3900   63.9080   18.4970 C.ar   27  PHE27      -0.0042
     54  CE1      -13.7760   62.7960   19.3760 C.ar   27  PHE27      -0.0003
     55  CE2      -12.4540   63.6250   17.5590 C.ar   27  PHE27      -0.0003
     56  CZ       -13.6440   63.0520   17.9950 C.ar   27  PHE27      -0.0000
     57  N         -9.5290   61.2590   19.2160 N.am   28  SER28      -0.1938
     58  CA        -8.9550   60.8240   17.9530 C.3    28  SER28       0.2055
     59  C        -10.0930   60.7800   16.9720 C.2    28  SER28       0.2643
     60  O        -11.1490   60.1290   17.2460 O.2    28  SER28      -0.2714
     61  CB        -8.2610   59.4850   18.0810 C.3    28  SER28       0.2130
     62  OG        -8.1100   58.9300   16.7990 O.3    28  SER28      -0.2179
     63  N         -9.9150   61.5100   15.8590 N.am   29  HIS29      -0.1959
     64  CA       -10.9480   61.5230   14.8400 C.3    29  HIS29       0.1787
     65  C        -11.0270   60.1310   14.1750 C.2    29  HIS29       0.2620
     66  O        -12.0510   59.7940   13.5830 O.2    29  HIS29      -0.2715
     67  CB       -10.7230   62.6420   13.7600 C.3    29  HIS29       0.0785
     68  CG       -10.7970   64.0610   14.2850 C.ar   29  HIS29       0.0821
     69  ND1      -11.9000   64.8770   14.0940 N.ar   29  HIS29      -0.2267
     70  CD2       -9.9040   64.7980   14.9970 C.ar   29  HIS29       0.1154
     71  CE1      -11.6800   66.0590   14.6630 C.ar   29  HIS29       0.1986
     72  NE2      -10.4840   66.0310   15.2350 N.ar   29  HIS29      -0.2212
     73  N         -9.9500   59.3420   14.2710 N.am   30  ASP30      -0.1957
     74  CA        -9.7990   58.0720   13.5090 C.3    30  ASP30       0.1840
     75  C        -10.2890   56.7890   14.1800 C.2    30  ASP30       0.2623
     76  O        -10.3550   55.7460   13.5200 O.2    30  ASP30      -0.2715
     77  CB        -8.3020   57.7770   13.2340 C.3    30  ASP30       0.1450
     78  CG        -7.7770   58.4530   11.9900 C.2    30  ASP30       0.3671
     79  OD1       -8.4140   58.3120   10.9060 O.co2  30  ASP30      -0.2456
     80  OD2       -6.7170   59.1160   12.1030 O.co2  30  ASP30      -0.2456
     81  N        -10.5480   56.8160   15.4860 N.am   31  SER31      -0.1936
     82  CA       -10.5720   55.5300   16.2310 C.3    31  SER31       0.2055
     83  C        -11.4050   54.4250   15.5540 C.2    31  SER31       0.2643
     84  O        -12.4280   54.7120   14.9210 O.2    31  SER31      -0.2714
     85  CB       -10.9670   55.7100   17.7100 C.3    31  SER31       0.2130
     86  OG       -12.0890   56.5380   17.8270 O.3    31  SER31      -0.2179
     87  N        -10.8970   53.1910   15.6390 N.am   32  ARG32      -0.1963
     88  CA       -11.5250   51.9820   15.0840 C.3    32  ARG32       0.1729
     89  C        -12.2040   51.2720   16.2430 C.2    32  ARG32       0.2617
     90  O        -12.0100   51.6610   17.4120 O.2    32  ARG32      -0.2715
     91  CB       -10.4440   51.0620   14.5040 C.3    32  ARG32       0.0348
     92  CG       -10.0200   51.4450   13.0540 C.3    32  ARG32       0.0492
     93  CD        -8.7170   50.7040   12.6400 C.3    32  ARG32       0.2205
     94  NE        -8.5570   50.5410   11.3470 N.pl3  32  ARG32      -0.0865
     95  CZ        -8.6970   49.5160   10.4900 C.cat  32  ARG32       0.5346
     96  NH1       -9.1910   48.3290   10.8710 N.pl3  32  ARG32       0.1354
     97  NH2       -8.3210   49.6780    9.2290 N.pl3  32  ARG32       0.1354
     98  N        -12.9910   50.2560   15.9400 N.am   33  THR33      -0.1937
     99  CA       -13.7240   49.5380   17.0310 C.3    33  THR33       0.2028
    100  C        -12.7210   49.0060   18.0420 C.2    33  THR33       0.2642
    101  O        -11.5910   48.5880   17.7120 O.2    33  THR33      -0.2714
    102  CB       -14.7400   48.4300   16.4720 C.3    33  THR33       0.1808
    103  OG1      -15.4410   47.8060   17.5780 O.3    33  THR33      -0.2208
    104  CG2      -14.0270   47.3410   15.7220 C.3    33  THR33       0.0379
    105  N        -13.0820   49.0570   19.3190 N.am   34  THR34      -0.1950
    106  CA       -12.1810   48.6140   20.3540 C.3    34  THR34       0.1897
    107  C        -12.0420   47.0710   20.3940 C.2    34  THR34       0.2313
    108  O        -13.0510   46.3160   20.3490 O.2    34  THR34      -0.2863
    109  CB       -12.7770   49.1000   21.7330 C.3    34  THR34       0.1794
    110  OG1      -12.8180   50.5410   21.7300 O.3    34  THR34      -0.2208
    111  CG2      -12.0370   48.5840   22.9580 C.3    34  THR34       0.0378
    112  N        -14.0580   50.1970   29.3700 N.3    57  ASP57      -0.1225
    113  CA       -14.4540   50.4060   27.9850 C.3    57  ASP57       0.1805
    114  C        -14.2420   49.0860   27.2530 C.2    57  ASP57       0.2598
    115  O        -13.3100   48.3370   27.5510 O.2    57  ASP57      -0.2718
    116  CB       -13.6110   51.5460   27.3860 C.3    57  ASP57       0.1424
    117  CG       -13.9750   51.8600   25.9250 C.2    57  ASP57       0.3668
    118  OD1      -15.1780   51.7200   25.5700 O.co2  57  ASP57      -0.2456
    119  OD2      -13.0170   52.2380   25.1850 O.co2  57  ASP57      -0.2456
    120  N        -15.1940   48.7500   26.3570 N.am   58  THR58      -0.1939
    121  CA       -14.9940   47.6220   25.4440 C.3    58  THR58       0.2028
    122  C        -15.8990   47.9210   24.2370 C.2    58  THR58       0.2642
    123  O        -16.7460   48.8360   24.3260 O.2    58  THR58      -0.2714
    124  CB       -15.3530   46.2580   26.1540 C.3    58  THR58       0.1808
    125  OG1      -14.9980   45.1390   25.3310 O.3    58  THR58      -0.2208
    126  CG2      -16.8420   46.1730   26.5540 C.3    58  THR58       0.0379
    127  N        -15.7490   47.1510   23.1570 N.am   59  ALA59      -0.1963
    128  CA       -16.5990   47.3480   21.9590 C.3    59  ALA59       0.1728
    129  C        -18.0600   47.1430   22.3260 C.2    59  ALA59       0.2616
    130  O        -18.3670   46.2970   23.1700 O.2    59  ALA59      -0.2715
    131  CB       -16.1900   46.4240   20.7410 C.3    59  ALA59       0.0334
    132  N        -18.9370   47.9250   21.7190 N.am   60  GLY60      -0.1955
    133  CA       -20.3980   47.7630   21.9550 C.3    60  GLY60       0.1869
    134  C        -21.0340   46.6600   21.1160 C.2    60  GLY60       0.2309
    135  O        -21.8110   46.9210   20.1980 O.2    60  GLY60      -0.2863
    136  N        -24.3170   61.3590   22.5290 N.3   115  ASN115     -0.1225
    137  CA       -23.0000   61.8820   22.1500 C.3   115  ASN115      0.1785
    138  C        -23.0090   62.4470   20.7210 C.2   115  ASN115      0.2597
    139  O        -23.9180   62.1320   19.9510 O.2   115  ASN115     -0.2718
    140  CB       -21.8770   60.8210   22.3300 C.3   115  ASN115      0.1169
    141  CG       -20.5160   61.4250   22.1390 C.2   115  ASN115      0.2627
    142  OD1      -20.2510   62.5290   22.6560 O.2   115  ASN115     -0.2716
    143  ND2      -19.6570   60.7610   21.3610 N.am  115  ASN115     -0.0877
    144  N        -22.0150   63.2610   20.3710 N.am  116  LYS116     -0.1980
    145  CA       -21.9110   63.8730   19.0330 C.3   116  LYS116      0.1596
    146  C        -22.8310   65.0960   18.8680 C.2   116  LYS116      0.2287
    147  O        -23.3370   65.3560   17.7250 O.2   116  LYS116     -0.2864
    148  CB       -22.1550   62.8390   17.9290 C.3   116  LYS116      0.0298
    149  CG       -21.1800   61.6390   17.9770 C.3   116  LYS116      0.0038
    150  CD       -20.7560   61.0690   16.6060 C.3   116  LYS116      0.0206
    151  CE       -20.3060   59.6040   16.7790 C.3   116  LYS116      0.1093
    152  NZ       -19.9130   58.8780   15.5340 N.3   116  LYS116     -0.1314
    153  N        -22.0930   67.9570   18.6120 N.3   118  ASP118     -0.1225
    154  CA       -21.4410   68.9090   17.7070 C.3   118  ASP118      0.1805
    155  C        -21.9850   68.7580   16.2820 C.2   118  ASP118      0.2597
    156  O        -21.8350   69.6590   15.4800 O.2   118  ASP118     -0.2718
    157  CB       -19.9330   68.7740   17.7250 C.3   118  ASP118      0.1424
    158  CG       -19.4640   67.3490   17.4160 C.2   118  ASP118      0.3668
    159  OD1      -19.6080   66.4650   18.2930 O.co2 118  ASP118     -0.2456
    160  OD2      -18.9900   67.0950   16.2920 O.co2 118  ASP118     -0.2456
    161  N        -22.6030   67.6060   16.0040 N.am  119  LEU119     -0.1979
    162  CA       -23.2360   67.3250   14.7110 C.3   119  LEU119      0.1596
    163  C        -24.7480   67.6160   14.8090 C.2   119  LEU119      0.2287
    164  O        -25.5810   66.7690   14.5390 O.2   119  LEU119     -0.2864
    165  CB       -22.9280   65.8610   14.2800 C.3   119  LEU119      0.0297
    166  CG       -21.4500   65.4420   14.1170 C.3   119  LEU119      0.0022
    167  CD1      -21.2530   63.9030   13.9370 C.3   119  LEU119      0.0001
    168  CD2      -20.7350   66.2080   12.9510 C.3   119  LEU119      0.0001
    169  N        -20.3620   66.1490   23.6040 N.3   145  SER145     -0.1202
    170  CA       -19.5380   65.9720   22.3840 C.3   145  SER145      0.2020
    171  C        -18.1480   65.6370   22.8850 C.2   145  SER145      0.2619
    172  O        -17.5320   66.4780   23.5150 O.2   145  SER145     -0.2717
    173  CB       -19.4570   67.3100   21.5940 C.3   145  SER145      0.2103
    174  OG       -18.5150   67.1700   20.5390 O.3   145  SER145     -0.2182
    175  N        -17.6390   64.4080   22.6680 N.am  146  ALA146     -0.1965
    176  CA       -16.2300   64.0830   22.9830 C.3   146  ALA146      0.1728
    177  C        -15.2900   64.9570   22.1210 C.2   146  ALA146      0.2616
    178  O        -14.1520   65.2620   22.4610 O.2   146  ALA146     -0.2715
    179  CB       -15.9760   62.5850   22.6860 C.3   146  ALA146      0.0334
    180  N        -15.8090   65.3420   20.9640 N.am  147  LEU147     -0.1977
    181  CA       -15.0310   66.1060   19.9820 C.3   147  LEU147      0.1596
    182  C        -14.7090   67.5440   20.4600 C.2   147  LEU147      0.2287
    183  O        -13.5270   67.9050   20.6410 O.2   147  LEU147     -0.2864
    184  CB       -15.7870   66.0730   18.6380 C.3   147  LEU147      0.0297
    185  CG       -15.1880   66.7810   17.3740 C.3   147  LEU147      0.0022
    186  CD1      -13.8590   67.4540   17.5760 C.3   147  LEU147      0.0001
    187  CD2      -15.1660   65.9180   16.0810 C.3   147  LEU147      0.0001
@<TRIPOS>BOND
     1    97    95    1
     2    95    96    1
     3    95    94    2
     4    79    78   ar
     5    94    93    1
     6    78    80   ar
     7    78    77    1
     8    93    92    1
     9   168   166    1
    10    92    91    1
    11    77    74    1
    12    74    75    1
    13    74    73    1
    14    76    75    2
    15    66    65    2
    16    67    68    1
    17    67    64    1
    18   167   166    1
    19    69    68   ar
    20    69    71   ar
    21   166   165    1
    22    65    73   am
    23    65    64    1
    24    75    81   am
    25   165   162    1
    26    68    70   ar
    27    91    88    1
    28   164   163    2
    29    71    72   ar
    30   162   163    1
    31   162   161    1
    32    64    63    1
    33    84    83    2
    34    70    72   ar
    35    88    87    1
    36    88    89    1
    37   156   155    2
    38    81    82    1
    39   152   151    1
    40    83    87   am
    41    83    82    1
    42   104   102    1
    43    63    59   am
    44    98    89   am
    45    98    99    1
    46   161   155   am
    47   187   185    1
    48    82    85    1
    49    89    90    2
    50   155   154    1
    51   160   158   ar
    52   102    99    1
    53   102   103    1
    54   150   151    1
    55   150   149    1
    56     6     5    1
    57    62    61    1
    58     8     9    1
    59     8     7    1
    60    59    60    2
    61    59    58    1
    62     4     3    2
    63    99   100    1
    64    10     9    2
    65   185   186    1
    66   185   184    1
    67     5     2    1
    68   158   157    1
    69   158   159   ar
    70    55    56   ar
    71    55    53   ar
    72     9    11   am
    73     3     7   am
    74     3     2    1
    75   154   157    1
    76   154   153    1
    77    85    86    1
    78   101   100    2
    79   147   146    2
    80   148   149    1
    81   148   145    1
    82    58    61    1
    83    58    57    1
    84    56    54   ar
    85   100   105   am
    86     2     1    1
    87    53    51   ar
    88   184   181    1
    89    11    12    1
    90   146   145    1
    91   145   144    1
    92    57    48   am
    93   105   106    1
    94    12    13    1
    95    12    15    1
    96    54    52   ar
    97    49    48    2
    98    44    43    2
    99    16    15    1
   100    51    52   ar
   101    51    50    1
   102    48    47    1
   103   139   138    2
   104   181   182    1
   105   181   180    1
   106    13    14    2
   107    13    18   am
   108   135   134    2
   109    18    19    1
   110   108   107    2
   111    15    17    1
   112   106   107    1
   113   106   109    1
   114   144   138   am
   115   182   183    2
   116    43    45   am
   117    43    42    1
   118   174   173    1
   119   138   137    1
   120   131   128    1
   121    50    47    1
   122    19    20    1
   123   180   177   am
   124   134   133    1
   125    47    46    1
   126   143   141   am
   127    42    39    1
   128   173   170    1
   129   132   133    1
   130   132   129   am
   131   110   109    1
   132   109   111    1
   133   128   129    1
   134   128   127    1
   135   177   178    2
   136   177   176    1
   137    30    29    1
   138   141   140    1
   139   141   142    2
   140   137   140    1
   141   137   136    1
   142   129   130    2
   143    20    22   am
   144    20    21    2
   145   170   171    1
   146   170   169    1
   147    35    37    1
   148    35    36    1
   149    35    32    1
   150   175   171   am
   151   175   176    1
   152   179   176    1
   153    22    23    1
   154    38    39    1
   155    38    33   am
   156    39    40    1
   157   171   172    2
   158   127   122   am
   159    31    32    1
   160    31    24   am
   161    29    28    1
   162    33    32    1
   163    33    34    2
   164    40    41    2
   165    23    24    1
   166    23    26    1
   167   122   123    2
   168   122   121    1
   169    24    25    2
   170    27    26    1
   171    27    28    1
   172   119   117   ar
   173   125   124    1
   174   121   124    1
   175   121   120    1
   176   118   117   ar
   177   117   116    1
   178   124   126    1
   179   120   114   am
   180   114   115    2
   181   114   113    1
   182   116   113    1
   183   113   112    1
