@<TRIPOS>MOLECULE
tmp/3tsqA00.pdb
 177 162 0 0 0
SMALL
GASTEIGER

@<TRIPOS>ATOM
      1  N          2.1970   30.9850   30.6360 N.3   143  LYS143     -0.1245
      2  CA         2.9760   30.2510   29.6600 C.3   143  LYS143      0.1561
      3  C          3.0500   28.7830   30.0650 C.2   143  LYS143      0.2260
      4  O          3.6670   27.9710   29.3690 O.2   143  LYS143     -0.2867
      5  CB         4.3530   30.8680   29.5710 C.3   143  LYS143      0.0271
      6  CG         4.9590   30.7810   28.2200 C.3   143  LYS143      0.0035
      7  CD         6.3640   31.3690   28.2190 C.3   143  LYS143      0.0206
      8  CE         7.0950   30.8920   26.9830 C.3   143  LYS143      0.1093
      9  NZ         8.5210   30.6260   27.2930 N.3   143  LYS143     -0.1314
     10  N          4.6750   27.2130   32.5690 N.3   145  ARG145     -0.1245
     11  CA         6.1240   26.9670   32.6890 C.3   145  ARG145      0.1563
     12  C          6.3680   27.1180   34.1750 C.2   145  ARG145      0.2260
     13  O          6.8290   28.1520   34.6110 O.2   145  ARG145     -0.2867
     14  CB         6.8910   28.0170   31.9080 C.3   145  ARG145      0.0307
     15  CG         8.3640   27.8050   31.8610 C.3   145  ARG145      0.0489
     16  CD         9.0460   29.1340   31.7020 C.3   145  ARG145      0.2205
     17  NE        10.5080   29.0500   31.5810 N.pl3 145  ARG145     -0.0865
     18  CZ        11.1740   28.9910   30.4370 C.cat 145  ARG145      0.5346
     19  NH1       10.5090   28.9580   29.2950 N.pl3 145  ARG145      0.1354
     20  NH2       12.5000   28.9540   30.4400 N.pl3 145  ARG145      0.1354
     21  N         10.8180   25.8360   34.7600 N.3   148  LYS148     -0.1231
     22  CA        11.9600   26.0290   33.9140 C.3   148  LYS148      0.1678
     23  C         12.5610   27.4220   34.1210 C.2   148  LYS148      0.2434
     24  O         11.8440   28.4140   34.1960 O.2   148  LYS148     -0.2733
     25  CB        11.6150   25.7450   32.4740 C.3   148  LYS148      0.0284
     26  CG        12.8040   25.3470   31.6500 C.3   148  LYS148      0.0035
     27  CD        12.3780   24.9300   30.2270 C.3   148  LYS148      0.0206
     28  CE        13.5630   25.1160   29.2960 C.3   148  LYS148      0.1093
     29  NZ        13.5240   24.1400   28.1750 N.3   148  LYS148     -0.1314
     30  N         13.8950   27.4900   34.3250 N.am  149  PRO149     -0.2718
     31  CA        14.4390   28.8120   34.7030 C.3   149  PRO149      0.1535
     32  C         14.3540   29.8620   33.5940 C.2   149  PRO149      0.2598
     33  O         14.3740   29.5520   32.4080 O.2   149  PRO149     -0.2715
     34  CB        15.8960   28.4880   35.1150 C.3   149  PRO149      0.0310
     35  CG        16.1970   27.1430   34.4400 C.3   149  PRO149      0.0237
     36  CD        14.9160   26.4080   34.3040 C.3   149  PRO149      0.0939
     37  N         14.2490   31.1130   33.9950 N.am  150  LEU150     -0.1964
     38  CA        14.0590   32.2180   33.0680 C.3   150  LEU150      0.1728
     39  C         15.3650   32.9590   32.9840 C.2   150  LEU150      0.2616
     40  O         16.0060   33.1730   33.9860 O.2   150  LEU150     -0.2715
     41  CB        13.0000   33.1750   33.6100 C.3   150  LEU150      0.0311
     42  CG        11.5910   32.6190   33.7090 C.3   150  LEU150      0.0022
     43  CD1       10.6860   33.4290   34.6880 C.3   150  LEU150      0.0001
     44  CD2       11.0180   32.5370   32.2730 C.3   150  LEU150      0.0001
     45  N         15.7590   33.3610   31.7790 N.am  151  ALA151     -0.1977
     46  CA        16.9580   34.1870   31.5690 C.3   151  ALA151      0.1597
     47  C         16.5800   35.5910   31.9850 C.2   151  ALA151      0.2287
     48  O         15.4490   35.9850   31.8350 O.2   151  ALA151     -0.2864
     49  CB        17.3430   34.1860   30.1200 C.3   151  ALA151      0.0319
     50  N         23.7100   34.6360   26.8230 N.3   175  ILE175     -0.1245
     51  CA        23.2890   34.3490   28.1830 C.3   175  ILE175      0.1561
     52  C         24.4230   33.6030   28.8440 C.2   175  ILE175      0.2260
     53  O         24.9520   32.6190   28.2630 O.2   175  ILE175     -0.2867
     54  CB        21.9830   33.5100   28.2550 C.3   175  ILE175      0.0252
     55  CG1       20.8580   34.2460   27.5420 C.3   175  ILE175      0.0019
     56  CG2       21.5510   33.2250   29.7200 C.3   175  ILE175      0.0019
     57  CD1       19.6330   33.4290   27.3940 C.3   175  ILE175      0.0001
     58  N         25.5560   31.7160   32.4900 N.3   177  LEU177     -0.1245
     59  CA        25.0250   31.0930   33.7070 C.3   177  LEU177      0.1561
     60  C         25.9750   31.4150   34.8620 C.2   177  LEU177      0.2260
     61  O         27.1860   31.2030   34.8010 O.2   177  LEU177     -0.2867
     62  CB        24.9350   29.5910   33.4820 C.3   177  LEU177      0.0270
     63  CG        23.5820   29.0440   33.0520 C.3   177  LEU177      0.0019
     64  CD1       22.8140   29.8940   32.0330 C.3   177  LEU177      0.0001
     65  CD2       23.7940   27.6480   32.5820 C.3   177  LEU177      0.0001
     66  N         14.8610   31.0370   39.0010 N.3   191  ALA191     -0.1245
     67  CA        15.3340   29.6780   38.7670 C.3   191  ALA191      0.1562
     68  C         15.0810   28.7590   39.9420 C.2   191  ALA191      0.2260
     69  O         16.0180   28.2770   40.5620 O.2   191  ALA191     -0.2867
     70  CB        16.7980   29.6660   38.3660 C.3   191  ALA191      0.0290
     71  N         17.3850   25.6280   41.5440 N.3   194  LEU194     -0.1245
     72  CA        18.6580   25.5440   40.8890 C.3   194  LEU194      0.1561
     73  C         19.6350   26.5350   41.5630 C.2   194  LEU194      0.2260
     74  O         19.2280   27.4390   42.2810 O.2   194  LEU194     -0.2867
     75  CB        18.4680   25.8530   39.3820 C.3   194  LEU194      0.0270
     76  CG        17.6220   24.9030   38.5060 C.3   194  LEU194      0.0019
     77  CD1       17.7770   25.3470   37.1040 C.3   194  LEU194      0.0001
     78  CD2       18.0510   23.3940   38.6380 C.3   194  LEU194      0.0001
     79  N         22.1910   28.2810   39.7440 N.3   196  GLU196     -0.1231
     80  CA        22.6980   29.2600   38.7360 C.3   196  GLU196      0.1699
     81  C         21.5620   30.1040   38.1320 C.2   196  GLU196      0.2592
     82  O         20.3820   29.7210   38.1100 O.2   196  GLU196     -0.2718
     83  CB        23.4290   28.5500   37.5830 C.3   196  GLU196      0.0402
     84  CG        24.6580   27.7180   37.9390 C.3   196  GLU196      0.1161
     85  CD        25.1510   26.7620   36.7490 C.2   196  GLU196      0.3649
     86  OE1       24.3810   25.8320   36.2500 O.co2 196  GLU196     -0.2457
     87  OE2       26.3430   26.9420   36.3280 O.co2 196  GLU196     -0.2457
     88  N         21.9180   31.2770   37.6470 N.am  197  VAL197     -0.1966
     89  CA        20.9720   32.0660   36.8580 C.3   197  VAL197      0.1727
     90  C         21.6140   32.4480   35.5620 C.2   197  VAL197      0.2616
     91  O         22.7830   32.7850   35.5270 O.2   197  VAL197     -0.2715
     92  CB        20.5320   33.4080   37.4850 C.3   197  VAL197      0.0290
     93  CG1       19.2200   33.8570   36.7620 C.3   197  VAL197      0.0023
     94  CG2       20.2890   33.2510   38.8700 C.3   197  VAL197      0.0023
     95  N         20.8050   32.4360   34.5190 N.am  198  GLY198     -0.1955
     96  CA        21.1940   32.9400   33.2180 C.3   198  GLY198      0.1869
     97  C         20.9480   34.4320   33.0890 C.2   198  GLY198      0.2309
     98  O         19.8030   34.8830   33.0030 O.2   198  GLY198     -0.2863
     99  N         12.7680   36.1320   28.2700 N.3   221  THR221     -0.1203
    100  CA        12.6570   34.7770   27.8630 C.3   221  THR221      0.1994
    101  C         12.0420   34.6670   26.4700 C.2   221  THR221      0.2618
    102  O         11.4810   35.6230   25.9580 O.2   221  THR221     -0.2717
    103  CB        11.8470   33.9390   28.9330 C.3   221  THR221      0.1784
    104  OG1       11.9570   32.5310   28.6170 O.3   221  THR221     -0.2211
    105  CG2       10.3200   34.3870   29.0530 C.3   221  THR221      0.0376
    106  N         12.1570   33.5040   25.8540 N.am  222  SER222     -0.1951
    107  CA        11.6970   33.3320   24.4630 C.3   222  SER222      0.1924
    108  C         10.1740   33.5360   24.2670 C.2   222  SER222      0.2314
    109  O          9.3730   33.2400   25.1650 O.2   222  SER222     -0.2863
    110  CB        12.1570   31.9840   23.8740 C.3   222  SER222      0.2116
    111  OG        12.0160   32.0210   22.4600 O.3   222  SER222     -0.2180
    112  N          7.5960   32.1450   22.6810 N.3   224  ASN224     -0.1240
    113  CA         6.9620   31.0280   22.0510 C.3   224  ASN224      0.1653
    114  C          6.0270   30.2980   22.9810 C.2   224  ASN224      0.2266
    115  O          5.8210   30.6890   24.1360 O.2   224  ASN224     -0.2867
    116  CB         7.9930   30.0760   21.4130 C.3   224  ASN224      0.1155
    117  CG         8.9220   29.4610   22.4120 C.2   224  ASN224      0.2627
    118  OD1       10.0880   29.8490   22.5040 O.2   224  ASN224     -0.2716
    119  ND2        8.4310   28.4920   23.1660 N.am  224  ASN224     -0.0877
    120  N          5.3410   26.2210   24.1950 N.3   226  SER226     -0.1217
    121  CA         5.8230   24.8280   24.1050 C.3   226  SER226      0.1889
    122  C          5.0600   24.0680   22.9890 C.2   226  SER226      0.2288
    123  O          3.8590   24.3440   22.7210 O.2   226  SER226     -0.2866
    124  CB         5.7340   24.1020   25.4610 C.3   226  SER226      0.2089
    125  OG         6.5950   24.7010   26.4400 O.3   226  SER226     -0.2183
    126  N         23.8620   30.3800   24.9350 N.3   263  VAL263     -0.1245
    127  CA        23.9030   30.1160   26.3600 C.3   263  VAL263      0.1561
    128  C         25.1780   29.3960   26.6990 C.2   263  VAL263      0.2260
    129  O         25.3630   28.2300   26.2460 O.2   263  VAL263     -0.2867
    130  CB        22.7030   29.2300   26.8620 C.3   263  VAL263      0.0252
    131  CG1       22.8750   28.9950   28.3890 C.3   263  VAL263      0.0019
    132  CG2       21.3190   29.8740   26.4890 C.3   263  VAL263      0.0019
    133  N         28.2700   28.7140   30.1480 N.3   265  ARG265     -0.1245
    134  CA        28.5750   28.8990   31.5710 C.3   265  ARG265      0.1563
    135  C         29.6910   29.8990   31.6880 C.2   265  ARG265      0.2260
    136  O         30.4410   30.1330   30.7380 O.2   265  ARG265     -0.2867
    137  CB        29.0210   27.6230   32.2630 C.3   265  ARG265      0.0307
    138  CG        27.9670   26.5670   32.2690 C.3   265  ARG265      0.0489
    139  CD        28.0310   25.6720   33.5190 C.3   265  ARG265      0.2205
    140  NE        27.7240   24.3030   33.1020 N.pl3 265  ARG265     -0.0865
    141  CZ        26.6380   23.6260   33.4360 C.cat 265  ARG265      0.5346
    142  NH1       25.7150   24.1650   34.2440 N.pl3 265  ARG265      0.1354
    143  NH2       26.4840   22.3980   32.9560 N.pl3 265  ARG265      0.1354
    144  N         26.4400   25.6730   25.9800 N.3   271  LEU271     -0.1231
    145  CA        25.2370   24.8870   26.1760 C.3   271  LEU271      0.1693
    146  C         24.3390   25.0770   24.9560 C.2   271  LEU271      0.2591
    147  O         23.7330   24.1210   24.5060 O.2   271  LEU271     -0.2718
    148  CB        24.4710   25.2800   27.4690 C.3   271  LEU271      0.0284
    149  CG        24.8550   24.7580   28.9040 C.3   271  LEU271      0.0019
    150  CD1       26.2600   24.4520   29.1120 C.3   271  LEU271      0.0001
    151  CD2       24.3980   25.6740   30.0400 C.3   271  LEU271      0.0001
    152  N         24.2670   26.2980   24.4180 N.am  272  ARG272     -0.1980
    153  CA        23.5160   26.5480   23.2000 C.3   272  ARG272      0.1597
    154  C         24.1900   27.5460   22.3340 C.2   272  ARG272      0.2287
    155  O         24.2920   28.7220   22.7100 O.2   272  ARG272     -0.2864
    156  CB        22.1430   27.1560   23.5010 C.3   272  ARG272      0.0334
    157  CG        21.1740   26.1810   24.0610 C.3   272  ARG272      0.0492
    158  CD        19.8920   26.5560   23.5420 C.3   272  ARG272      0.2205
    159  NE        18.8380   25.6590   24.0200 N.pl3 272  ARG272     -0.0865
    160  CZ        17.5720   26.0610   24.1590 C.cat 272  ARG272      0.5346
    161  NH1       17.2500   27.3430   23.8930 N.pl3 272  ARG272      0.1354
    162  NH2       16.6510   25.1840   24.5610 N.pl3 272  ARG272      0.1354
    163  N         16.9430   19.3530   20.4120 N.3   302  LYS302     -0.1245
    164  CA        17.9450   20.4080   20.3980 C.3   302  LYS302      0.1561
    165  C         18.7410   20.4170   19.0790 C.2   302  LYS302      0.2260
    166  O         19.9670   20.5150   19.0660 O.2   302  LYS302     -0.2867
    167  CB        18.9020   20.2300   21.5770 C.3   302  LYS302      0.0271
    168  CG        18.2560   20.2360   22.9490 C.3   302  LYS302      0.0035
    169  CD        19.3840   20.0190   23.9340 C.3   302  LYS302      0.0206
    170  CE        19.1130   20.5290   25.3310 C.3   302  LYS302      0.1093
    171  NZ        18.4020   19.4400   25.9930 N.3   302  LYS302     -0.1314
    172  N         18.5950   17.9120   37.1570 N.3   520  CYS520     -0.1235
    173  CA        19.1520   19.2410   37.5370 C.3   520  CYS520      0.1677
    174  C         18.8990   19.5330   38.9810 C.2   520  CYS520      0.2270
    175  O         19.7730   20.0870   39.6620 O.2   520  CYS520     -0.2867
    176  CB        18.4850   20.3870   36.7630 C.3   520  CYS520      0.0956
    177  SG        18.8240   20.2870   34.9920 S.3   520  CYS520     -0.0801
@<TRIPOS>BOND
     1   166   165    2
     2   165   164    1
     3   164   163    1
     4   164   167    1
     5   116   113    1
     6   116   117    1
     7   167   168    1
     8   113   112    1
     9   113   114    1
    10   154   155    2
    11   154   153    1
    12   117   118    2
    13   117   119   am
    14   111   110    1
    15   123   122    2
    16   168   169    1
    17   114   115    2
    18   122   121    1
    19   153   156    1
    20   153   152    1
    21   156   157    1
    22   158   159    1
    23   158   157    1
    24   110   107    1
    25   161   160    1
    26   169   170    1
    27   159   160    2
    28   121   120    1
    29   121   124    1
    30   160   162    1
    31   108   107    1
    32   108   109    2
    33   152   146   am
    34   107   106    1
    35   147   146    2
    36   126   127    1
    37   146   145    1
    38   170   171    1
    39   124   125    1
    40   106   101   am
    41   102   101    2
    42   144   145    1
    43   145   148    1
    44   129   128    2
    45   127   128    1
    46   127   130    1
    47   101   100    1
    48   132   130    1
    49    50    51    1
    50   130   131    1
    51     8     9    1
    52     8     7    1
    53    57    55    1
    54   148   149    1
    55    55    54    1
    56   100    99    1
    57   100   103    1
    58    29    28    1
    59    51    54    1
    60    51    52    1
    61     7     6    1
    62     6     5    1
    63    54    56    1
    64    53    52    2
    65   104   103    1
    66   149   150    1
    67   149   151    1
    68   103   105    1
    69    19    18    1
    70    28    27    1
    71     4     3    2
    72     5     2    1
    73     2     3    1
    74     2     1    1
    75    49    46    1
    76   133   134    1
    77    27    26    1
    78    18    20    1
    79    18    17    2
    80   136   135    2
    81    46    45    1
    82    46    47    1
    83   134   135    1
    84   134   137    1
    85    17    16    1
    86    26    25    1
    87    16    15    1
    88    45    39   am
    89    48    47    2
    90    15    14    1
    91    14    11    1
    92    64    63    1
    93   137   138    1
    94   138   139    1
    95    44    42    1
    96    33    32    2
    97    25    22    1
    98    58    59    1
    99    10    11    1
   100    65    63    1
   101    11    12    1
   102   143   141    1
   103    39    38    1
   104    39    40    2
   105    98    97    2
   106    63    62    1
   107    38    41    1
   108    38    37    1
   109    97    96    1
   110   140   141    2
   111   140   139    1
   112    96    95    1
   113   141   142    1
   114    62    59    1
   115    32    37   am
   116    32    31    1
   117    41    42    1
   118    59    60    1
   119    42    43    1
   120    22    23    1
   121    22    21    1
   122    23    24    2
   123    23    30   am
   124    12    13    2
   125    36    30    1
   126    36    35    1
   127    30    31    1
   128    35    34    1
   129    95    90   am
   130    31    34    1
   131    61    60    2
   132   177   176    1
   133    91    90    2
   134    90    89    1
   135    86    85   ar
   136    87    85   ar
   137    85    84    1
   138    93    92    1
   139   176   173    1
   140    89    92    1
   141    89    88    1
   142    77    76    1
   143   172   173    1
   144    92    94    1
   145   173   174    1
   146    83    84    1
   147    83    80    1
   148    88    81   am
   149    82    81    2
   150    81    80    1
   151    70    67    1
   152    76    78    1
   153    76    75    1
   154    80    79    1
   155    67    66    1
   156    67    68    1
   157   174   175    2
   158    75    72    1
   159    68    69    2
   160    72    71    1
   161    72    73    1
   162    73    74    2
