@<TRIPOS>MOLECULE
tmp/3tsuA00.pdb
 177 169 0 0 0
SMALL
GASTEIGER

@<TRIPOS>ATOM
      1  N         16.6350   16.4670   19.0850 N.3   301  LEU301     -0.1231
      2  CA        16.3970   17.5610   20.0180 C.3   301  LEU301      0.1693
      3  C         17.6320   18.4500   19.9720 C.2   301  LEU301      0.2591
      4  O         18.6910   17.9380   19.6850 O.2   301  LEU301     -0.2718
      5  CB        16.2580   16.9670   21.4510 C.3   301  LEU301      0.0284
      6  CG        15.0380   16.0880   21.8040 C.3   301  LEU301      0.0019
      7  CD1       13.7180   16.8280   21.6060 C.3   301  LEU301      0.0001
      8  CD2       15.0300   14.7510   21.0170 C.3   301  LEU301      0.0001
      9  N         17.5090   19.7540   20.2260 N.am  302  LYS302     -0.1980
     10  CA        18.6780   20.6410   20.3450 C.3   302  LYS302      0.1596
     11  C         19.4610   20.6280   19.0080 C.2   302  LYS302      0.2287
     12  O         20.7260   20.7630   18.9920 O.2   302  LYS302     -0.2864
     13  CB        19.5460   20.1660   21.5070 C.3   302  LYS302      0.0298
     14  CG        18.7720   20.0640   22.8430 C.3   302  LYS302      0.0038
     15  CD        19.7330   19.7400   24.0570 C.3   302  LYS302      0.0206
     16  CE        19.1290   18.7170   25.0850 C.3   302  LYS302      0.1093
     17  NZ        18.8250   17.3280   24.4930 N.3   302  LYS302     -0.1314
     18  N         13.4950    8.4720   14.4270 N.3   357  TYR357     -0.1241
     19  CA        13.7910    9.9010   14.5070 C.3   357  TYR357      0.1605
     20  C         13.2180   10.6400   13.2860 C.2   357  TYR357      0.2264
     21  O         13.1440   10.0830   12.1810 O.2   357  TYR357     -0.2867
     22  CB        15.3140   10.1150   14.5330 C.3   357  TYR357      0.0534
     23  CG        16.0040   10.0250   15.8840 C.ar  357  TYR357     -0.0201
     24  CD1       17.3260   10.4710   16.0220 C.ar  357  TYR357     -0.0009
     25  CD2       15.3480    9.5120   17.0280 C.ar  357  TYR357     -0.0009
     26  CE1       17.9800   10.3960   17.2530 C.ar  357  TYR357      0.0417
     27  CE2       16.0020    9.4550   18.2850 C.ar  357  TYR357      0.0417
     28  CZ        17.3100    9.8960   18.3750 C.ar  357  TYR357      0.1957
     29  OH        18.0210    9.8250   19.5640 O.3   357  TYR357     -0.2866
     30  N         24.4570    7.0650   17.8890 N.3   375  HIS375     -0.1241
     31  CA        24.3420    8.2440   18.7240 C.3   375  HIS375      0.1621
     32  C         25.5290    8.4370   19.6720 C.2   375  HIS375      0.2264
     33  O         26.0760    9.5370   19.7810 O.2   375  HIS375     -0.2867
     34  CB        23.1020    8.0230   19.5830 C.3   375  HIS375      0.0745
     35  CG        22.6310    9.2710   20.2440 C.ar  375  HIS375      0.0817
     36  ND1       21.8560   10.2010   19.5900 N.ar  375  HIS375     -0.2268
     37  CD2       22.7710    9.7150   21.5060 C.ar  375  HIS375      0.1154
     38  CE1       21.6000   11.2100   20.4050 C.ar  375  HIS375      0.1986
     39  NE2       22.1790   10.9500   21.5650 N.ar  375  HIS375     -0.2212
     40  N         28.5870   11.3280   19.8450 N.3   379  HIS379     -0.1241
     41  CA        28.9620   12.1480   20.9920 C.3   379  HIS379      0.1621
     42  C         30.4760   12.0180   21.2600 C.2   379  HIS379      0.2264
     43  O         31.1380   13.0170   21.5150 O.2   379  HIS379     -0.2867
     44  CB        28.3250   11.6870   22.3280 C.3   379  HIS379      0.0745
     45  CG        26.9190   12.1180   22.5200 C.ar  379  HIS379      0.0817
     46  ND1       26.5150   13.4250   22.3450 N.ar  379  HIS379     -0.2268
     47  CD2       25.8310   11.4400   22.9740 C.ar  379  HIS379      0.1154
     48  CE1       25.2130   13.5160   22.6040 C.ar  379  HIS379      0.1986
     49  NE2       24.7810   12.3150   22.9480 N.ar  379  HIS379     -0.2212
     50  N         23.9420   10.0500   28.9780 N.3   402  ASP402     -0.1225
     51  CA        22.8320   10.9090   28.5350 C.3   402  ASP402      0.1805
     52  C         21.5000   10.3740   28.9760 C.2   402  ASP402      0.2598
     53  O         21.4400    9.6370   29.9720 O.2   402  ASP402     -0.2718
     54  CB        22.9390   11.2980   27.0470 C.3   402  ASP402      0.1424
     55  CG        22.6990   10.1790   26.1170 C.2   402  ASP402      0.3668
     56  OD1       22.5990   10.4700   24.8870 O.co2 402  ASP402     -0.2456
     57  OD2       22.5630    9.0090   26.5760 O.co2 402  ASP402     -0.2456
     58  N         20.4360   10.7890   28.2950 N.am  403  GLY403     -0.1942
     59  CA        19.0970   10.3320   28.6430 C.3   403  GLY403      0.2014
     60  C         18.9070    8.9890   27.9550 C.2   403  GLY403      0.2638
     61  O         18.8510    7.9500   28.6300 O.2   403  GLY403     -0.2714
     62  N         18.7910    9.0200   26.6290 N.am  404  ILE404     -0.1977
     63  CA        18.5850    7.8190   25.8300 C.3   404  ILE404      0.1596
     64  C         19.0950    8.1380   24.4310 C.2   404  ILE404      0.2287
     65  O         18.8380    9.2090   23.8490 O.2   404  ILE404     -0.2864
     66  CB        17.0680    7.3710   25.6780 C.3   404  ILE404      0.0276
     67  CG1       16.5440    6.6250   26.9030 C.3   404  ILE404      0.0022
     68  CG2       16.8260    6.5010   24.4290 C.3   404  ILE404      0.0022
     69  CD1       15.5100    7.4310   27.5560 C.3   404  ILE404      0.0001
     70  N         20.6540    9.4370   32.7620 N.3   495  GLY495     -0.1210
     71  CA        19.6680   10.4540   33.0500 C.3   495  GLY495      0.1956
     72  C         18.5050    9.9320   33.8640 C.2   495  GLY495      0.2611
     73  O         18.0280   10.6220   34.7710 O.2   495  GLY495     -0.2717
     74  N         18.0240    8.7300   33.5390 N.am  496  ARG496     -0.1979
     75  CA        16.9250    8.1410   34.3130 C.3   496  ARG496      0.1597
     76  C         17.3720    7.7320   35.7450 C.2   496  ARG496      0.2287
     77  O         16.5650    7.7080   36.6670 O.2   496  ARG496     -0.2864
     78  CB        16.3090    6.9590   33.5900 C.3   496  ARG496      0.0334
     79  CG        15.6980    7.2630   32.2150 C.3   496  ARG496      0.0492
     80  CD        14.4220    8.2340   32.2180 C.3   496  ARG496      0.2205
     81  NE        14.9150    9.6150   32.3780 N.pl3 496  ARG496     -0.0865
     82  CZ        15.3500   10.4010   31.3910 C.cat 496  ARG496      0.5346
     83  NH1       15.8670   11.5930   31.6960 N.pl3 496  ARG496      0.1354
     84  NH2       15.2450   10.0200   30.1090 N.pl3 496  ARG496      0.1354
     85  N         19.6370    9.4650   37.5380 N.3   498  PHE498     -0.1227
     86  CA        19.4690   10.7700   38.1770 C.3   498  PHE498      0.1736
     87  C         18.0000   11.0470   38.5910 C.2   498  PHE498      0.2595
     88  O         17.7260   11.5220   39.7020 O.2   498  PHE498     -0.2718
     89  CB        19.9350   11.8860   37.2780 C.3   498  PHE498      0.0547
     90  CG        21.3860   12.2660   37.4850 C.ar  498  PHE498     -0.0202
     91  CD1       22.4090   11.4930   36.8990 C.ar  498  PHE498     -0.0042
     92  CD2       21.7230   13.3970   38.2020 C.ar  498  PHE498     -0.0042
     93  CE1       23.7950   11.8750   37.0350 C.ar  498  PHE498     -0.0003
     94  CE2       23.0960   13.7740   38.3830 C.ar  498  PHE498     -0.0003
     95  CZ        24.1270   12.9930   37.8180 C.ar  498  PHE498     -0.0000
     96  N         17.0730   10.8690   37.6450 N.am  499  ASP499     -0.1974
     97  CA        15.6360   11.0750   38.0210 C.3   499  ASP499      0.1709
     98  C         15.1510   10.1720   39.1800 C.2   499  ASP499      0.2293
     99  O         14.3890   10.5670   40.0150 O.2   499  ASP499     -0.2864
    100  CB        14.7690   10.8160   36.7830 C.3   499  ASP499      0.1436
    101  CG        14.9520   11.9010   35.6900 C.2   499  ASP499      0.3671
    102  OD1       15.7100   12.8950   35.9500 O.co2 499  ASP499     -0.2456
    103  OD2       14.3310   11.7640   34.5690 O.co2 499  ASP499     -0.2456
    104  N         12.7650   19.0830   29.8540 N.3   515  GLU515     -0.1231
    105  CA        13.7040   17.9600   29.7020 C.3   515  GLU515      0.1699
    106  C         14.9740   18.1820   30.5410 C.2   515  GLU515      0.2592
    107  O         15.5960   19.2370   30.4650 O.2   515  GLU515     -0.2718
    108  CB        14.0410   17.7240   28.2210 C.3   515  GLU515      0.0402
    109  CG        14.8200   18.8520   27.4860 C.3   515  GLU515      0.1161
    110  CD        15.0290   18.4990   25.9950 C.2   515  GLU515      0.3649
    111  OE1       15.1160   17.2690   25.7270 O.co2 515  GLU515     -0.2457
    112  OE2       15.0710   19.4130   25.1070 O.co2 515  GLU515     -0.2457
    113  N         15.2980   17.1980   31.3690 N.am  516  GLY516     -0.1957
    114  CA        16.4090   17.2960   32.3040 C.3   516  GLY516      0.1869
    115  C         16.1080   17.9900   33.6220 C.2   516  GLY516      0.2309
    116  O         16.9960   18.1590   34.4370 O.2   516  GLY516     -0.2863
    117  N         17.1480   16.3630   36.9390 N.3   519  ALA519     -0.1231
    118  CA        18.5740   16.1890   37.0550 C.3   519  ALA519      0.1694
    119  C         19.2350   17.5080   37.4050 C.2   519  ALA519      0.2592
    120  O         20.1180   17.5340   38.2290 O.2   519  ALA519     -0.2718
    121  CB        19.1860   15.5680   35.7840 C.3   519  ALA519      0.0304
    122  N         18.7880   18.6050   36.8080 N.am  520  CYS520     -0.1970
    123  CA        19.3080   19.9570   37.1420 C.3   520  CYS520      0.1712
    124  C         18.9980   20.3140   38.5700 C.2   520  CYS520      0.2296
    125  O         19.8520   20.9020   39.2780 O.2   520  CYS520     -0.2864
    126  CB        18.6880   20.9880   36.2020 C.3   520  CYS520      0.0983
    127  SG        19.3630   20.7320   34.4400 S.3   520  CYS520     -0.0798
    128  N         21.3920   18.2580   40.8130 N.3   523  GLU523     -0.1245
    129  CA        22.7370   18.8480   40.7000 C.3   523  GLU523      0.1567
    130  C         22.8300   20.1460   41.5130 C.2   523  GLU523      0.2260
    131  O         23.7820   20.3430   42.2810 O.2   523  GLU523     -0.2867
    132  CB        23.1120   19.1630   39.2610 C.3   523  GLU523      0.0388
    133  CG        24.5900   19.6830   39.2190 C.3   523  GLU523      0.1160
    134  CD        25.0760   20.1030   37.8250 C.2   523  GLU523      0.3649
    135  OE1       24.3710   19.7830   36.8190 O.co2 523  GLU523     -0.2457
    136  OE2       26.1840   20.7280   37.7490 O.co2 523  GLU523     -0.2457
    137  N         24.8200   14.5150   27.1720 N.3   597  GLY597     -0.1210
    138  CA        24.1940   15.6390   27.9300 C.3   597  GLY597      0.1956
    139  C         24.4570   15.6750   29.4280 C.2   597  GLY597      0.2611
    140  O         24.5930   16.7650   30.0190 O.2   597  GLY597     -0.2717
    141  N         24.6240   14.5140   30.0430 N.am  598  VAL598     -0.1979
    142  CA        24.9130   14.4470   31.5030 C.3   598  VAL598      0.1595
    143  C         26.2800   15.0510   31.9150 C.2   598  VAL598      0.2287
    144  O         26.5100   15.4500   33.0580 O.2   598  VAL598     -0.2864
    145  CB        24.7320   12.9710   32.0400 C.3   598  VAL598      0.0276
    146  CG1       25.2090   12.8010   33.5280 C.3   598  VAL598      0.0022
    147  CG2       23.2710   12.4580   31.8230 C.3   598  VAL598      0.0022
    148  N         27.3590   17.7660   30.9870 N.3   600  HIS600     -0.1226
    149  CA        27.1870   19.1990   31.4380 C.3   600  HIS600      0.1752
    150  C         27.1370   19.3590   32.9920 C.2   600  HIS600      0.2596
    151  O         27.2450   20.4790   33.5170 O.2   600  HIS600     -0.2718
    152  CB        25.9200   19.8240   30.8220 C.3   600  HIS600      0.0759
    153  CG        26.1070   20.2590   29.3980 C.ar  600  HIS600      0.0818
    154  ND1       25.2050   19.9570   28.3850 N.ar  600  HIS600     -0.2268
    155  CD2       27.1300   20.9270   28.8090 C.ar  600  HIS600      0.1154
    156  CE1       25.6610   20.4360   27.2290 C.ar  600  HIS600      0.1986
    157  NE2       26.8190   21.0400   27.4650 N.ar  600  HIS600     -0.2212
    158  N         26.9790   18.2640   33.7370 N.am  601  ASN601     -0.1974
    159  CA        26.9110   18.3680   35.1690 C.3   601  ASN601      0.1688
    160  C         28.3470   18.6850   35.7300 C.2   601  ASN601      0.2292
    161  O         29.2720   17.8570   35.6070 O.2   601  ASN601     -0.2864
    162  CB        26.3570   17.0480   35.6540 C.3   601  ASN601      0.1181
    163  CG        26.1710   16.9940   37.2260 C.2   601  ASN601      0.2629
    164  OD1       27.0400   17.3910   37.9990 O.2   601  ASN601     -0.2716
    165  ND2       24.9690   16.5790   37.6200 N.am  601  ASN601     -0.0877
    166  N         25.9270   17.9230   24.9290 N.3   626  GLY626     -0.1210
    167  CA        24.6940   17.1950   24.6240 C.3   626  GLY626      0.1956
    168  C         24.4560   17.0820   23.0900 C.2   626  GLY626      0.2611
    169  O         25.3790   17.0950   22.2590 O.2   626  GLY626     -0.2717
    170  N         23.2030   16.9410   22.7310 N.am  627  ASP627     -0.1973
    171  CA        22.8170   16.7400   21.3470 C.3   627  ASP627      0.1709
    172  C         23.1560   17.7920   20.3580 C.2   627  ASP627      0.2293
    173  O         23.3350   17.4750   19.1890 O.2   627  ASP627     -0.2864
    174  CB        21.3310   16.2930   21.2770 C.3   627  ASP627      0.1436
    175  CG        21.2190   14.8450   21.6810 C.2   627  ASP627      0.3671
    176  OD1       22.3050   14.3290   22.1570 O.co2 627  ASP627     -0.2456
    177  OD2       20.1470   14.2130   21.5850 O.co2 627  ASP627     -0.2456
@<TRIPOS>BOND
     1    21    20    2
     2    20    19    1
     3    18    19    1
     4    19    22    1
     5    22    23    1
     6    23    24   ar
     7    23    25   ar
     8    24    26   ar
     9    25    27   ar
    10    26    28   ar
    11    30    31    1
    12    27    28   ar
    13    28    29    1
    14    31    34    1
    15    31    32    1
    16    12    11    2
    17    11    10    1
    18     1     2    1
    19   173   172    2
    20    34    35    1
    21    36    35   ar
    22    36    38   ar
    23    32    33    2
    24     4     3    2
    25    40    41    1
    26     3     2    1
    27     3     9   am
    28     2     5    1
    29     9    10    1
    30    35    37   ar
    31    10    13    1
    32   172   171    1
    33    38    39   ar
    34    41    42    1
    35    41    44    1
    36     8     6    1
    37    42    43    2
    38   174   171    1
    39   174   175    1
    40   171   170    1
    41     5     6    1
    42    37    39   ar
    43    13    14    1
    44   177   175   ar
    45     7     6    1
    46   175   176   ar
    47   169   168    2
    48    44    45    1
    49    46    45   ar
    50    46    48   ar
    51    45    47   ar
    52    48    49   ar
    53   170   168   am
    54    14    15    1
    55    49    47   ar
    56   168   167    1
    57    65    64    2
    58    15    16    1
    59    68    66    1
    60    64    63    1
    61    17    16    1
    62   167   166    1
    63    56    55   ar
    64   112   110   ar
    65    66    63    1
    66    66    67    1
    67   111   110   ar
    68    63    62    1
    69   110   109    1
    70    55    57   ar
    71    55    54    1
    72    62    60   am
    73    67    69    1
    74    54    51    1
    75   137   138    1
    76   156   157   ar
    77   156   154   ar
    78   157   155   ar
    79   109   108    1
    80   138   139    1
    81    60    61    2
    82    60    59    1
    83   108   105    1
    84    58    59    1
    85    58    52   am
    86   154   153   ar
    87    51    52    1
    88    51    50    1
    89   155   153   ar
    90    52    53    2
    91   153   152    1
    92   139   140    2
    93   139   141   am
    94   105   104    1
    95   105   106    1
    96   141   142    1
    97    84    82    1
    98   107   106    2
    99   106   113   am
   100   152   149    1
   101   148   149    1
   102   113   114    1
   103    82    83    1
   104    82    81    2
   105   149   150    1
   106   142   143    1
   107   142   145    1
   108   147   145    1
   109   143   144    2
   110   145   146    1
   111    79    80    1
   112    79    78    1
   113    80    81    1
   114   114   115    1
   115    70    71    1
   116   150   151    2
   117   150   158   am
   118    71    72    1
   119    74    72   am
   120    74    75    1
   121    78    75    1
   122   115   116    2
   123   158   159    1
   124    72    73    2
   125    75    76    1
   126   127   126    1
   127   103   101   ar
   128   159   162    1
   129   159   160    1
   130   161   160    2
   131   162   163    1
   132   101   102   ar
   133   101   100    1
   134    76    77    2
   135   121   118    1
   136   126   123    1
   137   100    97    1
   138   122   123    1
   139   122   119   am
   140   135   134   ar
   141    91    93   ar
   142    91    90   ar
   143   117   118    1
   144    93    95   ar
   145   118   119    1
   146   123   124    1
   147   163   165   am
   148   163   164    2
   149    89    90    1
   150    89    86    1
   151   119   120    2
   152    90    92   ar
   153    85    86    1
   154    96    97    1
   155    96    87   am
   156   136   134   ar
   157    95    94   ar
   158   134   133    1
   159    97    98    1
   160    86    87    1
   161    92    94   ar
   162   124   125    2
   163    87    88    2
   164    98    99    2
   165   133   132    1
   166   132   129    1
   167   129   128    1
   168   129   130    1
   169   130   131    2
