@<TRIPOS>MOLECULE
tmp/3tsuA01.pdb
 222 207 0 0 0
SMALL
GASTEIGER

@<TRIPOS>ATOM
      1  N          3.4380   31.9920   28.3650 N.3   143  LYS143     -0.1245
      2  CA         4.3450   31.2270   27.5300 C.3   143  LYS143      0.1561
      3  C          4.1990   29.7110   27.7980 C.2   143  LYS143      0.2260
      4  O          4.7800   28.9190   27.0560 O.2   143  LYS143     -0.2867
      5  CB         5.8110   31.7260   27.6590 C.3   143  LYS143      0.0271
      6  CG         6.6760   31.3220   26.4660 C.3   143  LYS143      0.0035
      7  CD         8.1140   31.7600   26.4740 C.3   143  LYS143      0.0206
      8  CE         8.9230   30.7240   25.6570 C.3   143  LYS143      0.1093
      9  NZ        10.2640   31.1340   25.0900 N.3   143  LYS143     -0.1314
     10  N          5.5010   28.1050   30.2230 N.3   145  ARG145     -0.1245
     11  CA         6.8030   27.7000   30.8550 C.3   145  ARG145      0.1563
     12  C          6.7880   27.7180   32.4040 C.2   145  ARG145      0.2260
     13  O          7.0940   28.7380   32.9990 O.2   145  ARG145     -0.2867
     14  CB         7.8390   28.6780   30.3230 C.3   145  ARG145      0.0307
     15  CG         9.3260   28.4120   30.5980 C.3   145  ARG145      0.0489
     16  CD        10.1100   29.6070   30.0580 C.3   145  ARG145      0.2205
     17  NE        11.5450   29.4720   30.2200 N.pl3 145  ARG145     -0.0865
     18  CZ        12.3550   29.2450   29.2040 C.cat 145  ARG145      0.5346
     19  NH1       11.8450   29.1180   27.9640 N.pl3 145  ARG145      0.1354
     20  NH2       13.6350   29.1130   29.4060 N.pl3 145  ARG145      0.1354
     21  N         11.1440   26.2400   33.6570 N.3   148  LYS148     -0.1231
     22  CA        12.4240   26.3820   32.9700 C.3   148  LYS148      0.1678
     23  C         13.0240   27.7940   33.1830 C.2   148  LYS148      0.2434
     24  O         12.3160   28.7960   33.0370 O.2   148  LYS148     -0.2733
     25  CB        12.2510   26.0890   31.4600 C.3   148  LYS148      0.0284
     26  CG        13.6100   25.6760   30.7810 C.3   148  LYS148      0.0035
     27  CD        13.4260   25.2160   29.3000 C.3   148  LYS148      0.0206
     28  CE        14.8300   25.2560   28.6760 C.3   148  LYS148      0.1093
     29  NZ        15.1720   23.9520   28.0450 N.3   148  LYS148     -0.1314
     30  N         14.3190   27.8790   33.4980 N.am  149  PRO149     -0.2718
     31  CA        14.8790   29.1740   33.9540 C.3   149  PRO149      0.1535
     32  C         14.8620   30.2210   32.8600 C.2   149  PRO149      0.2598
     33  O         15.0740   29.9120   31.6720 O.2   149  PRO149     -0.2715
     34  CB        16.3060   28.8210   34.4250 C.3   149  PRO149      0.0310
     35  CG        16.5890   27.5180   33.6630 C.3   149  PRO149      0.0237
     36  CD        15.2540   26.7770   33.7400 C.3   149  PRO149      0.0939
     37  N         14.5170   31.4490   33.2340 N.am  150  LEU150     -0.1964
     38  CA        14.5220   32.5990   32.2920 C.3   150  LEU150      0.1728
     39  C         15.8630   33.3240   32.2770 C.2   150  LEU150      0.2616
     40  O         16.4500   33.6030   33.3290 O.2   150  LEU150     -0.2715
     41  CB        13.4710   33.5960   32.7580 C.3   150  LEU150      0.0311
     42  CG        12.0970   32.9860   32.5630 C.3   150  LEU150      0.0022
     43  CD1       10.9670   33.8420   33.1900 C.3   150  LEU150      0.0001
     44  CD2       11.7910   32.7850   31.1030 C.3   150  LEU150      0.0001
     45  N         16.3790   33.6140   31.0920 N.am  151  ALA151     -0.1977
     46  CA        17.5260   34.4920   31.0080 C.3   151  ALA151      0.1597
     47  C         17.0970   35.9630   31.2790 C.2   151  ALA151      0.2287
     48  O         15.9850   36.3390   30.9900 O.2   151  ALA151     -0.2864
     49  CB        18.1650   34.3780   29.5710 C.3   151  ALA151      0.0319
     50  N         24.3940   34.7960   26.4710 N.3   175  ILE175     -0.1245
     51  CA        23.9200   34.5510   27.8520 C.3   175  ILE175      0.1561
     52  C         25.0130   33.7960   28.5940 C.2   175  ILE175      0.2260
     53  O         25.5190   32.7960   28.0750 O.2   175  ILE175     -0.2867
     54  CB        22.6310   33.7170   27.8360 C.3   175  ILE175      0.0252
     55  CG1       21.5860   34.4510   27.0070 C.3   175  ILE175      0.0019
     56  CG2       22.1840   33.4010   29.2990 C.3   175  ILE175      0.0019
     57  CD1       20.2630   33.7110   26.7100 C.3   175  ILE175      0.0001
     58  N         26.0050   31.8990   32.2300 N.3   177  LEU177     -0.1245
     59  CA        25.4540   31.3970   33.4770 C.3   177  LEU177      0.1561
     60  C         26.3890   31.6910   34.6540 C.2   177  LEU177      0.2260
     61  O         27.5840   31.3760   34.6240 O.2   177  LEU177     -0.2867
     62  CB        25.2190   29.8760   33.4390 C.3   177  LEU177      0.0270
     63  CG        24.3340   29.3560   32.3020 C.3   177  LEU177      0.0019
     64  CD1       24.1290   27.8510   32.5220 C.3   177  LEU177      0.0001
     65  CD2       23.0050   30.0980   32.2510 C.3   177  LEU177      0.0001
     66  N         14.7760   31.4460   38.1320 N.3   191  ALA191     -0.1245
     67  CA        15.4430   30.1390   38.0130 C.3   191  ALA191      0.1562
     68  C         15.1450   29.3240   39.2650 C.2   191  ALA191      0.2260
     69  O         16.0660   28.9420   40.0130 O.2   191  ALA191     -0.2867
     70  CB        16.9800   30.3140   37.8530 C.3   191  ALA191      0.0290
     71  N         17.2570   26.2700   41.1350 N.3   194  LEU194     -0.1245
     72  CA        18.6010   26.1630   40.5870 C.3   194  LEU194      0.1561
     73  C         19.6180   27.1190   41.2730 C.2   194  LEU194      0.2260
     74  O         19.2210   28.0520   41.9000 O.2   194  LEU194     -0.2867
     75  CB        18.5650   26.3740   39.0720 C.3   194  LEU194      0.0270
     76  CG        18.3400   25.1940   38.1180 C.3   194  LEU194      0.0019
     77  CD1       17.7390   23.9430   38.6850 C.3   194  LEU194      0.0001
     78  CD2       17.5560   25.6950   36.9090 C.3   194  LEU194      0.0001
     79  N         22.1570   28.6870   39.4870 N.3   196  GLU196     -0.1231
     80  CA        22.7040   29.5660   38.4640 C.3   196  GLU196      0.1699
     81  C         21.5780   30.3410   37.8300 C.2   196  GLU196      0.2592
     82  O         20.4630   29.8490   37.7140 O.2   196  GLU196     -0.2718
     83  CB        23.4130   28.7380   37.3790 C.3   196  GLU196      0.0402
     84  CG        24.5800   27.8450   37.8960 C.3   196  GLU196      0.1161
     85  CD        25.3840   27.2800   36.6760 C.2   196  GLU196      0.3649
     86  OE1       24.8880   26.3520   35.9410 O.co2 196  GLU196     -0.2457
     87  OE2       26.4880   27.8210   36.4160 O.co2 196  GLU196     -0.2457
     88  N         21.8790   31.5770   37.4390 N.am  197  VAL197     -0.1966
     89  CA        21.0250   32.4220   36.6130 C.3   197  VAL197      0.1727
     90  C         21.7880   32.7660   35.2600 C.2   197  VAL197      0.2616
     91  O         22.9700   32.9790   35.2830 O.2   197  VAL197     -0.2715
     92  CB        20.6800   33.7440   37.3640 C.3   197  VAL197      0.0290
     93  CG1       20.0050   34.6870   36.3900 C.3   197  VAL197      0.0023
     94  CG2       19.6300   33.4450   38.4390 C.3   197  VAL197      0.0023
     95  N         21.1260   32.7310   34.1200 N.am  198  GLY198     -0.1955
     96  CA        21.7570   33.1340   32.8170 C.3   198  GLY198      0.1869
     97  C         21.5500   34.6340   32.6360 C.2   198  GLY198      0.2309
     98  O         20.4600   35.1030   32.6430 O.2   198  GLY198     -0.2863
     99  N         14.3560   38.2950   29.2240 N.3   220  MET220     -0.1230
    100  CA        14.4980   38.2750   27.7890 C.3   220  MET220      0.1702
    101  C         14.4250   36.8130   27.3720 C.2   220  MET220      0.2593
    102  O         15.3970   36.0800   27.3840 O.2   220  MET220     -0.2718
    103  CB        15.8120   38.9450   27.3500 C.3   220  MET220      0.0401
    104  CG        15.6920   39.6620   26.0460 C.3   220  MET220      0.0596
    105  SD        14.5960   41.0970   26.1210 S.3   220  MET220     -0.1393
    106  CE        15.7060   42.2810   26.8990 C.3   220  MET220      0.0692
    107  N         13.2240   36.3800   27.0030 N.am  221  THR221     -0.1939
    108  CA        13.0770   35.0240   26.4750 C.3   221  THR221      0.2028
    109  C         12.5820   35.0590   25.0660 C.2   221  THR221      0.2642
    110  O         12.1320   36.0970   24.5820 O.2   221  THR221     -0.2714
    111  CB        12.1730   34.1820   27.3410 C.3   221  THR221      0.1808
    112  OG1       12.2130   32.8330   26.8880 O.3   221  THR221     -0.2208
    113  CG2       10.7150   34.6990   27.2800 C.3   221  THR221      0.0379
    114  N         12.7220   33.9090   24.4090 N.am  222  SER222     -0.1949
    115  CA        12.3940   33.7060   23.0290 C.3   222  SER222      0.1924
    116  C         10.9440   33.9870   22.7320 C.2   222  SER222      0.2314
    117  O         10.1030   33.6220   23.5400 O.2   222  SER222     -0.2863
    118  CB        12.5050   32.2260   22.8500 C.3   222  SER222      0.2116
    119  OG        12.9160   31.9570   21.6000 O.3   222  SER222     -0.2180
    120  N          7.9580   32.9260   21.3320 N.3   224  ASN224     -0.1240
    121  CA         7.1690   31.7680   20.8940 C.3   224  ASN224      0.1653
    122  C          6.5250   31.0530   22.0500 C.2   224  ASN224      0.2266
    123  O          6.9830   31.1710   23.2030 O.2   224  ASN224     -0.2867
    124  CB         8.0550   30.7550   20.1840 C.3   224  ASN224      0.1155
    125  CG         9.3510   30.5090   20.9050 C.2   224  ASN224      0.2627
    126  OD1        9.4470   29.6170   21.7630 O.2   224  ASN224     -0.2716
    127  ND2       10.3620   31.3320   20.5940 N.am  224  ASN224     -0.0877
    128  N          6.2430   27.7760   24.1960 N.3   226  SER226     -0.1202
    129  CA         7.1520   26.6740   24.5360 C.3   226  SER226      0.2020
    130  C          7.0580   25.5710   23.4830 C.2   226  SER226      0.2619
    131  O          5.9600   25.1440   23.1650 O.2   226  SER226     -0.2717
    132  CB         6.7820   26.0980   25.9160 C.3   226  SER226      0.2103
    133  OG         7.2860   26.9120   26.9730 O.3   226  SER226     -0.2182
    134  N          8.2050   25.1040   22.9700 N.am  227  GLY227     -0.1942
    135  CA         8.2240   24.0000   21.9730 C.3   227  GLY227      0.2014
    136  C          7.4050   24.3500   20.7270 C.2   227  GLY227      0.2638
    137  O          6.5540   23.5460   20.2180 O.2   227  GLY227     -0.2714
    138  N          7.6250   25.5830   20.2620 N.am  228  LYS228     -0.1977
    139  CA         7.1630   26.0290   18.9560 C.3   228  LYS228      0.1596
    140  C          8.2690   26.9490   18.4910 C.2   228  LYS228      0.2287
    141  O          8.9120   27.5780   19.3250 O.2   228  LYS228     -0.2864
    142  CB         5.8220   26.7650   19.0490 C.3   228  LYS228      0.0298
    143  CG         4.6420   25.9930   18.4790 C.3   228  LYS228      0.0038
    144  CD         3.5600   26.9750   18.0020 C.3   228  LYS228      0.0206
    145  CE         3.0080   26.6040   16.6280 C.3   228  LYS228      0.1093
    146  NZ         2.0620   27.6470   16.0650 N.3   228  LYS228     -0.1314
    147  N         10.5430   29.9960   17.3060 N.3   230  PRO230     -0.2116
    148  CA        10.5000   31.4600   17.3800 C.3   230  PRO230      0.1372
    149  C          9.8550   32.0880   16.1560 C.2   230  PRO230      0.2244
    150  O         10.3510   31.9410   15.0390 O.2   230  PRO230     -0.2868
    151  CB        11.9740   31.8810   17.4480 C.3   230  PRO230      0.0268
    152  CG        12.7650   30.6130   17.6690 C.3   230  PRO230      0.0207
    153  CD        11.8470   29.4410   17.6890 C.3   230  PRO230      0.0892
    154  N         16.3730   32.5450   11.5600 N.3   258  ARG258     -0.1245
    155  CA        16.2260   32.4090   12.9870 C.3   258  ARG258      0.1563
    156  C         17.6270   32.2740   13.6380 C.2   258  ARG258      0.2260
    157  O         18.4380   31.4350   13.2220 O.2   258  ARG258     -0.2867
    158  CB        15.3560   31.2120   13.3180 C.3   258  ARG258      0.0307
    159  CG        15.3710   30.8930   14.8340 C.3   258  ARG258      0.0489
    160  CD        15.3440   29.4120   14.9580 C.3   258  ARG258      0.2205
    161  NE        15.3930   28.9620   16.3280 N.pl3 258  ARG258     -0.0865
    162  CZ        14.8450   27.8380   16.7900 C.cat 258  ARG258      0.5346
    163  NH1       14.1310   27.0420   15.9950 N.pl3 258  ARG258      0.1354
    164  NH2       14.9850   27.5220   18.0740 N.pl3 258  ARG258      0.1354
    165  N         18.8720   32.2610   17.6390 N.3   260  ASP260     -0.1225
    166  CA        18.7350   32.3390   19.1100 C.3   260  ASP260      0.1805
    167  C         19.9760   32.9010   19.8210 C.2   260  ASP260      0.2597
    168  O         21.0710   32.7890   19.2960 O.2   260  ASP260     -0.2718
    169  CB        18.4540   30.9280   19.6310 C.3   260  ASP260      0.1424
    170  CG        17.0970   30.4000   19.1730 C.2   260  ASP260      0.3668
    171  OD1       16.4320   31.0860   18.3510 O.co2 260  ASP260     -0.2456
    172  OD2       16.6860   29.2860   19.5960 O.co2 260  ASP260     -0.2456
    173  N         19.8230   33.4750   21.0250 N.am  261  ASP261     -0.1974
    174  CA        20.9570   33.7610   21.9100 C.3   261  ASP261      0.1709
    175  C         21.8040   32.5200   22.1660 C.2   261  ASP261      0.2293
    176  O         21.2750   31.4320   22.3340 O.2   261  ASP261     -0.2864
    177  CB        20.5110   34.3860   23.2480 C.3   261  ASP261      0.1436
    178  CG        19.5120   35.5620   23.0590 C.2   261  ASP261      0.3671
    179  OD1       18.4630   35.6640   23.7900 O.co2 261  ASP261     -0.2456
    180  OD2       19.7720   36.4030   22.1620 O.co2 261  ASP261     -0.2456
    181  N         24.4010   30.3610   24.6930 N.3   263  VAL263     -0.1245
    182  CA        24.4740   30.2010   26.1620 C.3   263  VAL263      0.1561
    183  C         25.7870   29.5060   26.4950 C.2   263  VAL263      0.2260
    184  O         26.0470   28.4380   25.9530 O.2   263  VAL263     -0.2867
    185  CB        23.3230   29.3260   26.7250 C.3   263  VAL263      0.0252
    186  CG1       23.3190   29.3560   28.2620 C.3   263  VAL263      0.0019
    187  CG2       21.9260   29.8060   26.1980 C.3   263  VAL263      0.0019
    188  N         27.0990   25.8420   25.8700 N.3   271  LEU271     -0.1231
    189  CA        25.8750   25.0930   26.0780 C.3   271  LEU271      0.1693
    190  C         24.9690   25.1750   24.8960 C.2   271  LEU271      0.2591
    191  O         24.3620   24.1430   24.5360 O.2   271  LEU271     -0.2718
    192  CB        25.0800   25.5550   27.3340 C.3   271  LEU271      0.0284
    193  CG        25.4330   25.0630   28.7510 C.3   271  LEU271      0.0019
    194  CD1       26.8170   25.2670   28.9640 C.3   271  LEU271      0.0001
    195  CD2       24.6320   25.8300   29.8680 C.3   271  LEU271      0.0001
    196  N         24.8150   26.3900   24.3360 N.am  272  ARG272     -0.1980
    197  CA        24.0290   26.5550   23.1200 C.3   272  ARG272      0.1597
    198  C         24.7400   27.4980   22.1690 C.2   272  ARG272      0.2287
    199  O         25.1090   28.6260   22.5580 O.2   272  ARG272     -0.2864
    200  CB        22.6300   27.0990   23.4580 C.3   272  ARG272      0.0334
    201  CG        21.6280   26.9700   22.3430 C.3   272  ARG272      0.0492
    202  CD        20.3450   26.3980   23.0850 C.3   272  ARG272      0.2205
    203  NE        19.4640   27.4870   23.1920 N.pl3 272  ARG272     -0.0865
    204  CZ        18.1690   27.4120   23.5030 C.cat 272  ARG272      0.5346
    205  NH1       17.5560   26.2380   23.8450 N.pl3 272  ARG272      0.1354
    206  NH2       17.5090   28.5660   23.4480 N.pl3 272  ARG272      0.1354
    207  N         21.4820   26.5650   16.5390 N.3   318  HIS318     -0.1241
    208  CA        20.5520   25.7510   17.3150 C.3   318  HIS318      0.1621
    209  C         19.1880   25.8240   16.6320 C.2   318  HIS318      0.2264
    210  O         18.6340   26.9180   16.4220 O.2   318  HIS318     -0.2867
    211  CB        20.4850   26.3120   18.8010 C.3   318  HIS318      0.0745
    212  CG        19.3470   25.7810   19.5940 C.ar  318  HIS318      0.0817
    213  ND1       19.4070   24.5780   20.2600 N.ar  318  HIS318     -0.2268
    214  CD2       18.1030   26.2780   19.8220 C.ar  318  HIS318      0.1154
    215  CE1       18.2490   24.3470   20.8580 C.ar  318  HIS318      0.1986
    216  NE2       17.4460   25.3700   20.6190 N.ar  318  HIS318     -0.2212
    217  N         18.7880   18.6050   36.8080 N.3   520  CYS520     -0.1235
    218  CA        19.3080   19.9570   37.1420 C.3   520  CYS520      0.1677
    219  C         18.9980   20.3140   38.5700 C.2   520  CYS520      0.2270
    220  O         19.8520   20.9020   39.2780 O.2   520  CYS520     -0.2867
    221  CB        18.6880   20.9880   36.2020 C.3   520  CYS520      0.0956
    222  SG        19.3630   20.7320   34.4400 S.3   520  CYS520     -0.0801
@<TRIPOS>BOND
     1   154   155    1
     2   155   158    1
     3   155   156    1
     4   157   156    2
     5   158   159    1
     6   159   160    1
     7   160   161    1
     8   150   149    2
     9   163   162    1
    10   146   145    1
    11   149   148    1
    12   161   162    2
    13   210   209    2
    14   207   208    1
    15   145   144    1
    16   209   208    1
    17   162   164    1
    18   147   148    1
    19   147   153    1
    20   208   211    1
    21   148   151    1
    22   151   152    1
    23   165   166    1
    24   152   153    1
    25   144   143    1
    26   171   170   ar
    27   143   142    1
    28   140   139    1
    29   140   141    2
    30   211   212    1
    31   139   142    1
    32   139   138    1
    33   166   169    1
    34   166   167    1
    35   170   172   ar
    36   170   169    1
    37   168   167    2
    38   212   214   ar
    39   212   213   ar
    40   167   173   am
    41   214   216   ar
    42   124   121    1
    43   124   125    1
    44   137   136    2
    45   213   215   ar
    46   138   136   am
    47   127   125   am
    48   216   215   ar
    49   136   135    1
    50   121   120    1
    51   121   122    1
    52   125   126    2
    53   173   174    1
    54   119   118    1
    55   174   175    1
    56   174   177    1
    57   135   134    1
    58   122   123    2
    59   180   178   ar
    60   175   176    2
    61   198   199    2
    62   198   197    1
    63   201   202    1
    64   201   200    1
    65   116   115    1
    66   116   117    2
    67   118   115    1
    68   134   130   am
    69   115   114    1
    70   178   177    1
    71   178   179   ar
    72   202   203    1
    73   197   200    1
    74   197   196    1
    75   131   130    2
    76   203   204    2
    77   206   204    1
    78   130   129    1
    79   204   205    1
    80   128   129    1
    81   196   190   am
    82   114   109   am
    83   129   132    1
    84   191   190    2
    85   110   109    2
    86   181   182    1
    87   190   189    1
    88   109   108    1
    89     9     8    1
    90     8     7    1
    91   188   189    1
    92   132   133    1
    93   184   183    2
    94   104   105    1
    95   104   103    1
    96   189   192    1
    97   105   106    1
    98   182   183    1
    99   182   185    1
   100   187   185    1
   101     6     7    1
   102     6     5    1
   103    50    51    1
   104   108   107    1
   105   108   111    1
   106    57    55    1
   107   185   186    1
   108   112   111    1
   109   107   101   am
   110    55    54    1
   111     4     3    2
   112   113   111    1
   113   192   193    1
   114   103   100    1
   115   101   102    2
   116   101   100    1
   117     2     5    1
   118     2     3    1
   119     2     1    1
   120   100    99    1
   121    54    51    1
   122    54    56    1
   123    51    52    1
   124    19    18    1
   125    29    28    1
   126    53    52    2
   127    28    27    1
   128   193   194    1
   129   193   195    1
   130    18    20    1
   131    18    17    2
   132    27    26    1
   133    49    46    1
   134    16    17    1
   135    16    15    1
   136    10    11    1
   137    14    15    1
   138    14    11    1
   139    26    25    1
   140    11    12    1
   141    48    47    2
   142    46    45    1
   143    46    47    1
   144    45    39   am
   145    44    42    1
   146    25    22    1
   147    33    32    2
   148    58    59    1
   149    65    63    1
   150    39    38    1
   151    39    40    2
   152    38    41    1
   153    38    37    1
   154    63    64    1
   155    63    62    1
   156    12    13    2
   157    42    41    1
   158    42    43    1
   159    97    98    2
   160    97    96    1
   161    96    95    1
   162    32    37   am
   163    32    31    1
   164    22    23    1
   165    22    21    1
   166    24    23    2
   167    23    30   am
   168    62    59    1
   169    59    60    1
   170    30    36    1
   171    30    31    1
   172    35    36    1
   173    35    34    1
   174    31    34    1
   175    95    90   am
   176   222   221    1
   177    61    60    2
   178    90    91    2
   179    90    89    1
   180    86    85   ar
   181   221   218    1
   182    93    92    1
   183    87    85   ar
   184    89    92    1
   185    89    88    1
   186    85    84    1
   187   217   218    1
   188    78    76    1
   189   218   219    1
   190    92    94    1
   191    83    84    1
   192    83    80    1
   193    88    81   am
   194    82    81    2
   195    81    80    1
   196    70    67    1
   197    67    66    1
   198    67    68    1
   199    76    77    1
   200    76    75    1
   201    80    79    1
   202   219   220    2
   203    75    72    1
   204    68    69    2
   205    72    71    1
   206    72    73    1
   207    73    74    2
