@<TRIPOS>MOLECULE
tmp/3tt0B00.pdb
 204 192 0 0 0
SMALL
GASTEIGER

@<TRIPOS>ATOM
      1  N        -49.2940   39.7570   45.8710 N.3    24  LYS24      -0.1245
      2  CA       -50.4510   39.1140   45.2450 C.3    24  LYS24       0.1561
      3  C        -50.1010   38.3150   43.9830 C.2    24  LYS24       0.2260
      4  O        -49.1610   38.6700   43.2710 O.2    24  LYS24      -0.2867
      5  CB       -51.5000   40.1740   44.9010 C.3    24  LYS24       0.0271
      6  CG       -51.0720   41.1850   43.8960 C.3    24  LYS24       0.0035
      7  CD       -52.2840   42.0030   43.4410 C.3    24  LYS24       0.0206
      8  CE       -51.7540   43.1320   42.5990 C.3    24  LYS24       0.1093
      9  NZ       -52.9170   43.8200   41.9890 N.3    24  LYS24      -0.1314
     10  N        -50.0970   37.3310   40.2520 N.3    26  LEU26      -0.1231
     11  CA       -50.3560   37.9620   38.9680 C.3    26  LEU26       0.1696
     12  C        -51.1270   37.0320   38.0340 C.2    26  LEU26       0.2632
     13  O        -51.9540   37.4850   37.2390 O.2    26  LEU26      -0.2714
     14  CB       -49.0570   38.4510   38.3230 C.3    26  LEU26       0.0284
     15  CG       -48.4480   39.7330   38.9010 C.3    26  LEU26       0.0019
     16  CD1      -47.0800   39.9820   38.3030 C.3    26  LEU26       0.0001
     17  CD2      -49.3460   40.9480   38.6780 C.3    26  LEU26       0.0001
     18  N        -50.8450   35.7350   38.1280 N.am   27  GLY27      -0.1718
     19  CA       -51.5340   34.7520   37.3150 C.2    27  GLY27       0.1480
     20  C        -51.0800   33.3240   37.5110 C.2    27  GLY27       0.2820
     21  O        -50.1990   33.0280   38.3240 O.2    27  GLY27      -0.2669
     22  N        -51.7030   32.4360   36.7450 N.am   28  GLU28      -0.1943
     23  CA       -51.3800   31.0160   36.7670 C.3    28  GLU28       0.1605
     24  C        -50.7910   30.6190   35.4180 C.2    28  GLU28       0.2287
     25  O        -50.5980   31.4570   34.5330 O.2    28  GLU28      -0.2864
     26  CB       -52.6290   30.1750   37.0710 C.3    28  GLU28       0.0415
     27  CG       -53.2970   30.4880   38.4110 C.3    28  GLU28       0.1163
     28  CD       -52.5770   29.8750   39.5990 C.2    28  GLU28       0.3649
     29  OE1      -52.1470   28.7060   39.5040 O.co2  28  GLU28      -0.2457
     30  OE2      -52.4450   30.5660   40.6300 O.co2  28  GLU28      -0.2457
     31  N        -47.4120   32.6950   38.9120 N.3    34  VAL34      -0.1245
     32  CA       -46.7250   33.9770   38.8780 C.3    34  VAL34       0.1561
     33  C        -47.3340   34.8670   39.9530 C.2    34  VAL34       0.2260
     34  O        -48.5510   34.8790   40.1490 O.2    34  VAL34      -0.2867
     35  CB       -46.8000   34.6380   37.4750 C.3    34  VAL34       0.0252
     36  CG1      -46.0940   35.9990   37.4600 C.3    34  VAL34       0.0019
     37  CG2      -46.1840   33.7190   36.4300 C.3    34  VAL34       0.0019
     38  N        -42.2300   40.6110   38.5030 N.3    54  ALA54      -0.1245
     39  CA       -43.0440   39.4080   38.4010 C.3    54  ALA54       0.1562
     40  C        -42.1680   38.1850   38.6330 C.2    54  ALA54       0.2260
     41  O        -41.1050   38.0420   38.0160 O.2    54  ALA54      -0.2867
     42  CB       -43.7200   39.3360   37.0450 C.3    54  ALA54       0.0290
     43  N        -41.8860   33.9450   38.8960 N.3    56  LYS56      -0.1245
     44  CA       -42.4510   32.6640   38.4820 C.3    56  LYS56       0.1561
     45  C        -41.8660   31.5230   39.3110 C.2    56  LYS56       0.2260
     46  O        -40.6510   31.4480   39.5020 O.2    56  LYS56      -0.2867
     47  CB       -42.1860   32.4280   36.9920 C.3    56  LYS56       0.0271
     48  CG       -42.7340   31.1200   36.4430 C.3    56  LYS56       0.0035
     49  CD       -43.5570   31.3680   35.1970 C.3    56  LYS56       0.0206
     50  CE       -43.2860   30.3210   34.1370 C.3    56  LYS56       0.1093
     51  NZ       -43.9260   30.6920   32.8450 N.3    56  LYS56      -0.1314
     52  N        -39.0690   25.1640   33.3880 N.3    70  LEU70      -0.1245
     53  CA       -38.8410   26.4610   34.0200 C.3    70  LEU70       0.1561
     54  C        -37.3960   26.9290   33.8610 C.2    70  LEU70       0.2260
     55  O        -37.1440   28.1020   33.5800 O.2    70  LEU70      -0.2867
     56  CB       -39.2490   26.4260   35.5000 C.3    70  LEU70       0.0270
     57  CG       -39.3110   27.7520   36.2740 C.3    70  LEU70       0.0019
     58  CD1      -40.2240   28.7730   35.6010 C.3    70  LEU70       0.0001
     59  CD2      -39.7560   27.5090   37.7070 C.3    70  LEU70       0.0001
     60  N        -36.8720   27.8950   30.2290 N.3    73  GLU73      -0.1231
     61  CA       -37.4610   29.1970   29.9500 C.3    73  GLU73       0.1699
     62  C        -36.5380   30.3280   30.4080 C.2    73  GLU73       0.2592
     63  O        -36.3740   31.3370   29.7060 O.2    73  GLU73      -0.2718
     64  CB       -38.8320   29.3080   30.6200 C.3    73  GLU73       0.0402
     65  CG       -39.6330   30.5350   30.1990 C.3    73  GLU73       0.1161
     66  CD       -41.0590   30.5270   30.7170 C.2    73  GLU73       0.3649
     67  OE1      -41.4030   29.6320   31.5200 O.co2  73  GLU73      -0.2457
     68  OE2      -41.8400   31.4190   30.3150 O.co2  73  GLU73      -0.2457
     69  N        -35.9380   30.1440   31.5840 N.am   74  MET74      -0.1979
     70  CA       -35.0380   31.1290   32.1700 C.3    74  MET74       0.1605
     71  C        -33.7670   31.2450   31.3360 C.2    74  MET74       0.2287
     72  O        -33.3500   32.3440   30.9650 O.2    74  MET74      -0.2864
     73  CB       -34.7150   30.7440   33.6170 C.3    74  MET74       0.0413
     74  CG       -33.6600   31.6160   34.3100 C.3    74  MET74       0.0598
     75  SD       -33.2360   31.0410   35.9780 S.3    74  MET74      -0.1393
     76  CE       -32.5250   29.4340   35.6430 C.3    74  MET74       0.0692
     77  N        -34.2090   32.9960   28.0630 N.3    77  MET77      -0.1245
     78  CA       -34.2850   34.4500   28.1420 C.3    77  MET77       0.1570
     79  C        -32.8950   35.0530   28.2470 C.2    77  MET77       0.2261
     80  O        -32.6670   36.1850   27.8210 O.2    77  MET77      -0.2867
     81  CB       -35.1510   34.8780   29.3220 C.3    77  MET77       0.0387
     82  CG       -36.6310   34.5960   29.1360 C.3    77  MET77       0.0595
     83  SD       -37.6600   35.2250   30.4750 S.3    77  MET77      -0.1393
     84  CE       -37.4130   33.9550   31.7130 C.3    77  MET77       0.0692
     85  N        -40.7590   41.1750   27.4420 N.3    87  ILE87      -0.1245
     86  CA       -40.5970   40.9810   28.8840 C.3    87  ILE87       0.1561
     87  C        -39.2040   40.4210   29.1800 C.2    87  ILE87       0.2260
     88  O        -38.8430   39.3450   28.6990 O.2    87  ILE87      -0.2867
     89  CB       -41.6820   40.0300   29.4640 C.3    87  ILE87       0.0252
     90  CG1      -43.0780   40.6750   29.4140 C.3    87  ILE87       0.0019
     91  CG2      -41.3170   39.5670   30.8880 C.3    87  ILE87       0.0019
     92  CD1      -43.2730   41.9080   30.3030 C.3    87  ILE87       0.0001
     93  N        -38.0870   32.8380   39.2440 N.3   101  VAL101     -0.1245
     94  CA       -37.6470   33.5430   38.0410 C.3   101  VAL101      0.1561
     95  C        -38.2580   34.9400   38.0200 C.2   101  VAL101      0.2260
     96  O        -39.4790   35.1020   37.9310 O.2   101  VAL101     -0.2867
     97  CB       -37.9870   32.7670   36.7480 C.3   101  VAL101      0.0252
     98  CG1      -37.4250   33.4840   35.5270 C.3   101  VAL101      0.0019
     99  CG2      -37.4360   31.3470   36.8160 C.3   101  VAL101      0.0019
    100  N        -38.8380   38.6100   36.4660 N.3   103  VAL103     -0.1231
    101  CA       -38.8820   39.3150   35.1840 C.3   103  VAL103      0.1692
    102  C        -39.5350   40.6850   35.3270 C.2   103  VAL103      0.2592
    103  O        -40.0430   41.0220   36.3980 O.2   103  VAL103     -0.2718
    104  CB       -39.6380   38.4870   34.1040 C.3   103  VAL103      0.0266
    105  CG1      -38.8770   37.2080   33.7750 C.3   103  VAL103      0.0020
    106  CG2      -41.0620   38.1660   34.5520 C.3   103  VAL103      0.0020
    107  N        -39.5600   41.4480   34.2340 N.am  104  GLU104     -0.1966
    108  CA       -40.1410   42.7930   34.2230 C.3   104  GLU104      0.1733
    109  C        -41.6510   42.7570   34.4430 C.2   104  GLU104      0.2616
    110  O        -42.3390   41.8690   33.9340 O.2   104  GLU104     -0.2715
    111  CB       -39.8270   43.5140   32.9110 C.3   104  GLU104      0.0429
    112  CG       -38.3660   43.8910   32.7180 C.3   104  GLU104      0.1163
    113  CD       -38.1100   44.5720   31.3830 C.2   104  GLU104      0.3649
    114  OE1      -38.5470   44.0340   30.3450 O.co2 104  GLU104     -0.2457
    115  OE2      -37.4760   45.6490   31.3680 O.co2 104  GLU104     -0.2457
    116  N        -42.1590   43.7310   35.1950 N.am  105  TYR105     -0.1960
    117  CA       -43.5830   43.8000   35.5160 C.3   105  TYR105      0.1771
    118  C        -44.3260   44.8420   34.6870 C.2   105  TYR105      0.2619
    119  O        -43.9160   46.0040   34.6160 O.2   105  TYR105     -0.2715
    120  CB       -43.7760   44.0800   37.0060 C.3   105  TYR105      0.0574
    121  CG       -45.2040   44.3800   37.4180 C.ar  105  TYR105     -0.0198
    122  CD1      -46.1750   43.3750   37.4250 C.ar  105  TYR105     -0.0009
    123  CD2      -45.5780   45.6650   37.8250 C.ar  105  TYR105     -0.0009
    124  CE1      -47.4860   43.6430   37.8150 C.ar  105  TYR105      0.0417
    125  CE2      -46.8820   45.9450   38.2160 C.ar  105  TYR105      0.0417
    126  CZ       -47.8310   44.9290   38.2070 C.ar  105  TYR105      0.1957
    127  OH       -49.1260   45.1930   38.5880 O.3   105  TYR105     -0.2866
    128  N        -45.4180   44.4100   34.0640 N.am  106  ALA106     -0.1963
    129  CA       -46.2780   45.2950   33.2870 C.3   106  ALA106      0.1728
    130  C        -47.5850   45.5270   34.0430 C.2   106  ALA106      0.2617
    131  O        -48.4130   44.6150   34.1680 O.2   106  ALA106     -0.2715
    132  CB       -46.5450   44.7030   31.9090 C.3   106  ALA106      0.0334
    133  N        -47.7710   46.7550   34.5260 N.am  107  SER107     -0.1936
    134  CA       -48.8620   47.0800   35.4460 C.3   107  SER107      0.2055
    135  C        -50.2400   47.1000   34.7970 C.2   107  SER107      0.2643
    136  O        -51.2360   46.7910   35.4510 O.2   107  SER107     -0.2714
    137  CB       -48.6000   48.4180   36.1450 C.3   107  SER107      0.2130
    138  OG       -48.4610   49.4770   35.2140 O.3   107  SER107     -0.2179
    139  N        -50.2960   47.4560   33.5170 N.am  108  LYS108     -0.1963
    140  CA       -51.5770   47.6570   32.8440 C.3   108  LYS108      0.1728
    141  C        -52.1830   46.3750   32.2640 C.2   108  LYS108      0.2617
    142  O        -53.2660   46.4030   31.6780 O.2   108  LYS108     -0.2715
    143  CB       -51.4710   48.7660   31.7940 C.3   108  LYS108      0.0311
    144  CG       -51.1700   50.1270   32.4060 C.3   108  LYS108      0.0038
    145  CD       -51.4160   51.2670   31.4410 C.3   108  LYS108      0.0206
    146  CE       -51.3500   52.6030   32.1650 C.3   108  LYS108      0.1093
    147  NZ       -51.6850   53.7560   31.2850 N.3   108  LYS108     -0.1314
    148  N        -51.4850   45.2570   32.4420 N.am  109  GLY109     -0.1940
    149  CA       -51.9970   43.9580   32.0420 C.3   109  GLY109      0.2014
    150  C        -51.7100   43.6360   30.5940 C.2   109  GLY109      0.2638
    151  O        -50.8720   44.2860   29.9660 O.2   109  GLY109     -0.2714
    152  N        -52.4000   42.6250   30.0660 N.am  110  ASN110     -0.1972
    153  CA       -52.2510   42.2380   28.6640 C.3   110  ASN110      0.1688
    154  C        -52.9790   43.1840   27.7060 C.2   110  ASN110      0.2292
    155  O        -53.9360   43.8620   28.0850 O.2   110  ASN110     -0.2864
    156  CB       -52.6720   40.7850   28.4340 C.3   110  ASN110      0.1181
    157  CG       -54.1220   40.5430   28.7530 C.2   110  ASN110      0.2629
    158  OD1      -54.9860   40.6540   27.8830 O.2   110  ASN110     -0.2716
    159  ND2      -54.4030   40.2110   30.0080 N.am  110  ASN110     -0.0877
    160  N        -57.0270   43.1270   27.0950 N.3   113  GLU113     -0.1245
    161  CA       -57.8030   43.7700   28.1530 C.3   113  GLU113      0.1567
    162  C        -57.5430   45.2740   28.1950 C.2   113  GLU113      0.2260
    163  O        -58.4040   46.0510   28.6070 O.2   113  GLU113     -0.2867
    164  CB       -57.5040   43.1280   29.5120 C.3   113  GLU113      0.0388
    165  CG       -58.0000   41.6910   29.6340 C.3   113  GLU113      0.1160
    166  CD       -57.6550   41.0460   30.9640 C.2   113  GLU113      0.3649
    167  OE1      -57.2680   41.7670   31.9090 O.co2 113  GLU113     -0.2457
    168  OE2      -57.7740   39.8070   31.0630 O.co2 113  GLU113     -0.2457
    169  N        -47.9640   42.3860   26.8000 N.3   156  LEU156     -0.1245
    170  CA       -48.2400   43.0690   28.0610 C.3   156  LEU156      0.1561
    171  C        -47.9090   44.5540   27.9700 C.2   156  LEU156      0.2260
    172  O        -47.0260   44.9560   27.2040 O.2   156  LEU156     -0.2867
    173  CB       -47.4580   42.4230   29.2070 C.3   156  LEU156      0.0270
    174  CG       -47.8340   41.0040   29.6410 C.3   156  LEU156      0.0019
    175  CD1      -46.6960   40.3730   30.4330 C.3   156  LEU156      0.0001
    176  CD2      -49.1200   40.9990   30.4520 C.3   156  LEU156      0.0001
    177  N        -44.8030   38.7030   25.5790 N.3   166  ALA166     -0.1231
    178  CA       -44.7740   37.7790   26.7080 C.3   166  ALA166      0.1694
    179  C        -44.7790   36.3200   26.2510 C.2   166  ALA166      0.2592
    180  O        -45.2280   36.0070   25.1500 O.2   166  ALA166     -0.2718
    181  CB       -45.9490   38.0510   27.6390 C.3   166  ALA166      0.0304
    182  N        -44.2610   35.4390   27.1060 N.am  167  ASP167     -0.1960
    183  CA       -44.2360   33.9950   26.8540 C.3   167  ASP167      0.1840
    184  C        -43.6040   33.6150   25.5180 C.2   167  ASP167      0.2622
    185  O        -44.0930   32.7260   24.8160 O.2   167  ASP167     -0.2715
    186  CB       -45.6400   33.3970   26.9790 C.3   167  ASP167      0.1450
    187  CG       -46.1390   33.3860   28.4070 C.2   167  ASP167      0.3671
    188  OD1      -45.7460   32.4720   29.1600 O.co2 167  ASP167     -0.2456
    189  OD2      -46.9190   34.2870   28.7790 O.co2 167  ASP167     -0.2456
    190  N        -42.5170   34.2970   25.1770 N.am  168  PHE168     -0.1960
    191  CA       -41.7610   33.9820   23.9730 C.3   168  PHE168      0.1771
    192  C        -40.8310   32.7820   24.1600 C.2   168  PHE168      0.2620
    193  O        -40.4950   32.0950   23.1910 O.2   168  PHE168     -0.2715
    194  CB       -40.9810   35.2070   23.4890 C.3   168  PHE168      0.0574
    195  CG       -40.1700   35.8810   24.5610 C.ar  168  PHE168     -0.0200
    196  CD1      -40.7360   36.8730   25.3590 C.ar  168  PHE168     -0.0042
    197  CD2      -38.8330   35.5380   24.7620 C.ar  168  PHE168     -0.0042
    198  CE1      -39.9870   37.5090   26.3510 C.ar  168  PHE168     -0.0003
    199  CE2      -38.0740   36.1680   25.7520 C.ar  168  PHE168     -0.0003
    200  CZ       -38.6540   37.1570   26.5460 C.ar  168  PHE168     -0.0000
    201  N        -40.4300   32.5310   25.4050 N.am  169  GLY169     -0.1954
    202  CA       -39.4300   31.5200   25.7090 C.3   169  GLY169      0.1869
    203  C        -39.9550   30.1300   26.0210 C.2   169  GLY169      0.2309
    204  O        -39.2500   29.3260   26.6350 O.2   169  GLY169     -0.2863
@<TRIPOS>BOND
     1   193   192    2
     2   194   191    1
     3   194   195    1
     4   191   192    1
     5   191   190    1
     6   192   201   am
     7   195   197   ar
     8   195   196   ar
     9   197   199   ar
    10   185   184    2
    11   180   179    2
    12   190   184   am
    13   196   198   ar
    14   201   202    1
    15   184   183    1
    16   177   178    1
    17   202   203    1
    18   199   200   ar
    19   203   204    2
    20   179   178    1
    21   179   182   am
    22   198   200   ar
    23   178   181    1
    24   169   170    1
    25   183   186    1
    26   183   182    1
    27   186   187    1
    28   160   161    1
    29   172   171    2
    30    85    86    1
    31   154   155    2
    32   154   153    1
    33    80    79    2
    34   158   157    2
    35   171   170    1
    36   170   173    1
    37    77    78    1
    38    78    79    1
    39    78    81    1
    40   161   162    1
    41   161   164    1
    42   162   163    2
    43   187   189   ar
    44   187   188   ar
    45   156   153    1
    46   156   157    1
    47   153   152    1
    48    88    87    2
    49   157   159   am
    50    86    87    1
    51    86    89    1
    52    82    81    1
    53    82    83    1
    54   173   174    1
    55    90    89    1
    56    90    92    1
    57    89    91    1
    58   164   165    1
    59   165   166    1
    60   174   175    1
    61   174   176    1
    62    63    62    2
    63    61    60    1
    64    61    62    1
    65    61    64    1
    66   151   150    2
    67   152   150   am
    68    65    64    1
    69    65    66    1
    70    68    66   ar
    71   114   113   ar
    72    62    69   am
    73    83    84    1
    74   150   149    1
    75    66    67   ar
    76   166   168   ar
    77   166   167   ar
    78    72    71    2
    79   147   146    1
    80    71    70    1
    81   115   113   ar
    82   113   112    1
    83   145   146    1
    84   145   144    1
    85    69    70    1
    86   142   141    2
    87   143   144    1
    88   143   140    1
    89   132   129    1
    90   149   148    1
    91    70    73    1
    92   141   148   am
    93   141   140    1
    94   112   111    1
    95   140   139    1
    96    51    50    1
    97   111   108    1
    98   129   130    1
    99   129   128    1
   100    52    53    1
   101   139   135   am
   102    55    54    2
   103    73    74    1
   104   105   104    1
   105    54    53    1
   106   110   109    2
   107    53    56    1
   108   130   131    2
   109   130   133   am
   110   128   118   am
   111   104   106    1
   112   104   101    1
   113    50    49    1
   114   108   107    1
   115   108   109    1
   116   107   102   am
   117    74    75    1
   118   109   116   am
   119   133   134    1
   120    25    24    2
   121   119   118    2
   122   118   117    1
   123   135   134    1
   124   135   136    2
   125   101   102    1
   126   101   100    1
   127   116   117    1
   128    49    48    1
   129   138   137    1
   130   102   103    2
   131    24    23    1
   132   134   137    1
   133    56    57    1
   134   117   120    1
   135    98    97    1
   136    58    57    1
   137    76    75    1
   138    57    59    1
   139    37    35    1
   140    48    47    1
   141    22    23    1
   142    22    20   am
   143    97    99    1
   144    97    94    1
   145    23    26    1
   146    47    44    1
   147   120   121    1
   148    42    39    1
   149    26    27    1
   150    13    12    2
   151    19    20    1
   152    19    18    2
   153   121   122   ar
   154   121   123   ar
   155   122   124   ar
   156    36    35    1
   157    35    32    1
   158    20    21    2
   159   124   126   ar
   160   123   125   ar
   161    96    95    2
   162    41    40    2
   163    95    94    1
   164    12    18    1
   165    12    11    1
   166    94    93    1
   167   126   125   ar
   168   126   127    1
   169    16    15    1
   170    14    15    1
   171    14    11    1
   172    39    38    1
   173    39    40    1
   174    27    28    1
   175    44    43    1
   176    44    45    1
   177    17    15    1
   178    32    31    1
   179    32    33    1
   180    11    10    1
   181    45    46    2
   182    29    28   ar
   183    28    30   ar
   184    33    34    2
   185     9     8    1
   186     8     7    1
   187     4     3    2
   188     7     6    1
   189     6     5    1
   190     3     2    1
   191     5     2    1
   192     2     1    1
