@<TRIPOS>MOLECULE
tmp/3tt0A00.pdb
 187 175 0 0 0
SMALL
GASTEIGER

@<TRIPOS>ATOM
      1  N        -17.7240    4.4520   23.9100 N.3    22  LYS22      -0.1245
      2  CA       -18.5990    3.7220   22.9870 C.3    22  LYS22       0.1561
      3  C        -18.1210    3.7670   21.5310 C.2    22  LYS22       0.2260
      4  O        -17.4990    4.7470   21.1230 O.2    22  LYS22      -0.2867
      5  CB       -20.0180    4.2970   23.0620 C.3    22  LYS22       0.0271
      6  CG       -20.1250    5.7440   22.5760 C.3    22  LYS22       0.0035
      7  CD       -21.5640    6.2300   22.5410 C.3    22  LYS22       0.0206
      8  CE       -21.6590    7.6360   21.9610 C.3    22  LYS22       0.1093
      9  NZ       -23.0290    8.2050   22.0960 N.3    22  LYS22      -0.1314
     10  N        -18.2820    4.5170   17.6340 N.3    24  LEU24      -0.1231
     11  CA       -18.9890    5.3960   16.6930 C.3    24  LEU24       0.1693
     12  C        -19.4440    4.7600   15.3630 C.2    24  LEU24       0.2592
     13  O        -20.4780    5.1490   14.8200 O.2    24  LEU24      -0.2718
     14  CB       -18.2050    6.6900   16.4510 C.3    24  LEU24       0.0284
     15  CG       -18.0350    7.6020   17.6730 C.3    24  LEU24       0.0019
     16  CD1      -16.9920    8.6830   17.4210 C.3    24  LEU24       0.0001
     17  CD2      -19.3560    8.2270   18.1050 C.3    24  LEU24       0.0001
     18  N        -18.6740    3.8050   14.8370 N.am   25  GLY25      -0.1957
     19  CA       -19.0100    3.1580   13.5730 C.3    25  GLY25       0.1869
     20  C        -18.0350    2.0760   13.1410 C.2    25  GLY25       0.2309
     21  O        -16.9680    1.9330   13.7390 O.2    25  GLY25      -0.2863
     22  N        -14.2280    2.7940   14.5970 N.3    32  VAL32      -0.1245
     23  CA       -14.0980    4.1020   15.2250 C.3    32  VAL32       0.1561
     24  C        -14.8860    4.1190   16.5300 C.2    32  VAL32       0.2260
     25  O        -16.0010    3.5930   16.5960 O.2    32  VAL32      -0.2867
     26  CB       -14.5970    5.2360   14.2810 C.3    32  VAL32       0.0252
     27  CG1      -14.3040    6.6140   14.8720 C.3    32  VAL32       0.0019
     28  CG2      -13.9610    5.1120   12.9030 C.3    32  VAL32       0.0019
     29  N        -12.5930   11.2230   18.2490 N.3    52  ALA52      -0.1245
     30  CA       -12.8690    9.9700   17.5660 C.3    52  ALA52       0.1562
     31  C        -11.5580    9.2610   17.2970 C.2    52  ALA52       0.2260
     32  O        -10.6250    9.8520   16.7570 O.2    52  ALA52      -0.2867
     33  CB       -13.6190   10.2220   16.2750 C.3    52  ALA52       0.0290
     34  N         -9.6170    5.8770   15.6460 N.3    54  LYS54      -0.1245
     35  CA        -9.7160    4.7790   14.6940 C.3    54  LYS54       0.1561
     36  C         -8.6700    3.7110   14.9870 C.2    54  LYS54       0.2260
     37  O         -7.4920    4.0120   15.1850 O.2    54  LYS54      -0.2867
     38  CB        -9.5750    5.2900   13.2620 C.3    54  LYS54       0.0271
     39  CG       -10.0980    4.3390   12.2030 C.3    54  LYS54       0.0035
     40  CD        -9.9960    4.9770   10.8330 C.3    54  LYS54       0.0206
     41  CE       -10.8480    4.2540    9.8170 C.3    54  LYS54       0.1093
     42  NZ       -10.9740    5.0530    8.5690 N.3    54  LYS54      -0.1314
     43  N         -4.1430    2.3800    7.0680 N.3    68  LEU68      -0.1245
     44  CA        -4.3740    3.2440    8.2240 C.3    68  LEU68       0.1561
     45  C         -3.2740    4.2880    8.3970 C.2    68  LEU68       0.2260
     46  O         -3.5560    5.4550    8.6710 O.2    68  LEU68      -0.2867
     47  CB        -4.5350    2.4080    9.4960 C.3    68  LEU68       0.0270
     48  CG        -5.0380    3.1090   10.7630 C.3    68  LEU68       0.0019
     49  CD1       -6.3620    3.8410   10.5310 C.3    68  LEU68       0.0001
     50  CD2       -5.1670    2.1070   11.9110 C.3    68  LEU68       0.0001
     51  N         -3.6220    6.8580    5.6230 N.3    71  GLU71      -0.1245
     52  CA        -4.7200    7.7720    5.9050 C.3    71  GLU71       0.1567
     53  C         -4.2840    8.8520    6.8870 C.2    71  GLU71       0.2260
     54  O         -4.6190   10.0280    6.7180 O.2    71  GLU71      -0.2867
     55  CB        -5.9230    7.0020    6.4520 C.3    71  GLU71       0.0388
     56  CG        -7.2020    7.8310    6.5580 C.3    71  GLU71       0.1160
     57  CD        -8.4250    7.0050    6.9120 C.2    71  GLU71       0.3649
     58  OE1       -8.2760    5.8010    7.2250 O.co2  71  GLU71      -0.2457
     59  OE2       -9.5400    7.5680    6.8720 O.co2  71  GLU71      -0.2457
     60  N         -3.5600   12.9650    6.1290 N.3    75  MET75      -0.1245
     61  CA        -4.1950   14.0690    6.8390 C.3    75  MET75       0.1570
     62  C         -3.1540   15.0730    7.3030 C.2    75  MET75       0.2261
     63  O         -3.4480   16.2620    7.4280 O.2    75  MET75      -0.2867
     64  CB        -5.0040   13.5470    8.0200 C.3    75  MET75       0.0387
     65  CG        -6.2530   12.7850    7.6220 C.3    75  MET75       0.0595
     66  SD        -7.2510   12.2900    9.0320 S.3    75  MET75      -0.1393
     67  CE        -6.3720   10.8310    9.5870 C.3    75  MET75       0.0692
     68  N        -12.8430   17.0640    8.7120 N.3    85  ILE85      -0.1245
     69  CA       -12.4440   16.3460    9.9260 C.3    85  ILE85       0.1561
     70  C        -10.9200   16.3550   10.0540 C.2    85  ILE85       0.2260
     71  O        -10.2120   15.8580    9.1760 O.2    85  ILE85      -0.2867
     72  CB       -12.9740   14.8840    9.9440 C.3    85  ILE85       0.0252
     73  CG1      -14.5080   14.8540   10.0690 C.3    85  ILE85       0.0019
     74  CG2      -12.2890   14.0560   11.0510 C.3    85  ILE85       0.0019
     75  CD1      -15.0820   15.3790   11.3970 C.3    85  ILE85       0.0001
     76  N         -5.6050    6.4080   15.7810 N.3    99  VAL99      -0.1245
     77  CA        -5.6400    7.6740   15.0510 C.3    99  VAL99       0.1561
     78  C         -6.7610    8.5460   15.6110 C.2    99  VAL99       0.2260
     79  O         -7.9410    8.2010   15.5210 O.2    99  VAL99      -0.2867
     80  CB        -5.7900    7.4690   13.5250 C.3    99  VAL99       0.0252
     81  CG1       -5.7230    8.8060   12.7960 C.3    99  VAL99       0.0019
     82  CG2       -4.7070    6.5300   13.0060 C.3    99  VAL99       0.0019
     83  N         -8.9530   11.9210   15.7850 N.3   101  VAL101     -0.1231
     84  CA        -9.4460   13.0170   14.9520 C.3   101  VAL101      0.1692
     85  C        -10.5710   13.7850   15.6500 C.2   101  VAL101      0.2592
     86  O        -11.0230   13.3910   16.7260 O.2   101  VAL101     -0.2718
     87  CB        -9.9350   12.5060   13.5630 C.3   101  VAL101      0.0266
     88  CG1       -8.7770   11.9440   12.7550 C.3   101  VAL101      0.0020
     89  CG2      -11.0340   11.4570   13.7170 C.3   101  VAL101      0.0020
     90  N        -11.0330   14.8610   15.0150 N.am  102  GLU102     -0.1966
     91  CA       -12.1020   15.6980   15.5550 C.3   102  GLU102      0.1733
     92  C        -13.4290   14.9490   15.6140 C.2   102  GLU102      0.2616
     93  O        -13.7610   14.1810   14.7080 O.2   102  GLU102     -0.2715
     94  CB       -12.2680   16.9690   14.7230 C.3   102  GLU102      0.0429
     95  CG       -11.1150   17.9500   14.8130 C.3   102  GLU102      0.1163
     96  CD       -11.3280   19.1820   13.9450 C.2   102  GLU102      0.3649
     97  OE1      -11.6510   19.0240   12.7510 O.co2 102  GLU102     -0.2457
     98  OE2      -11.1750   20.3130   14.4530 O.co2 102  GLU102     -0.2457
     99  N        -14.1870   15.1860   16.6830 N.am  103  TYR103     -0.1960
    100  CA       -15.4710   14.5140   16.8920 C.3   103  TYR103      0.1771
    101  C        -16.6670   15.3980   16.5460 C.2   103  TYR103      0.2619
    102  O        -16.7850   16.5280   17.0310 O.2   103  TYR103     -0.2715
    103  CB       -15.5780   14.0090   18.3340 C.3   103  TYR103      0.0574
    104  CG       -16.9370   13.4740   18.7320 C.ar  103  TYR103     -0.0198
    105  CD1      -17.4040   12.2560   18.2370 C.ar  103  TYR103     -0.0009
    106  CD2      -17.7440   14.1760   19.6310 C.ar  103  TYR103     -0.0009
    107  CE1      -18.6510   11.7560   18.6140 C.ar  103  TYR103      0.0417
    108  CE2      -18.9910   13.6840   20.0160 C.ar  103  TYR103      0.0417
    109  CZ       -19.4340   12.4760   19.5030 C.ar  103  TYR103      0.1957
    110  OH       -20.6620   11.9880   19.8780 O.3   103  TYR103     -0.2866
    111  N        -17.5480   14.8640   15.7040 N.am  104  ALA104     -0.1963
    112  CA       -18.7810   15.5420   15.3380 C.3   104  ALA104      0.1728
    113  C        -19.9490   14.8600   16.0320 C.2   104  ALA104      0.2617
    114  O        -20.3300   13.7370   15.6920 O.2   104  ALA104     -0.2715
    115  CB       -18.9640   15.5420   13.8260 C.3   104  ALA104      0.0334
    116  N        -20.5100   15.5610   17.0080 N.am  105  SER105     -0.1936
    117  CA       -21.5150   14.9950   17.8950 C.3   105  SER105      0.2055
    118  C        -22.8260   14.6760   17.1890 C.2   105  SER105      0.2643
    119  O        -23.4710   13.6740   17.5010 O.2   105  SER105     -0.2714
    120  CB       -21.7590   15.9340   19.0760 C.3   105  SER105      0.2130
    121  OG       -21.8740   17.2780   18.6410 O.3   105  SER105     -0.2179
    122  N        -23.1960   15.5140   16.2230 N.am  106  LYS106     -0.1963
    123  CA       -24.5250   15.4610   15.6150 C.3   106  LYS106      0.1728
    124  C        -24.6540   14.4530   14.4670 C.2   106  LYS106      0.2617
    125  O        -25.7110   14.3400   13.8490 O.2   106  LYS106     -0.2715
    126  CB       -24.9860   16.8660   15.2050 C.3   106  LYS106      0.0311
    127  CG       -25.1380   17.8110   16.3990 C.3   106  LYS106      0.0038
    128  CD       -25.8110   19.1240   16.0420 C.3   106  LYS106      0.0206
    129  CE       -25.9820   19.9940   17.2780 C.3   106  LYS106      0.1093
    130  NZ       -26.9270   21.1180   17.0400 N.3   106  LYS106     -0.1314
    131  N        -23.5760   13.7210   14.2000 N.am  107  GLY107     -0.1940
    132  CA       -23.5810   12.6430   13.2260 C.3   107  GLY107      0.2014
    133  C        -23.3770   13.1290   11.8070 C.2   107  GLY107      0.2638
    134  O        -22.9630   14.2710   11.5930 O.2   107  GLY107     -0.2714
    135  N        -23.6630   12.2590   10.8400 N.am  108  ASN108     -0.1972
    136  CA       -23.5430   12.6120    9.4240 C.3   108  ASN108      0.1688
    137  C        -24.6960   13.4910    8.9490 C.2   108  ASN108      0.2292
    138  O        -25.7760   13.4840    9.5440 O.2   108  ASN108     -0.2864
    139  CB       -23.3800   11.3680    8.5370 C.3   108  ASN108      0.1181
    140  CG       -24.5670   10.4310    8.6100 C.2   108  ASN108      0.2629
    141  OD1      -25.5010   10.5330    7.8160 O.2   108  ASN108     -0.2716
    142  ND2      -24.5320    9.5050    9.5620 N.am  108  ASN108     -0.0877
    143  N        -28.4150   12.0250    8.0730 N.3   111  GLU111     -0.1245
    144  CA       -29.2630   11.7530    9.2320 C.3   111  GLU111      0.1567
    145  C        -29.6290   13.0380    9.9700 C.2   111  GLU111      0.2260
    146  O        -30.6760   13.1220   10.6150 O.2   111  GLU111     -0.2867
    147  CB       -28.5730   10.7730   10.1810 C.3   111  GLU111      0.0388
    148  CG       -28.4220    9.3650    9.6110 C.3   111  GLU111      0.1160
    149  CD       -27.6840    8.4160   10.5440 C.2   111  GLU111      0.3649
    150  OE1      -27.5060    8.7470   11.7380 O.co2 111  GLU111     -0.2457
    151  OE2      -27.2780    7.3310   10.0780 O.co2 111  GLU111     -0.2457
    152  N        -19.9540   15.3240    8.1440 N.3   170  LEU170     -0.1245
    153  CA       -20.3120   15.2110    9.5560 C.3   170  LEU170      0.1561
    154  C        -20.6240   16.5740   10.1580 C.2   170  LEU170      0.2260
    155  O        -20.0950   17.5910    9.7120 O.2   170  LEU170     -0.2867
    156  CB       -19.1960   14.5200   10.3450 C.3   170  LEU170      0.0270
    157  CG       -18.9240   13.0350   10.0770 C.3   170  LEU170      0.0019
    158  CD1      -17.5490   12.6560   10.5850 C.3   170  LEU170      0.0001
    159  CD2      -19.9900   12.1440   10.7020 C.3   170  LEU170      0.0001
    160  N        -15.7510   14.2030    5.6720 N.3   180  ALA180     -0.1231
    161  CA       -15.2110   12.9850    6.2660 C.3   180  ALA180      0.1694
    162  C        -14.6860   12.0200    5.2090 C.2   180  ALA180      0.2592
    163  O        -15.1110   12.0590    4.0560 O.2   180  ALA180     -0.2718
    164  CB       -16.2690   12.3030    7.1180 C.3   180  ALA180      0.0304
    165  N        -13.7510   11.1640    5.6170 N.am  181  ASP181     -0.1960
    166  CA       -13.1720   10.1310    4.7540 C.3   181  ASP181      0.1840
    167  C        -12.6160   10.6780    3.4310 C.2   181  ASP181      0.2622
    168  O        -12.7770   10.0590    2.3770 O.2   181  ASP181     -0.2715
    169  CB       -14.1860    9.0100    4.4970 C.3   181  ASP181      0.1450
    170  CG       -14.4630    8.1810    5.7330 C.2   181  ASP181      0.3671
    171  OD1      -13.6520    7.2820    6.0270 O.co2 181  ASP181     -0.2456
    172  OD2      -15.4880    8.4240    6.4070 O.co2 181  ASP181     -0.2456
    173  N        -11.9640   11.8380    3.5000 N.am  182  PHE182     -0.1960
    174  CA       -11.3350   12.4530    2.3270 C.3   182  PHE182      0.1771
    175  C         -9.9610   11.8710    1.9890 C.2   182  PHE182      0.2620
    176  O         -9.5370   11.8940    0.8280 O.2   182  PHE182     -0.2715
    177  CB       -11.2440   13.9780    2.4750 C.3   182  PHE182      0.0574
    178  CG       -10.5400   14.4380    3.7240 C.ar  182  PHE182     -0.0200
    179  CD1      -11.2630   14.7040    4.8880 C.ar  182  PHE182     -0.0042
    180  CD2       -9.1580   14.6280    3.7370 C.ar  182  PHE182     -0.0042
    181  CE1      -10.6180   15.1410    6.0500 C.ar  182  PHE182     -0.0003
    182  CE2       -8.5040   15.0660    4.8970 C.ar  182  PHE182     -0.0003
    183  CZ        -9.2370   15.3210    6.0540 C.ar  182  PHE182     -0.0000
    184  N         -9.2740   11.3500    3.0000 N.am  183  GLY183     -0.1954
    185  CA        -7.9030   10.8910    2.8360 C.3   183  GLY183      0.1869
    186  C         -7.7340    9.4280    2.4690 C.2   183  GLY183      0.2309
    187  O         -6.6640    8.8590    2.6820 O.2   183  GLY183     -0.2863
@<TRIPOS>BOND
     1   176   175    2
     2   175   174    1
     3   175   184   am
     4   174   177    1
     5   174   173    1
     6   168   167    2
     7   186   187    2
     8   186   185    1
     9   177   178    1
    10   185   184    1
    11   167   173   am
    12   167   166    1
    13   178   180   ar
    14   178   179   ar
    15   180   182   ar
    16   163   162    2
    17   169   166    1
    18   169   170    1
    19   166   165    1
    20   179   181   ar
    21   182   183   ar
    22   162   165   am
    23   162   161    1
    24    51    52    1
    25   160   161    1
    26   170   171   ar
    27   170   172   ar
    28    52    55    1
    29    52    53    1
    30   181   183   ar
    31    60    61    1
    32   161   164    1
    33    55    56    1
    34    56    57    1
    35    54    53    2
    36    61    62    1
    37    61    64    1
    38    59    57   ar
    39    57    58   ar
    40    43    44    1
    41    62    63    2
    42    65    64    1
    43    65    66    1
    44   141   140    2
    45   143   144    1
    46   152   153    1
    47    44    45    1
    48    44    47    1
    49    45    46    2
    50   139   140    1
    51   139   136    1
    52    42    41    1
    53   140   142   am
    54    68    69    1
    55   137   136    1
    56   137   138    2
    57    66    67    1
    58    71    70    2
    59   144   145    1
    60   144   147    1
    61   136   135    1
    62    47    48    1
    63   153   154    1
    64   153   156    1
    65   148   147    1
    66   148   149    1
    67   155   154    2
    68    41    40    1
    69    69    72    1
    70    69    70    1
    71    72    73    1
    72    72    74    1
    73   145   146    2
    74    73    75    1
    75   157   156    1
    76   157   158    1
    77   157   159    1
    78   151   149   ar
    79    49    48    1
    80   149   150   ar
    81    48    50    1
    82    40    39    1
    83   135   133   am
    84   134   133    2
    85   133   132    1
    86    39    38    1
    87    97    96   ar
    88    88    87    1
    89    81    80    1
    90    28    26    1
    91    82    80    1
    92    20    19    1
    93    20    21    2
    94   132   131    1
    95    38    35    1
    96    80    77    1
    97    87    89    1
    98    87    84    1
    99    19    18    1
   100   115   112    1
   101   125   124    2
   102    96    98   ar
   103    96    95    1
   104   131   124   am
   105    26    27    1
   106    26    23    1
   107   124   123    1
   108    22    23    1
   109    35    36    1
   110    35    34    1
   111    93    92    2
   112    94    95    1
   113    94    91    1
   114    13    12    2
   115    18    12   am
   116    84    85    1
   117    84    83    1
   118    36    37    2
   119    90    91    1
   120    90    85   am
   121    77    78    1
   122    77    76    1
   123   126   123    1
   124   126   127    1
   125    23    24    1
   126   112   111    1
   127   112   113    1
   128    12    11    1
   129    79    78    2
   130    91    92    1
   131    92    99   am
   132   123   122    1
   133    85    86    2
   134   114   113    2
   135   111   101   am
   136   113   116   am
   137   128   127    1
   138   128   129    1
   139   122   118   am
   140    33    30    1
   141    14    11    1
   142    14    15    1
   143    24    25    2
   144   101   100    1
   145   101   102    2
   146    99   100    1
   147    11    10    1
   148    32    31    2
   149   100   103    1
   150   116   117    1
   151   130   129    1
   152   118   119    2
   153   118   117    1
   154    31    30    1
   155    16    15    1
   156    30    29    1
   157    15    17    1
   158   117   120    1
   159   105   107   ar
   160   105   104   ar
   161   103   104    1
   162   107   109   ar
   163   121   120    1
   164   104   106   ar
   165   109   110    1
   166   109   108   ar
   167   106   108   ar
   168     4     3    2
   169     3     2    1
   170     8     9    1
   171     8     7    1
   172     7     6    1
   173     6     5    1
   174     2     5    1
   175     2     1    1
