@<TRIPOS>MOLECULE
tmp/3tt2A01.pdb
 101 94 0 0 0
SMALL
GASTEIGER

@<TRIPOS>ATOM
      1  N         29.9290   54.6260   78.5170 N.3    80  VAL80      -0.1245
      2  CA        28.7680   54.7370   79.3880 C.3    80  VAL80       0.1561
      3  C         27.7380   55.6490   78.7390 C.2    80  VAL80       0.2260
      4  O         28.0870   56.7420   78.2930 O.2    80  VAL80      -0.2867
      5  CB        29.1700   55.2900   80.7730 C.3    80  VAL80       0.0252
      6  CG1       27.9480   55.5110   81.6410 C.3    80  VAL80       0.0019
      7  CG2       30.1270   54.3650   81.4550 C.3    80  VAL80       0.0019
      8  N         24.4520   57.6090   79.6620 N.3    82  GLY82      -0.1210
      9  CA        23.5230   57.9870   80.7150 C.3    82  GLY82       0.1956
     10  C         22.4540   58.9510   80.2580 C.2    82  GLY82       0.2612
     11  O         22.5930   59.5800   79.2010 O.2    82  GLY82      -0.2717
     12  N         21.3950   59.0850   81.0620 N.am   83  TYR83      -0.1962
     13  CA        20.3490   60.0960   80.8550 C.3    83  TYR83       0.1771
     14  C         19.7540   60.4280   82.1960 C.2    83  TYR83       0.2619
     15  O         19.5140   59.5290   82.9950 O.2    83  TYR83      -0.2715
     16  CB        19.2310   59.5640   79.9570 C.3    83  TYR83       0.0574
     17  CG        19.7390   58.9640   78.6740 C.ar   83  TYR83      -0.0198
     18  CD1       19.7650   59.7020   77.5020 C.ar   83  TYR83      -0.0009
     19  CD2       20.2180   57.6550   78.6380 C.ar   83  TYR83      -0.0009
     20  CE1       20.2460   59.1500   76.3330 C.ar   83  TYR83       0.0417
     21  CE2       20.7050   57.1100   77.4850 C.ar   83  TYR83       0.0417
     22  CZ        20.7130   57.8550   76.3390 C.ar   83  TYR83       0.1957
     23  OH        21.2050   57.2790   75.2020 O.3    83  TYR83      -0.2866
     24  N         19.4610   61.6990   82.4310 N.am   84  VAL84      -0.1977
     25  CA        18.7160   62.0830   83.6280 C.3    84  VAL84       0.1596
     26  C         17.5930   63.0080   83.2180 C.2    84  VAL84       0.2287
     27  O         17.8120   64.0040   82.5320 O.2    84  VAL84      -0.2864
     28  CB        19.5970   62.7460   84.7190 C.3    84  VAL84       0.0276
     29  CG1       20.3770   63.8800   84.1480 C.3    84  VAL84       0.0022
     30  CG2       18.7420   63.2590   85.8720 C.3    84  VAL84       0.0022
     31  N         17.4600   67.1640   87.2500 N.3    89  ARG89      -0.1231
     32  CA        18.8330   67.6750   87.2000 C.3    89  ARG89       0.1694
     33  C         19.1990   68.4740   88.4680 C.2    89  ARG89       0.2592
     34  O         18.3590   69.1880   89.0290 O.2    89  ARG89      -0.2718
     35  CB        19.0560   68.5340   85.9460 C.3    89  ARG89       0.0321
     36  CG        18.1500   68.2060   84.7510 C.3    89  ARG89       0.0489
     37  CD        18.7240   67.1420   83.7950 C.3    89  ARG89       0.2205
     38  NE        19.2070   67.7050   82.5210 N.pl3  89  ARG89      -0.0865
     39  CZ        19.0310   67.1510   81.3150 C.cat  89  ARG89       0.5346
     40  NH1       18.3650   66.0100   81.1800 N.pl3  89  ARG89       0.1354
     41  NH2       19.5250   67.7390   80.2310 N.pl3  89  ARG89       0.1354
     42  N         20.4460   68.3460   88.9160 N.am   90  GLY90      -0.1957
     43  CA        20.9170   69.0750   90.0800 C.3    90  GLY90       0.1869
     44  C         20.5050   68.4130   91.3790 C.2    90  GLY90       0.2309
     45  O         20.5010   69.0450   92.4400 O.2    90  GLY90      -0.2863
     46  N         22.7910   62.6830   88.1960 N.3    93  GLY93      -0.1225
     47  CA        23.7610   62.5460   87.1180 C.3    93  GLY93       0.1811
     48  C         25.1300   62.1380   87.6450 C.2    93  GLY93       0.2280
     49  O         25.8530   61.3850   86.9930 O.2    93  GLY93      -0.2866
     50  N         24.9460   58.2130   88.4450 N.3    96  LEU96      -0.1231
     51  CA        25.1670   57.3910   87.2490 C.3    96  LEU96       0.1693
     52  C         26.6350   57.3240   86.8690 C.2    96  LEU96       0.2591
     53  O         27.1450   56.2730   86.4750 O.2    96  LEU96      -0.2718
     54  CB        24.4140   57.9540   86.0480 C.3    96  LEU96       0.0284
     55  CG        22.8960   57.9490   86.0960 C.3    96  LEU96       0.0019
     56  CD1       22.3540   58.3990   84.7590 C.3    96  LEU96       0.0001
     57  CD2       22.4080   56.5590   86.4460 C.3    96  LEU96       0.0001
     58  N         27.3050   58.4640   86.9690 N.am   97  VAL97      -0.1980
     59  CA        28.6980   58.5410   86.5930 C.3    97  VAL97       0.1595
     60  C         29.5180   57.5580   87.4110 C.2    97  VAL97       0.2287
     61  O         30.2310   56.7290   86.8450 O.2    97  VAL97      -0.2864
     62  CB        29.2360   59.9580   86.7550 C.3    97  VAL97       0.0276
     63  CG1       30.7540   59.9640   86.6670 C.3    97  VAL97       0.0022
     64  CG2       28.6290   60.8570   85.6990 C.3    97  VAL97       0.0022
     65  N         32.4290   58.8720   78.0710 N.3   120  HIS120     -0.1241
     66  CA        31.0660   59.3090   77.8200 C.3   120  HIS120      0.1621
     67  C         31.0240   60.0800   76.5150 C.2   120  HIS120      0.2264
     68  O         31.9580   60.8100   76.1910 O.2   120  HIS120     -0.2867
     69  CB        30.6110   60.2580   78.9180 C.3   120  HIS120      0.0745
     70  CG        30.2820   59.5860   80.2130 C.ar  120  HIS120      0.0817
     71  ND1       28.9850   59.3850   80.6350 N.ar  120  HIS120     -0.2268
     72  CD2       31.0770   59.0950   81.1940 C.ar  120  HIS120      0.1154
     73  CE1       28.9970   58.7880   81.8160 C.ar  120  HIS120      0.1986
     74  NE2       30.2550   58.6030   82.1770 N.ar  120  HIS120     -0.2212
     75  N         29.1330   63.0730   75.0140 N.3   122  ILE122     -0.1245
     76  CA        28.2540   64.1480   75.4200 C.3   122  ILE122      0.1561
     77  C         27.8120   64.9830   74.2180 C.2   122  ILE122      0.2260
     78  O         28.6330   65.3460   73.3850 O.2   122  ILE122     -0.2867
     79  CB        28.9500   65.0500   76.4600 C.3   122  ILE122      0.0252
     80  CG1       29.5050   64.2030   77.6040 C.3   122  ILE122      0.0019
     81  CG2       27.9830   66.0760   77.0210 C.3   122  ILE122      0.0019
     82  CD1       28.4830   63.2610   78.1890 C.3   122  ILE122      0.0001
     83  N         25.1690   71.4180   80.7830 N.3   128  SER128     -0.1202
     84  CA        24.9570   70.8000   82.0830 C.3   128  SER128      0.2020
     85  C         25.8630   69.5890   82.2430 C.2   128  SER128      0.2618
     86  O         26.5460   69.4390   83.2590 O.2   128  SER128     -0.2717
     87  CB        23.4980   70.3700   82.2360 C.3   128  SER128      0.2103
     88  OG        23.2400   69.1760   81.5140 O.3   128  SER128     -0.2182
     89  N         25.8670   68.7300   81.2270 N.am  129  ALA129     -0.1979
     90  CA        26.6440   67.5070   81.2790 C.3   129  ALA129      0.1597
     91  C         28.1060   67.7990   80.9990 C.2   129  ALA129      0.2287
     92  O         28.9940   67.1140   81.5060 O.2   129  ALA129     -0.2864
     93  CB        26.0980   66.5040   80.3070 C.3   129  ALA129      0.0319
     94  N         29.5010   68.5120   84.2960 N.3   132  LEU132     -0.1245
     95  CA        29.5200   67.3310   85.1470 C.3   132  LEU132      0.1561
     96  C         30.7350   66.4720   84.8370 C.2   132  LEU132      0.2260
     97  O         31.3460   65.9180   85.7450 O.2   132  LEU132     -0.2867
     98  CB        28.2490   66.5130   84.9730 C.3   132  LEU132      0.0270
     99  CG        28.2100   65.2900   85.8810 C.3   132  LEU132      0.0019
    100  CD1       27.8580   65.6880   87.2960 C.3   132  LEU132      0.0001
    101  CD2       27.2330   64.2840   85.3500 C.3   132  LEU132      0.0001
@<TRIPOS>BOND
     1    78    77    2
     2    77    76    1
     3    75    76    1
     4    23    22    1
     5    76    79    1
     6    68    67    2
     7    20    22   ar
     8    20    18   ar
     9    22    21   ar
    10    79    81    1
    11    79    80    1
    12    67    66    1
    13    21    19   ar
    14    18    17   ar
    15    80    82    1
    16    66    65    1
    17    66    69    1
    18     4     3    2
    19     1     2    1
    20    19    17   ar
    21    17    16    1
    22     3     2    1
    23    69    70    1
    24    11    10    2
    25     2     5    1
    26     8     9    1
    27    16    13    1
    28    70    71   ar
    29    70    72   ar
    30    41    39    1
    31    10     9    1
    32    10    12   am
    33    93    90    1
    34    71    73   ar
    35     5     7    1
    36     5     6    1
    37    83    84    1
    38    13    12    1
    39    13    14    1
    40    91    90    1
    41    91    92    2
    42    40    39    1
    43    72    74   ar
    44    89    90    1
    45    89    85   am
    46    39    38    2
    47    88    87    1
    48    73    74   ar
    49    84    87    1
    50    84    85    1
    51    14    24   am
    52    14    15    2
    53    85    86    2
    54    24    25    1
    55    38    37    1
    56    27    26    2
    57    26    25    1
    58    25    28    1
    59    37    36    1
    60    29    28    1
    61    94    95    1
    62    28    30    1
    63    36    35    1
    64    56    55    1
    65    96    95    1
    66    96    97    2
    67    98    95    1
    68    98    99    1
    69   101    99    1
    70    64    62    1
    71    99   100    1
    72    35    32    1
    73    54    55    1
    74    54    51    1
    75    55    57    1
    76    53    52    2
    77    59    62    1
    78    59    58    1
    79    59    60    1
    80    63    62    1
    81    61    60    2
    82    52    58   am
    83    52    51    1
    84    49    48    2
    85    47    48    1
    86    47    46    1
    87    32    31    1
    88    32    33    1
    89    51    50    1
    90    33    42   am
    91    33    34    2
    92    42    43    1
    93    43    44    1
    94    44    45    2
