@<TRIPOS>MOLECULE
tmp/3tt4A00.pdb
 174 173 0 0 0
SMALL
GASTEIGER

@<TRIPOS>ATOM
      1  N         -0.2560    5.3640   -9.7270 N.3    75  GLY75      -0.1210
      2  CA        -0.1830    5.3070  -11.1980 C.3    75  GLY75       0.1956
      3  C         -1.5210    5.6520  -11.8800 C.2    75  GLY75       0.2612
      4  O         -2.0350    6.7650  -11.6840 O.2    75  GLY75      -0.2717
      5  N         -2.0420    4.7580  -12.7460 N.am   76  ILE76      -0.1965
      6  CA        -3.3740    4.9790  -13.3580 C.3    76  ILE76       0.1727
      7  C         -4.5180    4.9320  -12.2950 C.2    76  ILE76       0.2616
      8  O         -4.7340    3.8920  -11.7060 O.2    76  ILE76      -0.2715
      9  CB        -3.6460    3.9240  -14.3840 C.3    76  ILE76       0.0290
     10  CG1       -2.5870    3.9880  -15.5110 C.3    76  ILE76       0.0022
     11  CG2       -5.0660    4.0900  -14.8560 C.3    76  ILE76       0.0023
     12  CD1       -2.4230    2.7190  -16.3250 C.3    76  ILE76       0.0001
     13  N         -5.2410    6.0330  -12.0410 N.am   77  LEU77      -0.1963
     14  CA        -6.3310    5.9950  -11.0540 C.3    77  LEU77       0.1728
     15  C         -7.6470    5.4820  -11.6930 C.2    77  LEU77       0.2616
     16  O         -8.4760    4.8760  -11.0030 O.2    77  LEU77      -0.2715
     17  CB        -6.5590    7.3690  -10.4050 C.3    77  LEU77       0.0311
     18  CG        -5.2560    8.0790   -9.9830 C.3    77  LEU77       0.0022
     19  CD1       -5.5370    9.4750   -9.3800 C.3    77  LEU77       0.0001
     20  CD2       -4.4180    7.1470   -9.0120 C.3    77  LEU77       0.0001
     21  N         -7.8160    5.7800  -12.9970 N.am   78  ALA78      -0.1963
     22  CA        -9.0880    5.5890  -13.6470 C.3    78  ALA78       0.1728
     23  C         -8.7980    5.8530  -15.0820 C.2    78  ALA78       0.2616
     24  O         -7.7080    6.3380  -15.3960 O.2    78  ALA78      -0.2715
     25  CB       -10.1370    6.5570  -13.0850 C.3    78  ALA78       0.0334
     26  N         -9.7110    5.4370  -15.9620 N.am   79  HIS79      -0.1959
     27  CA        -9.7130    5.8570  -17.3960 C.3    79  HIS79       0.1787
     28  C        -11.1570    5.9550  -17.9140 C.2    79  HIS79       0.2620
     29  O        -12.0880    5.4990  -17.2330 O.2    79  HIS79      -0.2715
     30  CB        -8.7890    4.9780  -18.2840 C.3    79  HIS79       0.0785
     31  CG        -9.1370    3.5120  -18.3360 C.ar   79  HIS79       0.0821
     32  ND1       -8.1710    2.5270  -18.4380 N.ar   79  HIS79      -0.2267
     33  CD2      -10.3300    2.8700  -18.3810 C.ar   79  HIS79       0.1154
     34  CE1       -8.7480    1.3290  -18.4210 C.ar   79  HIS79       0.1986
     35  NE2      -10.0630    1.5090  -18.4040 N.ar   79  HIS79      -0.2212
     36  N        -11.3830    6.5000  -19.1280 N.am   80  ALA80      -0.1977
     37  CA       -12.7470    6.6920  -19.5560 C.3    80  ALA80       0.1597
     38  C        -12.6310    6.7300  -21.0740 C.2    80  ALA80       0.2287
     39  O        -11.5790    7.1490  -21.5630 O.2    80  ALA80      -0.2864
     40  CB       -13.3620    8.0010  -19.0510 C.3    80  ALA80       0.0319
     41  N        -13.1990   14.1630   -7.4070 N.3   110  LEU110     -0.1231
     42  CA       -12.2390   14.8130   -8.3020 C.3   110  LEU110      0.1693
     43  C        -11.8510   13.8970   -9.4460 C.2   110  LEU110      0.2591
     44  O        -11.8930   14.2770  -10.6120 O.2   110  LEU110     -0.2718
     45  CB       -11.0020   15.2530   -7.5030 C.3   110  LEU110      0.0284
     46  CG       -11.1930   16.5020   -6.6470 C.3   110  LEU110      0.0019
     47  CD1       -9.9330   16.7690   -5.8710 C.3   110  LEU110      0.0001
     48  CD2      -11.6380   17.7200   -7.4560 C.3   110  LEU110      0.0001
     49  N        -11.5040   12.6380   -9.1280 N.am  111  VAL111     -0.1980
     50  CA       -11.1010   11.7070  -10.2440 C.3   111  VAL111      0.1595
     51  C        -12.2580   11.4830  -11.1840 C.2   111  VAL111      0.2287
     52  O        -12.0870   11.5470  -12.4020 O.2   111  VAL111     -0.2864
     53  CB       -10.5460   10.3260   -9.7320 C.3   111  VAL111      0.0276
     54  CG1      -10.2830    9.3730  -10.9280 C.3   111  VAL111      0.0022
     55  CG2       -9.2710   10.5620   -8.9330 C.3   111  VAL111      0.0022
     56  N        -12.7470   14.5520  -13.5540 N.3   114  HIS114     -0.1226
     57  CA       -11.7680   14.4820  -14.6490 C.3   114  HIS114      0.1752
     58  C        -12.1750   13.4650  -15.7140 C.2   114  HIS114      0.2595
     59  O        -12.1140   13.7570  -16.9420 O.2   114  HIS114     -0.2718
     60  CB       -10.3790   14.1360  -14.0510 C.3   114  HIS114      0.0759
     61  CG        -9.3120   13.9220  -15.0550 C.ar  114  HIS114      0.0818
     62  ND1       -8.5080   14.9580  -15.5180 N.ar  114  HIS114     -0.2268
     63  CD2       -8.8770   12.7920  -15.6680 C.ar  114  HIS114      0.1154
     64  CE1       -7.6440   14.4710  -16.3790 C.ar  114  HIS114      0.1986
     65  NE2       -7.8070   13.1460  -16.4480 N.ar  114  HIS114     -0.2212
     66  N        -12.4560   12.2370  -15.2670 N.am  115  GLU115     -0.1979
     67  CA       -12.8520   11.1300  -16.1620 C.3   115  GLU115      0.1602
     68  C        -14.0840   11.4980  -17.0020 C.2   115  GLU115      0.2287
     69  O        -14.1220   11.2570  -18.2490 O.2   115  GLU115     -0.2864
     70  CB       -13.1380    9.8360  -15.2960 C.3   115  GLU115      0.0415
     71  CG       -11.9220    9.1030  -14.8320 C.3   115  GLU115      0.1163
     72  CD       -10.7110    9.1230  -15.7650 C.2   115  GLU115      0.3649
     73  OE1      -10.8440    9.0940  -17.0570 O.co2 115  GLU115     -0.2457
     74  OE2       -9.5920    9.1930  -15.2280 O.co2 115  GLU115     -0.2457
     75  N        -13.2700   13.4350  -20.1640 N.3   118  HIS118     -0.1241
     76  CA       -12.9610   12.4650  -21.1940 C.3   118  HIS118      0.1621
     77  C        -14.2540   11.8110  -21.7670 C.2   118  HIS118      0.2264
     78  O        -14.4380   11.6780  -23.0250 O.2   118  HIS118     -0.2867
     79  CB       -12.0430   11.3690  -20.6510 C.3   118  HIS118      0.0745
     80  CG       -10.6260   11.8140  -20.3740 C.ar  118  HIS118      0.0817
     81  ND1       -9.8570   12.4600  -21.3280 N.ar  118  HIS118     -0.2268
     82  CD2       -9.8310   11.6800  -19.2680 C.ar  118  HIS118      0.1154
     83  CE1       -8.6570   12.7050  -20.8390 C.ar  118  HIS118      0.1986
     84  NE2       -8.5970   12.2250  -19.6050 N.ar  118  HIS118     -0.2212
     85  N         -6.7820   16.2560  -22.6170 N.3   124  HIS124     -0.1241
     86  CA        -6.0460   16.9330  -21.5720 C.3   124  HIS124      0.1621
     87  C         -5.7590   18.4170  -21.9500 C.2   124  HIS124      0.2264
     88  O         -5.6540   18.7530  -23.1270 O.2   124  HIS124     -0.2867
     89  CB        -4.7430   16.1920  -21.2420 C.3   124  HIS124      0.0745
     90  CG        -4.9640   14.8710  -20.5810 C.ar  124  HIS124      0.0817
     91  ND1       -4.3100   13.7100  -20.9710 N.ar  124  HIS124     -0.2268
     92  CD2       -5.7470   14.5280  -19.5340 C.ar  124  HIS124      0.1154
     93  CE1       -4.7170   12.7050  -20.2220 C.ar  124  HIS124      0.1986
     94  NE2       -5.5660   13.1820  -19.3210 N.ar  124  HIS124     -0.2212
     95  N         -6.3380   23.5440  -14.6900 N.3   130  ALA130     -0.1231
     96  CA        -7.5330   22.9020  -15.2570 C.3   130  ALA130      0.1694
     97  C         -7.8610   21.5470  -14.6070 C.2   130  ALA130      0.2591
     98  O         -6.9600   20.8380  -14.1140 O.2   130  ALA130     -0.2718
     99  CB        -7.3740   22.7060  -16.7900 C.3   130  ALA130      0.0304
    100  N         -9.1440   21.1630  -14.6420 N.am  131  LEU131     -0.1980
    101  CA        -9.5290   19.8060  -14.2570 C.3   131  LEU131      0.1596
    102  C         -8.9410   18.7820  -15.1910 C.2   131  LEU131      0.2287
    103  O         -8.5150   17.7130  -14.7570 O.2   131  LEU131     -0.2864
    104  CB       -11.0670   19.6770  -14.2780 C.3   131  LEU131      0.0297
    105  CG       -11.6330   18.3140  -13.8450 C.3   131  LEU131      0.0022
    106  CD1      -11.1270   17.8770  -12.4190 C.3   131  LEU131      0.0001
    107  CD2      -13.1890   18.4290  -13.8320 C.3   131  LEU131      0.0001
    108  N         -6.1590   18.6920  -16.5790 N.3   133  TYR133     -0.1228
    109  CA        -4.6920   18.5830  -16.5080 C.3   133  TYR133      0.1721
    110  C         -4.3590   17.0880  -16.3380 C.2   133  TYR133      0.2437
    111  O         -5.1020   16.3670  -15.6110 O.2   133  TYR133     -0.2733
    112  CB        -4.1490   19.3870  -15.3390 C.3   133  TYR133      0.0547
    113  CG        -2.6260   19.5640  -15.3830 C.ar  133  TYR133     -0.0200
    114  CD1       -1.9720   20.2350  -16.4670 C.ar  133  TYR133     -0.0009
    115  CD2       -1.8460   19.0480  -14.3650 C.ar  133  TYR133     -0.0009
    116  CE1       -0.5510   20.3880  -16.4820 C.ar  133  TYR133      0.0417
    117  CE2       -0.4320   19.1860  -14.3700 C.ar  133  TYR133      0.0417
    118  CZ         0.1950   19.8680  -15.4170 C.ar  133  TYR133      0.1957
    119  OH         1.5600   19.9680  -15.3880 O.3   133  TYR133     -0.2866
    120  N         -3.2260   16.6210  -16.9600 N.am  134  PRO134     -0.2718
    121  CA        -3.0430   15.1870  -16.9750 C.3   134  PRO134      0.1535
    122  C         -2.7840   14.5740  -15.5930 C.2   134  PRO134      0.2599
    123  O         -3.0230   13.3830  -15.4190 O.2   134  PRO134     -0.2715
    124  CB        -1.8750   14.9700  -17.9860 C.3   134  PRO134      0.0310
    125  CG        -1.8880   16.2090  -18.9210 C.3   134  PRO134      0.0237
    126  CD        -2.2630   17.3000  -17.8770 C.3   134  PRO134      0.0939
    127  N         -2.3100   15.3640  -14.6390 N.am  135  ASN135     -0.1959
    128  CA        -1.9960   14.8350  -13.2870 C.3   135  ASN135      0.1819
    129  C         -2.9530   15.3290  -12.2140 C.2   135  ASN135      0.2621
    130  O         -3.3710   16.5070  -12.2390 O.2   135  ASN135     -0.2715
    131  CB        -0.5370   15.1580  -12.8530 C.3   135  ASN135      0.1195
    132  CG         0.5310   14.4720  -13.7600 C.2   135  ASN135      0.2630
    133  OD1        0.3110   13.3890  -14.2950 O.2   135  ASN135     -0.2716
    134  ND2        1.7010   15.0800  -13.8440 N.am  135  ASN135     -0.0877
    135  N         -3.2440   14.4310  -11.2630 N.am  136  TYR136     -0.1960
    136  CA        -4.1310   14.6440  -10.1420 C.3   136  TYR136      0.1771
    137  C         -3.4440   15.4620   -9.0550 C.2   136  TYR136      0.2619
    138  O         -2.2410   15.2150   -8.8170 O.2   136  TYR136     -0.2715
    139  CB        -4.4730   13.2960   -9.5250 C.3   136  TYR136      0.0574
    140  CG        -5.2110   13.3750   -8.1930 C.ar  136  TYR136     -0.0198
    141  CD1       -6.6120   13.4030   -8.1470 C.ar  136  TYR136     -0.0009
    142  CD2       -4.5140   13.3640   -6.9830 C.ar  136  TYR136     -0.0009
    143  CE1       -7.3200   13.4380   -6.8710 C.ar  136  TYR136      0.0417
    144  CE2       -5.1910   13.4440   -5.7510 C.ar  136  TYR136      0.0417
    145  CZ        -6.5800   13.4530   -5.6960 C.ar  136  TYR136      0.1957
    146  OH        -7.2240   13.5150   -4.4400 O.3   136  TYR136     -0.2866
    147  N         -4.1700   16.4320   -8.4540 N.am  137  ALA137     -0.1977
    148  CA        -3.8430   17.0040   -7.1100 C.3   137  ALA137      0.1597
    149  C         -5.0860   17.5130   -6.4260 C.2   137  ALA137      0.2287
    150  O         -6.0140   18.0260   -7.0660 O.2   137  ALA137     -0.2864
    151  CB        -2.7970   18.1230   -7.1900 C.3   137  ALA137      0.0319
    152  N         -7.7830   19.6720   -4.5280 N.3   139  ARG139     -0.1245
    153  CA        -8.1980   21.0460   -4.3870 C.3   139  ARG139      0.1563
    154  C         -9.4810   21.0110   -3.5860 C.2   139  ARG139      0.2260
    155  O        -10.2160   20.0310   -3.6190 O.2   139  ARG139     -0.2867
    156  CB        -8.4540   21.6870   -5.7450 C.3   139  ARG139      0.0307
    157  CG        -7.4030   21.3950   -6.7910 C.3   139  ARG139      0.0489
    158  CD        -6.6510   22.6470   -7.1700 C.3   139  ARG139      0.2205
    159  NE        -5.9520   22.4980   -8.4390 N.pl3 139  ARG139     -0.0865
    160  CZ        -6.5530   22.3510   -9.6160 C.cat 139  ARG139      0.5346
    161  NH1       -7.8500   22.0650   -9.6790 N.pl3 139  ARG139      0.1354
    162  NH2       -5.8590   22.4920  -10.7300 N.pl3 139  ARG139      0.1354
    163  N        -16.4510   23.0820   -5.0150 N.3   144  TYR144     -0.1241
    164  CA       -15.6660   23.0160   -6.1930 C.3   144  TYR144      0.1605
    165  C        -16.5260   23.3420   -7.4300 C.2   144  TYR144      0.2264
    166  O        -17.6320   22.7700   -7.6280 O.2   144  TYR144     -0.2867
    167  CB       -15.0480   21.6120   -6.2870 C.3   144  TYR144      0.0534
    168  CG       -14.0110   21.5380   -7.3720 C.ar  144  TYR144     -0.0201
    169  CD1      -12.7030   21.9380   -7.1350 C.ar  144  TYR144     -0.0009
    170  CD2      -14.3490   21.1210   -8.6570 C.ar  144  TYR144     -0.0009
    171  CE1      -11.7530   21.8990   -8.1620 C.ar  144  TYR144      0.0417
    172  CE2      -13.3930   21.0630   -9.6700 C.ar  144  TYR144      0.0417
    173  CZ       -12.1110   21.4650   -9.4030 C.ar  144  TYR144      0.1957
    174  OH       -11.1710   21.4040  -10.4050 O.3   144  TYR144     -0.2866
@<TRIPOS>BOND
     1    88    87    2
     2    78    77    2
     3    85    86    1
     4    87    86    1
     5    77    76    1
     6    86    89    1
     7    39    38    2
     8    81    83   ar
     9    81    80   ar
    10    89    90    1
    11    76    79    1
    12    76    75    1
    13    38    37    1
    14    91    90   ar
    15    91    93   ar
    16    83    84   ar
    17    79    80    1
    18    90    92   ar
    19    80    82   ar
    20    93    94   ar
    21    84    82   ar
    22    37    36    1
    23    37    40    1
    24    92    94   ar
    25    36    28   am
    26   125   124    1
    27   125   126    1
    28    32    34   ar
    29    32    31   ar
    30    34    35   ar
    31    35    33   ar
    32    33    31   ar
    33    31    30    1
    34    30    27    1
    35    69    68    2
    36   124   121    1
    37    28    27    1
    38    28    29    2
    39   126   120    1
    40    27    26    1
    41    73    72   ar
    42    68    67    1
    43   121   120    1
    44   121   122    1
    45   120   110   am
    46    59    58    2
    47    99    96    1
    48   108   109    1
    49   109   110    1
    50   109   112    1
    51   116   114   ar
    52   116   118   ar
    53   114   113   ar
    54    65    64   ar
    55    65    63   ar
    56    64    62   ar
    57   110   111    2
    58    12    10    1
    59    67    70    1
    60    67    66    1
    61    26    23   am
    62    72    74   ar
    63    72    71    1
    64    58    66   am
    65    58    57    1
    66    63    61   ar
    67   122   123    2
    68   122   127   am
    69    62    61   ar
    70    10     9    1
    71   118   119    1
    72   118   117   ar
    73    24    23    2
    74   113   112    1
    75   113   115   ar
    76    70    71    1
    77    96    95    1
    78    96    97    1
    79   102   103    2
    80   102   101    1
    81    23    22    1
    82    61    60    1
    83    11     9    1
    84    57    60    1
    85    57    56    1
    86   100    97   am
    87   100   101    1
    88   127   128    1
    89    97    98    2
    90     9     6    1
    91   117   115   ar
    92   133   132    2
    93   104   101    1
    94   104   105    1
    95   105   107    1
    96   105   106    1
    97   134   132   am
    98   132   131    1
    99    22    25    1
   100    22    21    1
   101     6     5    1
   102     6     7    1
   103   128   131    1
   104   128   129    1
   105    21    15   am
   106     5     3   am
   107    52    51    2
   108     7    13   am
   109     7     8    2
   110   130   129    2
   111   129   135   am
   112    13    14    1
   113     3     4    2
   114     3     2    1
   115    15    14    1
   116    15    16    2
   117   135   136    1
   118     2     1    1
   119    51    50    1
   120    14    17    1
   121    54    53    1
   122   162   160    1
   123    44    43    2
   124   174   173    1
   125    17    18    1
   126    50    53    1
   127    50    49    1
   128   136   139    1
   129   136   137    1
   130    18    19    1
   131    18    20    1
   132    53    55    1
   133   161   160    1
   134   172   173   ar
   135   172   170   ar
   136   160   159    2
   137   139   140    1
   138    43    49   am
   139    43    42    1
   140   173   171   ar
   141   137   138    2
   142   137   147   am
   143   170   168   ar
   144   147   148    1
   145   159   158    1
   146    42    45    1
   147    42    41    1
   148   140   141   ar
   149   140   142   ar
   150   171   169   ar
   151   141   143   ar
   152   166   165    2
   153    45    46    1
   154    48    46    1
   155   165   164    1
   156   168   169   ar
   157   168   167    1
   158   151   148    1
   159   158   157    1
   160   148   149    1
   161   150   149    2
   162   142   144   ar
   163   143   145   ar
   164   157   156    1
   165    46    47    1
   166   167   164    1
   167   164   163    1
   168   144   145   ar
   169   156   153    1
   170   145   146    1
   171   152   153    1
   172   153   154    1
   173   155   154    2
