@<TRIPOS>MOLECULE
tmp/3tt4A01.pdb
 101 95 0 0 0
SMALL
GASTEIGER

@<TRIPOS>ATOM
      1  N        -22.0970    7.7090   -0.4310 N.3    25  GLU25      -0.1245
      2  CA       -20.9120    8.5450   -0.7030 C.3    25  GLU25       0.1567
      3  C        -20.4440    8.3340   -2.1420 C.2    25  GLU25       0.2260
      4  O        -20.1170    9.3220   -2.8270 O.2    25  GLU25      -0.2867
      5  CB       -19.7750    8.2460    0.2520 C.3    25  GLU25       0.0388
      6  CG       -20.0200    8.6440    1.7380 C.3    25  GLU25       0.1160
      7  CD       -18.9660    8.0320    2.6500 C.2    25  GLU25       0.3649
      8  OE1      -18.7480    6.8030    2.5910 O.co2  25  GLU25      -0.2457
      9  OE2      -18.3330    8.7770    3.4270 O.co2  25  GLU25      -0.2457
     10  N        -23.0890   10.0680   -4.2980 N.3    28  ARG28      -0.1231
     11  CA       -22.9400   11.5430   -4.1260 C.3    28  ARG28       0.1694
     12  C        -21.7520   12.0880   -4.9340 C.2    28  ARG28       0.2591
     13  O        -21.8790   13.0820   -5.7100 O.2    28  ARG28      -0.2718
     14  CB       -22.8060   11.8920   -2.6020 C.3    28  ARG28       0.0321
     15  CG       -22.6130   13.4110   -2.2090 C.3    28  ARG28       0.0489
     16  CD       -23.5040   14.4290   -3.0890 C.3    28  ARG28       0.2205
     17  NE       -24.9500   14.2820   -2.8590 N.pl3  28  ARG28      -0.0865
     18  CZ       -25.9310   15.0320   -3.4050 C.cat  28  ARG28       0.5346
     19  NH1      -27.2070   14.7990   -3.0960 N.pl3  28  ARG28       0.1354
     20  NH2      -25.6780   16.0440   -4.2170 N.pl3  28  ARG28       0.1354
     21  N        -20.6050   11.4070   -4.8110 N.am   29  ALA29      -0.1980
     22  CA       -19.4300   11.7460   -5.6050 C.3    29  ALA29       0.1597
     23  C        -19.6850   11.7370   -7.0960 C.2    29  ALA29       0.2287
     24  O        -19.2510   12.6580   -7.7690 O.2    29  ALA29      -0.2864
     25  CB       -18.2390   10.8310   -5.2700 C.3    29  ALA29       0.0319
     26  N        -22.3130   14.6760   -8.0220 N.3    32  ASP32      -0.1239
     27  CA       -21.6440   16.0010   -7.9940 C.3    32  ASP32       0.1674
     28  C        -20.6710   16.2190   -9.1530 C.2    32  ASP32       0.2266
     29  O        -20.5890   17.3330   -9.7670 O.2    32  ASP32      -0.2867
     30  CB       -20.9870   16.1780   -6.6440 C.3    32  ASP32       0.1410
     31  CG       -22.0190   16.5180   -5.5420 C.2    32  ASP32       0.3668
     32  OD1      -23.2770   16.4810   -5.8050 O.co2  32  ASP32      -0.2456
     33  OD2      -21.5800   16.6990   -4.3800 O.co2  32  ASP32      -0.2456
     34  N        -20.8840   19.3110  -11.9650 N.3    36  LEU36      -0.1245
     35  CA       -19.8810   20.3050  -12.3130 C.3    36  LEU36       0.1561
     36  C        -19.9440   20.5500  -13.8020 C.2    36  LEU36       0.2260
     37  O        -19.7920   21.6950  -14.2430 O.2    36  LEU36      -0.2867
     38  CB       -18.4730   19.8130  -12.0340 C.3    36  LEU36       0.0270
     39  CG       -17.8400   19.7390  -10.6750 C.3    36  LEU36       0.0019
     40  CD1      -16.4340   19.2880  -10.9970 C.3    36  LEU36       0.0001
     41  CD2      -17.7560   21.1140  -10.0270 C.3    36  LEU36       0.0001
     42  N        -13.4350   10.8110    0.1610 N.3   101  ASN101     -0.1240
     43  CA       -14.1000   12.1020   -0.0340 C.3   101  ASN101      0.1653
     44  C        -13.4760   13.1250    0.9390 C.2   101  ASN101      0.2266
     45  O        -14.1780   13.9370    1.5550 O.2   101  ASN101     -0.2867
     46  CB       -15.6300   11.9860    0.1540 C.3   101  ASN101      0.1155
     47  CG       -16.0300   11.4610    1.5240 C.2   101  ASN101      0.2627
     48  OD1      -15.1860   11.1800    2.3690 O.2   101  ASN101     -0.2716
     49  ND2      -17.3410   11.3210    1.7440 N.am  101  ASN101     -0.0877
     50  N         -9.3580   11.3930   -3.8810 N.3   107  ASN107     -0.1240
     51  CA       -10.7380   11.8980   -3.8620 C.3   107  ASN107      0.1653
     52  C        -11.5220   11.3890   -5.0640 C.2   107  ASN107      0.2266
     53  O        -11.2040   11.7620   -6.2160 O.2   107  ASN107     -0.2867
     54  CB       -10.7220   13.4150   -3.9110 C.3   107  ASN107      0.1155
     55  CG       -12.0730   13.9970   -3.6160 C.2   107  ASN107      0.2627
     56  OD1      -12.9300   14.1460   -4.5160 O.2   107  ASN107     -0.2716
     57  ND2      -12.2850   14.3290   -2.3610 N.am  107  ASN107     -0.0877
     58  N        -14.6220   11.9530   -6.1150 N.3   109  PHE109     -0.1241
     59  CA       -15.2910   13.0530   -6.8570 C.3   109  PHE109      0.1605
     60  C        -14.3920   13.7830   -7.8590 C.2   109  PHE109      0.2264
     61  O        -14.7580   14.0050   -9.0240 O.2   109  PHE109     -0.2867
     62  CB       -15.9490   14.0420   -5.8590 C.3   109  PHE109      0.0534
     63  CG       -16.2120   15.4380   -6.4590 C.ar  109  PHE109     -0.0203
     64  CD1      -17.2870   15.6610   -7.3090 C.ar  109  PHE109     -0.0042
     65  CD2      -15.3630   16.5010   -6.1750 C.ar  109  PHE109     -0.0042
     66  CE1      -17.5250   16.9180   -7.8320 C.ar  109  PHE109     -0.0003
     67  CE2      -15.6020   17.7710   -6.6890 C.ar  109  PHE109     -0.0003
     68  CZ       -16.6760   17.9750   -7.5140 C.ar  109  PHE109     -0.0000
     69  N        -13.0160   20.8280   -2.2250 N.3   141  THR141     -0.1203
     70  CA       -14.1110   20.2230   -2.9790 C.3   141  THR141      0.1994
     71  C        -15.4700   20.7370   -2.4940 C.2   141  THR141      0.2619
     72  O        -16.4600   20.6620   -3.2460 O.2   141  THR141     -0.2717
     73  CB       -14.0850   18.6270   -3.0040 C.3   141  THR141      0.1784
     74  OG1      -14.0060   18.1010   -1.6660 O.3   141  THR141     -0.2211
     75  CG2      -12.8990   18.0760   -3.8200 C.3   141  THR141      0.0376
     76  N        -15.5260   21.2790   -1.2660 N.am  142  SER142     -0.1937
     77  CA       -16.8260   21.5640   -0.6050 C.3   142  SER142      0.2055
     78  C        -17.7320   22.5290   -1.3960 C.2   142  SER142      0.2643
     79  O        -18.9680   22.5130   -1.2200 O.2   142  SER142     -0.2714
     80  CB       -16.6550   21.9980    0.8640 C.3   142  SER142      0.2130
     81  OG       -15.8970   23.1970    0.9770 O.3   142  SER142     -0.2179
     82  N        -17.1760   23.4040   -2.2380 N.am  143  ASN143     -0.1957
     83  CA       -17.9460   23.8620   -3.4270 C.3   143  ASN143      0.1819
     84  C        -17.0370   24.1710   -4.5690 C.2   143  ASN143      0.2621
     85  O        -16.8600   25.3220   -5.0000 O.2   143  ASN143     -0.2715
     86  CB       -18.9760   24.9840   -3.2390 C.3   143  ASN143      0.1195
     87  CG       -19.8100   25.2170   -4.5190 C.2   143  ASN143      0.2630
     88  OD1      -20.3320   26.3120   -4.7500 O.2   143  ASN143     -0.2716
     89  ND2      -19.9150   24.1790   -5.3580 N.am  143  ASN143     -0.0877
     90  N        -16.4510   23.0820   -5.0150 N.am  144  TYR144     -0.1974
     91  CA       -15.6660   23.0160   -6.1930 C.3   144  TYR144      0.1639
     92  C        -16.5260   23.3420   -7.4300 C.2   144  TYR144      0.2290
     93  O        -17.6320   22.7700   -7.6280 O.2   144  TYR144     -0.2864
     94  CB       -15.0480   21.6120   -6.2870 C.3   144  TYR144      0.0560
     95  CG       -14.0110   21.5380   -7.3720 C.ar  144  TYR144     -0.0198
     96  CD1      -12.7030   21.9380   -7.1350 C.ar  144  TYR144     -0.0009
     97  CD2      -14.3490   21.1210   -8.6570 C.ar  144  TYR144     -0.0009
     98  CE1      -11.7530   21.8990   -8.1620 C.ar  144  TYR144      0.0417
     99  CE2      -13.3930   21.0630   -9.6700 C.ar  144  TYR144      0.0417
    100  CZ       -12.1110   21.4650   -9.4030 C.ar  144  TYR144      0.1957
    101  OH       -11.1710   21.4040  -10.4050 O.3   144  TYR144     -0.2866
@<TRIPOS>BOND
     1    37    36    2
     2    36    35    1
     3    35    38    1
     4    35    34    1
     5    38    39    1
     6    40    39    1
     7    39    41    1
     8   101   100    1
     9    29    28    2
    10    99   100   ar
    11    99    97   ar
    12   100    98   ar
    13    28    27    1
    14    61    60    2
    15    97    95   ar
    16    98    96   ar
    17    26    27    1
    18    27    30    1
    19    60    59    1
    20    66    68   ar
    21    66    64   ar
    22    24    23    2
    23    93    92    2
    24    68    67   ar
    25    92    91    1
    26    95    96   ar
    27    95    94    1
    28    64    63   ar
    29    23    22    1
    30    59    58    1
    31    59    62    1
    32    67    65   ar
    33    30    31    1
    34    63    65   ar
    35    63    62    1
    36    94    91    1
    37    53    52    2
    38    91    90    1
    39    32    31   ar
    40    13    12    2
    41    22    25    1
    42    22    21    1
    43    31    33   ar
    44    89    87   am
    45    52    51    1
    46    90    84   am
    47    85    84    2
    48    12    21   am
    49    12    11    1
    50    88    87    2
    51    84    83    1
    52    87    86    1
    53    56    55    2
    54    10    11    1
    55    20    18    1
    56    11    14    1
    57    54    51    1
    58    54    55    1
    59    50    51    1
    60    75    73    1
    61    55    57   am
    62    83    86    1
    63    83    82    1
    64    18    19    1
    65    18    17    2
    66    72    71    2
    67    16    17    1
    68    16    15    1
    69    73    70    1
    70    73    74    1
    71    70    71    1
    72    70    69    1
    73     4     3    2
    74    14    15    1
    75    71    76   am
    76    82    78   am
    77     3     2    1
    78    78    79    2
    79    78    77    1
    80    76    77    1
    81     2     1    1
    82     2     5    1
    83    77    80    1
    84    43    46    1
    85    43    42    1
    86    43    44    1
    87    46    47    1
    88     5     6    1
    89    80    81    1
    90    44    45    2
    91    47    49   am
    92    47    48    2
    93     6     7    1
    94     8     7   ar
    95     7     9   ar
