@<TRIPOS>MOLECULE
tmp/3tt7E00.pdb
 104 103 0 0 0
SMALL
GASTEIGER

@<TRIPOS>ATOM
      1  N         -3.0000  -20.5450   34.9670 N.3    56  PRO56      -0.2102
      2  CA        -2.7690  -20.4670   36.4260 C.3    56  PRO56       0.1504
      3  C         -1.4500  -21.1230   36.8720 C.2    56  PRO56       0.2576
      4  O         -1.0720  -20.9970   38.0400 O.2    56  PRO56      -0.2718
      5  CB        -3.9880  -21.1710   37.0410 C.3    56  PRO56       0.0282
      6  CG        -4.5340  -22.0320   35.9300 C.3    56  PRO56       0.0208
      7  CD        -4.2080  -21.3190   34.6340 C.3    56  PRO56       0.0893
      8  N         -0.7790  -21.8420   35.9690 N.am   57  GLY57      -0.1943
      9  CA         0.4240  -22.5640   36.3400 C.3    57  GLY57       0.2014
     10  C          0.1610  -24.0370   36.5100 C.2    57  GLY57       0.2639
     11  O         -0.7480  -24.5690   35.8870 O.2    57  GLY57      -0.2714
     12  N          1.0000  -24.7210   37.2750 N.am   58  GLY58      -0.1939
     13  CA         0.8220  -26.1440   37.4760 C.3    58  GLY58       0.2014
     14  C          2.0910  -26.8860   37.8460 C.2    58  GLY58       0.2640
     15  O          3.0290  -26.3110   38.3840 O.2    58  GLY58      -0.2714
     16  N          2.1050  -28.1820   37.5640 N.am   59  SER59      -0.1935
     17  CA         3.2240  -29.0400   37.9130 C.3    59  SER59       0.2055
     18  C          4.5670  -28.5550   37.4030 C.2    59  SER59       0.2642
     19  O          4.7120  -28.1310   36.2620 O.2    59  SER59      -0.2714
     20  CB         3.0000  -30.4530   37.3960 C.3    59  SER59       0.2130
     21  OG         4.2620  -31.0760   37.1950 O.3    59  SER59      -0.2179
     22  N          5.5650  -28.6550   38.2620 N.am   60  ILE60      -0.1977
     23  CA         6.9020  -28.2120   37.9120 C.3    60  ILE60       0.1596
     24  C          7.5140  -29.0980   36.8230 C.2    60  ILE60       0.2287
     25  O          8.1100  -28.5840   35.8790 O.2    60  ILE60      -0.2864
     26  CB         7.7950  -28.0750   39.1680 C.3    60  ILE60       0.0276
     27  CG1        7.3190  -26.8880   40.0160 C.3    60  ILE60       0.0022
     28  CG2        9.2220  -27.8590   38.7910 C.3    60  ILE60       0.0022
     29  CD1        7.6530  -26.9930   41.5010 C.3    60  ILE60       0.0001
     30  N          3.2130  -18.6730   37.8910 N.3    87  SER87      -0.1202
     31  CA         3.9390  -19.8480   38.3620 C.3    87  SER87       0.2020
     32  C          4.6380  -20.4920   37.1340 C.2    87  SER87       0.2618
     33  O          5.4340  -19.8090   36.4910 O.2    87  SER87      -0.2717
     34  CB         3.0100  -20.6640   39.2980 C.3    87  SER87       0.2103
     35  OG         3.4780  -21.7030   40.1820 O.3    87  SER87      -0.2182
     36  N          4.2950  -21.7230   36.7640 N.am   88  MET88      -0.1979
     37  CA         4.8980  -22.3350   35.5770 C.3    88  MET88       0.1605
     38  C          4.5620  -21.6260   34.2600 C.2    88  MET88       0.2287
     39  O          5.3450  -21.6730   33.3070 O.2    88  MET88      -0.2864
     40  CB         4.5830  -23.8190   35.4900 C.3    88  MET88       0.0413
     41  CG         5.5210  -24.6380   36.3230 C.3    88  MET88       0.0598
     42  SD         7.2370  -24.2690   35.9180 S.3    88  MET88      -0.1393
     43  CE         8.0210  -24.9870   37.3470 C.3    88  MET88       0.0692
     44  N          7.0030  -18.8350   34.0140 N.3    91  PHE91      -0.1241
     45  CA         8.2800  -19.4110   33.6900 C.3    91  PHE91       0.1605
     46  C          8.3650  -19.7010   32.1800 C.2    91  PHE91       0.2264
     47  O          9.4000  -19.4760   31.5440 O.2    91  PHE91      -0.2867
     48  CB         8.4860  -20.6630   34.5230 C.3    91  PHE91       0.0534
     49  CG         9.8840  -21.1670   34.4940 C.ar   91  PHE91      -0.0203
     50  CD1       10.8820  -20.4980   35.1740 C.ar   91  PHE91      -0.0042
     51  CD2       10.2110  -22.2970   33.7690 C.ar   91  PHE91      -0.0042
     52  CE1       12.1880  -20.9440   35.1310 C.ar   91  PHE91      -0.0003
     53  CE2       11.5140  -22.7530   33.7240 C.ar   91  PHE91      -0.0003
     54  CZ        12.5050  -22.0720   34.4060 C.ar   91  PHE91      -0.0000
     55  N          6.3220  -17.1980   41.8770 N.3   112  HIS112     -0.1226
     56  CA         6.4360  -17.5820   43.2680 C.3   112  HIS112      0.1752
     57  C          7.2700  -18.8330   43.4030 C.2   112  HIS112      0.2596
     58  O          7.7050  -19.4010   42.4030 O.2   112  HIS112     -0.2718
     59  CB         5.0490  -17.7450   43.8960 C.3   112  HIS112      0.0759
     60  CG         4.2820  -18.9310   43.4020 C.ar  112  HIS112      0.0818
     61  ND1        2.9330  -19.0880   43.6510 N.ar  112  HIS112     -0.2268
     62  CD2        4.6600  -20.0220   42.7070 C.ar  112  HIS112      0.1154
     63  CE1        2.5150  -20.2140   43.1110 C.ar  112  HIS112      0.1986
     64  NE2        3.5440  -20.8080   42.5340 N.ar  112  HIS112     -0.2212
     65  N          7.4880  -19.2700   44.6350 N.am  113  GLN113     -0.1966
     66  CA         8.2240  -20.5040   44.8470 C.3   113  GLN113      0.1718
     67  C          7.3400  -21.7470   44.6700 C.2   113  GLN113      0.2458
     68  O          6.1100  -21.6640   44.7300 O.2   113  GLN113     -0.2730
     69  CB         8.9440  -20.4830   46.1970 C.3   113  GLN113      0.0407
     70  CG         8.1360  -20.0270   47.3760 C.3   113  GLN113      0.0908
     71  CD         8.8940  -20.2790   48.6870 C.2   113  GLN113      0.2608
     72  OE1        9.4920  -21.3480   48.8860 O.2   113  GLN113     -0.2717
     73  NE2        8.8820  -19.2930   49.5750 N.am  113  GLN113     -0.0878
     74  N          7.9700  -22.9030   44.4270 N.am  114  PRO114     -0.2716
     75  CA         7.2860  -24.1710   44.1860 C.3   114  PRO114      0.1536
     76  C          6.4580  -24.5660   45.3830 C.2   114  PRO114      0.2598
     77  O          6.7880  -24.1570   46.5060 O.2   114  PRO114     -0.2715
     78  CB         8.4360  -25.1550   44.0600 C.3   114  PRO114      0.0310
     79  CG         9.5820  -24.3360   43.6340 C.3   114  PRO114      0.0237
     80  CD         9.4270  -23.0600   44.3560 C.3   114  PRO114      0.0939
     81  N          5.3960  -25.3370   45.1360 N.am  115  LEU115     -0.1978
     82  CA         4.5650  -25.9260   46.1920 C.3   115  LEU115      0.1596
     83  C          4.6760  -27.4390   46.1310 C.2   115  LEU115      0.2287
     84  O          4.7840  -28.0230   45.0450 O.2   115  LEU115     -0.2864
     85  CB         3.0990  -25.5350   46.0130 C.3   115  LEU115      0.0297
     86  CG         2.7990  -24.0370   46.0330 C.3   115  LEU115      0.0022
     87  CD1        1.5250  -23.7120   45.2530 C.3   115  LEU115      0.0001
     88  CD2        2.7160  -23.5550   47.4630 C.3   115  LEU115      0.0001
     89  N         14.8490  -23.6230   39.2650 N.3   139  LEU139     -0.1231
     90  CA        13.9470  -22.6850   38.6250 C.3   139  LEU139      0.1693
     91  C         14.5130  -21.2770   38.7600 C.2   139  LEU139      0.2592
     92  O         14.6810  -20.5600   37.7760 O.2   139  LEU139     -0.2718
     93  CB        12.5590  -22.7760   39.2360 C.3   139  LEU139      0.0284
     94  CG        11.8870  -24.1170   38.9740 C.3   139  LEU139      0.0019
     95  CD1       10.4970  -24.1570   39.5960 C.3   139  LEU139      0.0001
     96  CD2       11.8210  -24.4000   37.4740 C.3   139  LEU139      0.0001
     97  N         14.8480  -20.9040   39.9850 N.am  140  ASN140     -0.1974
     98  CA        15.4660  -19.6140   40.2340 C.3   140  ASN140      0.1688
     99  C         16.6420  -19.3070   39.3100 C.2   140  ASN140      0.2292
    100  O         16.6970  -18.2270   38.7330 O.2   140  ASN140     -0.2864
    101  CB        15.8610  -19.4930   41.7070 C.3   140  ASN140      0.1181
    102  CG        14.6490  -19.3620   42.6100 C.2   140  ASN140      0.2629
    103  OD1       13.5520  -19.0380   42.1380 O.2   140  ASN140     -0.2716
    104  ND2       14.8310  -19.6030   43.9040 N.am  140  ASN140     -0.0877
@<TRIPOS>BOND
     1    47    46    2
     2    46    45    1
     3    39    38    2
     4    45    44    1
     5    45    48    1
     6    53    51   ar
     7    53    54   ar
     8    51    49   ar
     9    38    37    1
    10    54    52   ar
    11    49    48    1
    12    49    50   ar
    13     7     1    1
    14     7     6    1
    15     1     2    1
    16    52    50   ar
    17    40    37    1
    18    40    41    1
    19    37    36    1
    20    25    24    2
    21    11    10    2
    22    42    41    1
    23    42    43    1
    24     6     5    1
    25     8     9    1
    26     8     3   am
    27    19    18    2
    28     9    10    1
    29     2     3    1
    30     2     5    1
    31    33    32    2
    32    10    12   am
    33    36    32   am
    34    24    23    1
    35     3     4    2
    36    32    31    1
    37    21    20    1
    38    12    13    1
    39    20    17    1
    40    18    17    1
    41    18    22   am
    42    96    94    1
    43    13    14    1
    44    16    14   am
    45    16    17    1
    46    92    91    2
    47    14    15    2
    48    30    31    1
    49    23    22    1
    50    23    26    1
    51    31    34    1
    52    90    91    1
    53    90    93    1
    54    90    89    1
    55   100    99    2
    56    91    97   am
    57    28    26    1
    58    94    93    1
    59    94    95    1
    60    26    27    1
    61    34    35    1
    62    99    98    1
    63    97    98    1
    64    27    29    1
    65    98   101    1
    66   101   102    1
    67    55    56    1
    68   103   102    2
    69    58    57    2
    70    64    62   ar
    71    64    63   ar
    72   102   104   am
    73    62    60   ar
    74    63    61   ar
    75    56    57    1
    76    56    59    1
    77    60    61   ar
    78    60    59    1
    79    57    65   am
    80    79    78    1
    81    79    80    1
    82    78    75    1
    83    75    74    1
    84    75    76    1
    85    80    74    1
    86    74    67   am
    87    65    66    1
    88    67    68    2
    89    67    66    1
    90    66    69    1
    91    84    83    2
    92    81    76   am
    93    81    82    1
    94    87    86    1
    95    76    77    2
    96    85    86    1
    97    85    82    1
    98    86    88    1
    99    83    82    1
   100    69    70    1
   101    70    71    1
   102    71    72    2
   103    71    73   am
