@<TRIPOS>MOLECULE
tmp/3ttaA00.pdb
 93 89 0 0 0
SMALL
GASTEIGER

@<TRIPOS>ATOM
      1  N          0.7420   62.7910   33.0350 N.3    53  ILE53      -0.1245
      2  CA         1.7460   62.3080   32.0630 C.3    53  ILE53       0.1561
      3  C          2.1410   63.4920   31.2050 C.2    53  ILE53       0.2260
      4  O          1.2720   64.1740   30.6610 O.2    53  ILE53      -0.2867
      5  CB         1.1470   61.1970   31.1390 C.3    53  ILE53       0.0252
      6  CG1        0.4160   60.1500   31.9730 C.3    53  ILE53       0.0019
      7  CG2        2.2420   60.5160   30.3170 C.3    53  ILE53       0.0019
      8  CD1        1.3730   59.3620   32.8210 C.3    53  ILE53       0.0001
      9  N          0.7380   64.3210   24.6490 N.3    67  TYR67      -0.1241
     10  CA        -0.4300   65.0670   25.1560 C.3    67  TYR67       0.1605
     11  C         -0.5260   64.8050   26.6400 C.2    67  TYR67       0.2264
     12  O         -0.3950   63.6640   27.0700 O.2    67  TYR67      -0.2867
     13  CB        -1.7500   64.6710   24.4770 C.3    67  TYR67       0.0534
     14  CG        -1.7330   64.9220   22.9580 C.ar   67  TYR67      -0.0201
     15  CD1       -1.9350   66.1950   22.4340 C.ar   67  TYR67      -0.0009
     16  CD2       -1.4970   63.8610   22.0480 C.ar   67  TYR67      -0.0009
     17  CE1       -1.9120   66.4370   21.0410 C.ar   67  TYR67       0.0417
     18  CE2       -1.4810   64.0970   20.6580 C.ar   67  TYR67       0.0417
     19  CZ        -1.7170   65.3710   20.1600 C.ar   67  TYR67       0.1957
     20  OH        -1.7180   65.6120   18.7780 O.3    67  TYR67      -0.2866
     21  N         -1.7210   63.9190   30.1060 N.3    69  GLY69      -0.1210
     22  CA        -2.7610   62.9790   30.4070 C.3    69  GLY69       0.1956
     23  C         -2.9500   62.9120   31.9080 C.2    69  GLY69       0.2612
     24  O         -1.9750   62.7930   32.6380 O.2    69  GLY69      -0.2717
     25  N         -4.2120   62.8970   32.3440 N.am   70  VAL70      -0.1965
     26  CA        -4.5570   62.8000   33.7610 C.3    70  VAL70       0.1727
     27  C         -4.7470   61.3250   34.1220 C.2    70  VAL70       0.2616
     28  O         -5.4830   60.5750   33.4470 O.2    70  VAL70      -0.2715
     29  CB        -5.7970   63.6450   34.0400 C.3    70  VAL70       0.0290
     30  CG1       -6.2130   63.5720   35.4830 C.3    70  VAL70       0.0023
     31  CG2       -5.4970   65.1100   33.6500 C.3    70  VAL70       0.0023
     32  N         -4.0830   60.8790   35.1800 N.am   71  ILE71      -0.1963
     33  CA        -4.3560   59.5280   35.6750 C.3    71  ILE71       0.1727
     34  C         -5.0740   59.6330   36.9940 C.2    71  ILE71       0.2616
     35  O         -4.5150   60.1940   37.9760 O.2    71  ILE71      -0.2715
     36  CB        -3.0240   58.7470   35.8810 C.3    71  ILE71       0.0290
     37  CG1       -2.1030   59.0020   34.6890 C.3    71  ILE71       0.0022
     38  CG2       -3.2200   57.2380   36.1360 C.3    71  ILE71       0.0023
     39  CD1       -2.7300   58.6910   33.2920 C.3    71  ILE71       0.0001
     40  N         -6.2860   59.0810   37.0390 N.am   72  ASP72      -0.1971
     41  CA        -7.0570   59.0840   38.2660 C.3    72  ASP72       0.1709
     42  C         -6.4640   58.2030   39.3280 C.2    72  ASP72       0.2293
     43  O         -5.7810   57.2070   39.0530 O.2    72  ASP72      -0.2864
     44  CB        -8.5230   58.7570   38.0390 C.3    72  ASP72       0.1436
     45  CG        -9.1690   59.7070   37.0040 C.2    72  ASP72       0.3671
     46  OD1       -8.9410   60.9390   37.0710 O.co2  72  ASP72      -0.2456
     47  OD2       -9.8720   59.2160   36.1220 O.co2  72  ASP72      -0.2456
     48  N         -7.5850   54.5440   38.9950 N.3    75  TYR75      -0.1241
     49  CA        -7.4550   53.8720   37.6960 C.3    75  TYR75       0.1605
     50  C         -6.5290   52.6500   37.8530 C.2    75  TYR75       0.2264
     51  O         -5.4240   52.7550   38.4440 O.2    75  TYR75      -0.2867
     52  CB        -6.8140   54.8460   36.7430 C.3    75  TYR75       0.0534
     53  CG        -6.5030   54.2990   35.3710 C.ar   75  TYR75      -0.0201
     54  CD1       -7.5300   53.9740   34.4860 C.ar   75  TYR75      -0.0009
     55  CD2       -5.1720   54.1350   34.9520 C.ar   75  TYR75      -0.0009
     56  CE1       -7.2580   53.4810   33.2240 C.ar   75  TYR75       0.0417
     57  CE2       -4.8940   53.6110   33.6870 C.ar   75  TYR75       0.0417
     58  CZ        -5.9500   53.3090   32.8300 C.ar   75  TYR75       0.1957
     59  OH        -5.6800   52.8300   31.5650 O.3    75  TYR75      -0.2866
     60  N         -3.7840   50.0700   32.3410 N.3    78  GLU78      -0.1231
     61  CA        -2.4530   50.3520   31.8620 C.3    78  GLU78       0.1699
     62  C         -2.3230   51.8250   31.5710 C.2    78  GLU78       0.2592
     63  O         -3.1930   52.4420   30.9580 O.2    78  GLU78      -0.2718
     64  CB        -2.1390   49.5700   30.5860 C.3    78  GLU78       0.0402
     65  CG        -0.6720   49.7720   30.1640 C.3    78  GLU78       0.1161
     66  CD        -0.3350   49.1580   28.8400 C.2    78  GLU78       0.3649
     67  OE1       -1.1740   48.4310   28.2640 O.co2  78  GLU78      -0.2457
     68  OE2        0.8020   49.3820   28.3990 O.co2  78  GLU78      -0.2457
     69  N         -1.2130   52.3910   31.9970 N.am   79  ILE79      -0.1966
     70  CA        -0.9270   53.7680   31.7460 C.3    79  ILE79       0.1727
     71  C         -0.3330   53.9260   30.3500 C.2    79  ILE79       0.2616
     72  O          0.7620   53.4380   30.0730 O.2    79  ILE79      -0.2715
     73  CB         0.0200   54.2740   32.7990 C.3    79  ILE79       0.0290
     74  CG1       -0.7500   54.4300   34.1100 C.3    79  ILE79       0.0022
     75  CG2        0.6110   55.6410   32.4010 C.3    79  ILE79       0.0023
     76  CD1        0.1310   54.5290   35.3300 C.3    79  ILE79       0.0001
     77  N         -1.0570   54.6030   29.4570 N.am   80  LYS80      -0.1977
     78  CA        -0.5920   54.7270   28.0600 C.3    80  LYS80       0.1596
     79  C         -0.1810   56.1920   27.7960 C.2    80  LYS80       0.2287
     80  O         -0.6880   57.1350   28.4550 O.2    80  LYS80      -0.2864
     81  CB        -1.6900   54.2500   27.0970 C.3    80  LYS80       0.0298
     82  CG        -1.9380   52.7000   27.1780 C.3    80  LYS80       0.0038
     83  CD        -2.5880   52.2670   25.9290 C.3    80  LYS80       0.0206
     84  CE        -3.0480   50.8220   25.9510 C.3    80  LYS80       0.1093
     85  NZ        -3.2910   50.4200   24.5140 N.3    80  LYS80      -0.1314
     86  N         -0.1830   59.1750   25.3480 N.3    82  MET82      -0.1245
     87  CA        -0.8050   59.6970   24.1190 C.3    82  MET82       0.1570
     88  C          0.2050   60.5900   23.3680 C.2    82  MET82       0.2261
     89  O          0.6860   61.6310   23.8950 O.2    82  MET82      -0.2867
     90  CB        -2.0640   60.4830   24.4310 C.3    82  MET82       0.0387
     91  CG        -3.0900   59.7670   25.2730 C.3    82  MET82       0.0595
     92  SD        -4.5770   60.7620   25.4560 S.3    82  MET82      -0.1393
     93  CE        -4.0680   62.0670   26.5930 C.3    82  MET82       0.0692
@<TRIPOS>BOND
     1    20    19    1
     2    19    18   ar
     3    19    17   ar
     4    18    16   ar
     5    17    15   ar
     6    16    14   ar
     7    15    14   ar
     8    14    13    1
     9    88    89    2
    10    88    87    1
    11    87    90    1
    12    87    86    1
    13    90    91    1
    14    13    10    1
    15    85    84    1
    16     9    10    1
    17    10    11    1
    18    91    92    1
    19    92    93    1
    20    83    84    1
    21    83    82    1
    22    11    12    2
    23    81    82    1
    24    81    78    1
    25    79    78    1
    26    79    80    2
    27    78    77    1
    28    67    66   ar
    29    68    66   ar
    30    66    65    1
    31    77    71   am
    32    72    71    2
    33    21    22    1
    34    65    64    1
    35     7     5    1
    36    71    70    1
    37    22    23    1
    38    64    61    1
    39     4     3    2
    40    63    62    2
    41     5     6    1
    42     5     2    1
    43     3     2    1
    44    59    58    1
    45    62    61    1
    46    62    69   am
    47    70    69    1
    48    70    73    1
    49    61    60    1
    50    23    25   am
    51    23    24    2
    52     6     8    1
    53     2     1    1
    54    25    26    1
    55    75    73    1
    56    73    74    1
    57    58    56   ar
    58    58    57   ar
    59    56    54   ar
    60    39    37    1
    61    28    27    2
    62    31    29    1
    63    57    55   ar
    64    26    29    1
    65    26    27    1
    66    29    30    1
    67    74    76    1
    68    27    32   am
    69    54    53   ar
    70    37    36    1
    71    55    53   ar
    72    32    33    1
    73    53    52    1
    74    33    36    1
    75    33    34    1
    76    36    38    1
    77    47    45   ar
    78    52    49    1
    79    34    40   am
    80    34    35    2
    81    45    46   ar
    82    45    44    1
    83    40    41    1
    84    49    50    1
    85    49    48    1
    86    50    51    2
    87    44    41    1
    88    41    42    1
    89    43    42    2
