@<TRIPOS>MOLECULE
tmp/3ttcA00.pdb
 197 182 0 0 0
SMALL
GASTEIGER

@<TRIPOS>ATOM
      1  N         10.7880   38.1560   22.6860 N.3   125  HIS125     -0.1241
      2  CA        10.9410   37.8280   24.1070 C.3   125  HIS125      0.1621
      3  C          9.6980   38.2460   24.8750 C.2   125  HIS125      0.2264
      4  O          8.9600   39.1040   24.4290 O.2   125  HIS125     -0.2867
      5  CB        12.1280   38.5770   24.7060 C.3   125  HIS125      0.0745
      6  CG        13.4540   38.0820   24.2290 C.ar  125  HIS125      0.0817
      7  ND1       14.1990   38.7540   23.2830 N.ar  125  HIS125     -0.2268
      8  CD2       14.1880   37.0040   24.5960 C.ar  125  HIS125      0.1154
      9  CE1       15.3290   38.0980   23.0730 C.ar  125  HIS125      0.1986
     10  NE2       15.3490   37.0360   23.8620 N.ar  125  HIS125     -0.2212
     11  N          2.0660   31.2020   30.7940 N.3   143  LYS143     -0.1245
     12  CA         2.8850   30.3700   29.9220 C.3   143  LYS143      0.1561
     13  C          2.8420   28.8790   30.2640 C.2   143  LYS143      0.2260
     14  O          3.4540   28.0810   29.5580 O.2   143  LYS143     -0.2867
     15  CB         4.3430   30.8470   29.9350 C.3   143  LYS143      0.0271
     16  CG         4.8180   31.5080   28.6670 C.3   143  LYS143      0.0035
     17  CD         6.3130   31.2520   28.4780 C.3   143  LYS143      0.0206
     18  CE         6.6770   31.1460   27.0140 C.3   143  LYS143      0.1093
     19  NZ         7.7950   30.1790   26.8340 N.3   143  LYS143     -0.1314
     20  N          4.3130   27.3750   32.7780 N.3   145  ARG145     -0.1245
     21  CA         5.7350   27.0830   32.9420 C.3   145  ARG145      0.1563
     22  C          6.0260   27.1790   34.4280 C.2   145  ARG145      0.2260
     23  O          6.5630   28.1800   34.8760 O.2   145  ARG145     -0.2867
     24  CB         6.5600   28.1140   32.1540 C.3   145  ARG145      0.0307
     25  CG         8.0510   27.8420   32.0890 C.3   145  ARG145      0.0489
     26  CD         8.7690   29.1530   31.9120 C.3   145  ARG145      0.2205
     27  NE        10.2130   29.0010   31.7130 N.pl3 145  ARG145     -0.0865
     28  CZ        10.8090   28.9320   30.5310 C.cat 145  ARG145      0.5346
     29  NH1       10.0950   28.9710   29.4090 N.pl3 145  ARG145      0.1354
     30  NH2       12.1250   28.8190   30.4650 N.pl3 145  ARG145      0.1354
     31  N         10.5280   25.7560   34.8410 N.3   148  LYS148     -0.1231
     32  CA        11.6970   25.9100   33.9780 C.3   148  LYS148      0.1678
     33  C         12.3450   27.2990   34.1680 C.2   148  LYS148      0.2434
     34  O         11.6420   28.3150   34.1600 O.2   148  LYS148     -0.2733
     35  CB        11.3220   25.6570   32.5210 C.3   148  LYS148      0.0284
     36  CG        12.5060   25.5110   31.6180 C.3   148  LYS148      0.0035
     37  CD        12.0760   25.2490   30.1780 C.3   148  LYS148      0.0206
     38  CE        13.3200   25.0860   29.3090 C.3   148  LYS148      0.1093
     39  NZ        12.9440   24.6010   27.9370 N.3   148  LYS148     -0.1314
     40  N         13.6750   27.3430   34.4040 N.am  149  PRO149     -0.2718
     41  CA        14.3010   28.6300   34.7430 C.3   149  PRO149      0.1535
     42  C         14.1460   29.6750   33.6320 C.2   149  PRO149      0.2598
     43  O         14.1350   29.3250   32.4500 O.2   149  PRO149     -0.2715
     44  CB        15.7830   28.2660   34.9900 C.3   149  PRO149      0.0310
     45  CG        15.9670   26.9030   34.3440 C.3   149  PRO149      0.0237
     46  CD        14.6390   26.2210   34.4400 C.3   149  PRO149      0.0939
     47  N         14.0200   30.9420   34.0430 N.am  150  LEU150     -0.1964
     48  CA        13.8190   32.0920   33.1600 C.3   150  LEU150      0.1728
     49  C         15.1080   32.8860   33.0210 C.2   150  LEU150      0.2616
     50  O         15.7480   33.2330   34.0230 O.2   150  LEU150     -0.2715
     51  CB        12.7320   33.0220   33.7520 C.3   150  LEU150      0.0311
     52  CG        11.2980   32.4680   33.7930 C.3   150  LEU150      0.0022
     53  CD1       10.4240   33.2410   34.7950 C.3   150  LEU150      0.0001
     54  CD2       10.6560   32.4710   32.3890 C.3   150  LEU150      0.0001
     55  N         15.5020   33.1640   31.7830 N.am  151  ALA151     -0.1977
     56  CA        16.6370   34.0650   31.5180 C.3   151  ALA151      0.1597
     57  C         16.3050   35.4810   31.9890 C.2   151  ALA151      0.2287
     58  O         15.1580   35.9100   31.8930 O.2   151  ALA151     -0.2864
     59  CB        16.9610   34.0870   30.0250 C.3   151  ALA151      0.0319
     60  N         23.5380   34.4770   26.8670 N.3   175  ILE175     -0.1245
     61  CA        23.0930   34.2270   28.2420 C.3   175  ILE175      0.1561
     62  C         24.2220   33.4720   28.9230 C.2   175  ILE175      0.2260
     63  O         24.7630   32.5050   28.3360 O.2   175  ILE175     -0.2867
     64  CB        21.8250   33.3610   28.2560 C.3   175  ILE175      0.0252
     65  CG1       20.6940   34.0970   27.5450 C.3   175  ILE175      0.0019
     66  CG2       21.4500   32.9020   29.7050 C.3   175  ILE175      0.0019
     67  CD1       19.5080   33.2140   27.1830 C.3   175  ILE175      0.0001
     68  N         25.3480   31.4760   32.5090 N.3   177  LEU177     -0.1245
     69  CA        24.8130   30.9160   33.7530 C.3   177  LEU177      0.1561
     70  C         25.7830   31.2550   34.8630 C.2   177  LEU177      0.2260
     71  O         26.9660   30.9450   34.7520 O.2   177  LEU177     -0.2867
     72  CB        24.6360   29.3980   33.6630 C.3   177  LEU177      0.0270
     73  CG        23.7480   28.8270   32.5540 C.3   177  LEU177      0.0019
     74  CD1       23.4690   27.3590   32.8190 C.3   177  LEU177      0.0001
     75  CD2       22.4590   29.6050   32.4210 C.3   177  LEU177      0.0001
     76  N         14.6250   30.9210   39.0730 N.3   191  ALA191     -0.1245
     77  CA        15.2310   29.5960   38.8370 C.3   191  ALA191      0.1562
     78  C         15.0010   28.6820   40.0420 C.2   191  ALA191      0.2260
     79  O         15.9670   28.2300   40.6880 O.2   191  ALA191     -0.2867
     80  CB        16.7260   29.7320   38.5710 C.3   191  ALA191      0.0290
     81  N         17.1670   25.4690   41.5910 N.3   194  LEU194     -0.1245
     82  CA        18.4630   25.4190   40.9170 C.3   194  LEU194      0.1561
     83  C         19.4330   26.4010   41.5710 C.2   194  LEU194      0.2260
     84  O         18.9970   27.2890   42.2900 O.2   194  LEU194     -0.2867
     85  CB        18.2530   25.7870   39.4410 C.3   194  LEU194      0.0270
     86  CG        18.0610   24.7210   38.3620 C.3   194  LEU194      0.0019
     87  CD1       17.5490   23.3780   38.8330 C.3   194  LEU194      0.0001
     88  CD2       17.2170   25.2780   37.2540 C.3   194  LEU194      0.0001
     89  N         21.9200   28.1350   39.7920 N.3   196  GLU196     -0.1231
     90  CA        22.3600   29.1080   38.7810 C.3   196  GLU196      0.1699
     91  C         21.1860   29.8760   38.1620 C.2   196  GLU196      0.2592
     92  O         20.0440   29.3880   38.0960 O.2   196  GLU196     -0.2718
     93  CB        23.1050   28.4200   37.6110 C.3   196  GLU196      0.0402
     94  CG        24.4450   27.6670   37.9210 C.3   196  GLU196      0.1161
     95  CD        24.9140   26.7580   36.7390 C.2   196  GLU196      0.3649
     96  OE1       24.2500   25.7290   36.4360 O.co2 196  GLU196     -0.2457
     97  OE2       25.9560   27.0520   36.0930 O.co2 196  GLU196     -0.2457
     98  N         21.4970   31.0690   37.6800 N.am  197  VAL197     -0.1966
     99  CA        20.5670   31.8700   36.8980 C.3   197  VAL197      0.1727
    100  C         21.2660   32.2330   35.5960 C.2   197  VAL197      0.2616
    101  O         22.4660   32.5050   35.5930 O.2   197  VAL197     -0.2715
    102  CB        20.2030   33.1800   37.6100 C.3   197  VAL197      0.0290
    103  CG1       19.1620   33.9570   36.7880 C.3   197  VAL197      0.0023
    104  CG2       19.6870   32.9110   39.0080 C.3   197  VAL197      0.0023
    105  N         20.5140   32.2330   34.5010 N.am  198  GLY198     -0.1955
    106  CA        21.0350   32.7050   33.2230 C.3   198  GLY198      0.1869
    107  C         20.8380   34.1970   33.0780 C.2   198  GLY198      0.2309
    108  O         19.6930   34.6800   33.0450 O.2   198  GLY198     -0.2863
    109  N         13.6270   37.9650   30.4490 N.3   220  MET220     -0.1230
    110  CA        13.7320   38.1250   29.0130 C.3   220  MET220      0.1702
    111  C         13.7830   36.7100   28.4390 C.2   220  MET220      0.2593
    112  O         14.8520   36.2150   28.0670 O.2   220  MET220     -0.2718
    113  CB        14.9910   38.9570   28.6850 C.3   220  MET220      0.0401
    114  CG        15.0040   39.6020   27.2790 C.3   220  MET220      0.0596
    115  SD        13.6670   40.7750   27.0120 S.3   220  MET220     -0.1393
    116  CE        14.0040   42.0770   28.1900 C.3   220  MET220      0.0692
    117  N         12.6160   36.0640   28.4200 N.am  221  THR221     -0.1939
    118  CA        12.4780   34.6520   28.0320 C.3   221  THR221      0.2028
    119  C         11.8810   34.5560   26.6340 C.2   221  THR221      0.2642
    120  O         11.2230   35.4920   26.1700 O.2   221  THR221     -0.2714
    121  CB        11.6320   33.8600   29.0920 C.3   221  THR221      0.1808
    122  OG1       11.6850   32.4470   28.8300 O.3   221  THR221     -0.2208
    123  CG2       10.1870   34.3290   29.0840 C.3   221  THR221      0.0379
    124  N         12.1220   33.4390   25.9520 N.am  222  SER222     -0.1949
    125  CA        11.6740   33.2930   24.5640 C.3   222  SER222      0.1924
    126  C         10.1500   33.3910   24.4670 C.2   222  SER222      0.2314
    127  O          9.4190   32.8370   25.2970 O.2   222  SER222     -0.2863
    128  CB        12.1850   31.9890   23.9390 C.3   222  SER222      0.2116
    129  OG        11.6690   31.8020   22.6250 O.3   222  SER222     -0.2180
    130  N          7.4620   32.0690   22.8200 N.3   224  ASN224     -0.1240
    131  CA         6.8370   31.0020   22.0630 C.3   224  ASN224      0.1653
    132  C          5.8670   30.1570   22.8900 C.2   224  ASN224      0.2266
    133  O          5.6750   30.4000   24.0880 O.2   224  ASN224     -0.2867
    134  CB         7.8960   30.1040   21.4160 C.3   224  ASN224      0.1155
    135  CG         8.8210   29.4800   22.4150 C.2   224  ASN224      0.2627
    136  OD1        8.3930   28.9870   23.4620 O.2   224  ASN224     -0.2716
    137  ND2       10.1100   29.4860   22.1000 N.am  224  ASN224     -0.0877
    138  N         18.7500   33.1550   21.5970 N.3   261  ASP261     -0.1239
    139  CA        19.9090   33.5480   22.3740 C.3   261  ASP261      0.1674
    140  C         20.8190   32.3320   22.5650 C.2   261  ASP261      0.2266
    141  O         20.3280   31.2270   22.7270 O.2   261  ASP261     -0.2867
    142  CB        19.4470   34.0710   23.7400 C.3   261  ASP261      0.1410
    143  CG        18.5200   35.2850   23.6100 C.2   261  ASP261      0.3668
    144  OD1       17.4890   35.3520   24.3420 O.co2 261  ASP261     -0.2456
    145  OD2       18.8310   36.1520   22.7540 O.co2 261  ASP261     -0.2456
    146  N         23.4920   30.1760   24.9520 N.3   263  VAL263     -0.1245
    147  CA        23.5940   29.9330   26.4100 C.3   263  VAL263      0.1561
    148  C         24.9370   29.2690   26.6650 C.2   263  VAL263      0.2260
    149  O         25.2720   28.2590   26.0210 O.2   263  VAL263     -0.2867
    150  CB        22.4580   29.0060   26.9250 C.3   263  VAL263      0.0252
    151  CG1       22.5730   28.8730   28.4560 C.3   263  VAL263      0.0019
    152  CG2       21.0630   29.5700   26.5350 C.3   263  VAL263      0.0019
    153  N         27.9880   28.5580   30.0780 N.3   265  ARG265     -0.1245
    154  CA        28.2500   28.7160   31.5130 C.3   265  ARG265      0.1563
    155  C         29.3500   29.7230   31.6980 C.2   265  ARG265      0.2260
    156  O         30.0980   30.0000   30.7740 O.2   265  ARG265     -0.2867
    157  CB        28.6870   27.4150   32.1490 C.3   265  ARG265      0.0307
    158  CG        27.5560   26.4260   32.3130 C.3   265  ARG265      0.0489
    159  CD        27.9210   25.4380   33.3740 C.3   265  ARG265      0.2205
    160  NE        27.5270   24.1190   32.9220 N.pl3 265  ARG265     -0.0865
    161  CZ        26.4440   23.4810   33.3260 C.cat 265  ARG265      0.5346
    162  NH1       25.6310   24.0280   34.2280 N.pl3 265  ARG265      0.1354
    163  NH2       26.1820   22.2910   32.8200 N.pl3 265  ARG265      0.1354
    164  N         26.2540   25.5120   25.9070 N.3   271  LEU271     -0.1231
    165  CA        25.0140   24.7480   26.1230 C.3   271  LEU271      0.1693
    166  C         24.1050   24.8580   24.9200 C.2   271  LEU271      0.2591
    167  O         23.5120   23.8600   24.4960 O.2   271  LEU271     -0.2718
    168  CB        24.2660   25.2630   27.3690 C.3   271  LEU271      0.0284
    169  CG        25.0480   25.2220   28.7100 C.3   271  LEU271      0.0019
    170  CD1       24.1590   25.5230   29.9140 C.3   271  LEU271      0.0001
    171  CD2       25.8210   23.9800   28.9420 C.3   271  LEU271      0.0001
    172  N         23.9780   26.0760   24.3870 N.am  272  ARG272     -0.1980
    173  CA        23.1510   26.3170   23.1860 C.3   272  ARG272      0.1597
    174  C         23.8750   27.3220   22.3040 C.2   272  ARG272      0.2287
    175  O         24.1660   28.4240   22.7270 O.2   272  ARG272     -0.2864
    176  CB        21.7680   26.8680   23.5430 C.3   272  ARG272      0.0334
    177  CG        20.8750   25.9490   24.4270 C.3   272  ARG272      0.0492
    178  CD        20.0930   24.9280   23.5900 C.3   272  ARG272      0.2205
    179  NE        19.0670   24.1840   24.3310 N.pl3 272  ARG272     -0.0865
    180  CZ        17.7820   24.5510   24.4530 C.cat 272  ARG272      0.5346
    181  NH1       17.3190   25.6920   23.9220 N.pl3 272  ARG272      0.1354
    182  NH2       16.9420   23.7760   25.1450 N.pl3 272  ARG272      0.1354
    183  N         16.7490   19.2000   20.2470 N.3   302  LYS302     -0.1245
    184  CA        17.7920   20.2160   20.3280 C.3   302  LYS302      0.1561
    185  C         18.5830   20.2550   19.0220 C.2   302  LYS302      0.2260
    186  O         19.8190   20.4410   19.0090 O.2   302  LYS302     -0.2867
    187  CB        18.7260   19.9290   21.5130 C.3   302  LYS302      0.0271
    188  CG        18.0160   19.9490   22.8650 C.3   302  LYS302      0.0035
    189  CD        19.0450   19.7630   23.9300 C.3   302  LYS302      0.0206
    190  CE        18.5580   20.1900   25.2890 C.3   302  LYS302      0.1093
    191  NZ        17.8690   19.0840   25.9880 N.3   302  LYS302     -0.1314
    192  N         18.3250   17.8490   36.9160 N.3   520  CYS520     -0.1235
    193  CA        18.8760   19.1540   37.2840 C.3   520  CYS520      0.1677
    194  C         18.6330   19.4650   38.7620 C.2   520  CYS520      0.2270
    195  O         19.4970   20.0190   39.4430 O.2   520  CYS520     -0.2867
    196  CB        18.2800   20.2580   36.3970 C.3   520  CYS520      0.0956
    197  SG        18.8580   20.1220   34.6760 S.3   520  CYS520     -0.0801
@<TRIPOS>BOND
     1   186   185    2
     2   185   184    1
     3   183   184    1
     4   184   187    1
     5   134   131    1
     6   134   135    1
     7   187   188    1
     8   138   139    1
     9   131   130    1
    10   131   132    1
    11   137   135   am
    12   174   175    2
    13   174   173    1
    14   139   140    1
    15   139   142    1
    16   135   136    2
    17   140   141    2
    18   129   128    1
    19     1     2    1
    20   145   143   ar
    21   188   189    1
    22   132   133    2
    23     9     7   ar
    24     9    10   ar
    25   173   176    1
    26   173   172    1
    27     7     6   ar
    28   176   177    1
    29   178   179    1
    30   178   177    1
    31   143   142    1
    32   143   144   ar
    33    10     8   ar
    34   181   180    1
    35   189   190    1
    36   128   125    1
    37     2     5    1
    38     2     3    1
    39     6     8   ar
    40     6     5    1
    41   179   180    2
    42   172   166   am
    43     4     3    2
    44   180   182    1
    45   126   125    1
    46   126   127    2
    47   167   166    2
    48   125   124    1
    49   166   165    1
    50   146   147    1
    51   190   191    1
    52   164   165    1
    53   124   119   am
    54   149   148    2
    55   165   168    1
    56   120   119    2
    57   147   148    1
    58   147   150    1
    59   152   150    1
    60   119   118    1
    61    19    18    1
    62    60    61    1
    63   150   151    1
    64   115   114    1
    65   115   116    1
    66    18    17    1
    67    67    65    1
    68   114   113    1
    69   168   169    1
    70    65    64    1
    71    39    38    1
    72   118   117    1
    73   118   121    1
    74   112   111    2
    75    61    64    1
    76    61    62    1
    77    64    66    1
    78    63    62    2
    79   117   111   am
    80   111   110    1
    81    17    16    1
    82    16    15    1
    83   113   110    1
    84   169   171    1
    85   169   170    1
    86   122   121    1
    87   110   109    1
    88   123   121    1
    89    38    37    1
    90    29    28    1
    91    14    13    2
    92    12    15    1
    93    12    13    1
    94    12    11    1
    95    59    56    1
    96   153   154    1
    97    37    36    1
    98    30    28    1
    99    28    27    2
   100   156   155    2
   101   154   155    1
   102   154   157    1
   103    56    55    1
   104    56    57    1
   105    36    35    1
   106    27    26    1
   107    55    49   am
   108    58    57    2
   109    26    25    1
   110    25    24    1
   111   157   158    1
   112    24    21    1
   113   158   159    1
   114    54    52    1
   115    75    73    1
   116    43    42    2
   117    68    69    1
   118    35    32    1
   119    73    74    1
   120    73    72    1
   121    20    21    1
   122   163   161    1
   123   160   161    2
   124   160   159    1
   125    21    22    1
   126    49    48    1
   127    49    50    2
   128   108   107    2
   129   107   106    1
   130    48    51    1
   131    48    47    1
   132   106   105    1
   133   161   162    1
   134    42    47   am
   135    42    41    1
   136    72    69    1
   137    51    52    1
   138    69    70    1
   139    52    53    1
   140    32    33    1
   141    32    31    1
   142    34    33    2
   143    33    40   am
   144    45    46    1
   145    45    44    1
   146    40    46    1
   147    40    41    1
   148    22    23    2
   149   105   100   am
   150   197   196    1
   151    41    44    1
   152    71    70    2
   153   101   100    2
   154   100    99    1
   155    97    95   ar
   156   196   193    1
   157    96    95   ar
   158    95    94    1
   159   103   102    1
   160    99   102    1
   161    99    98    1
   162   192   193    1
   163    88    86    1
   164   193   194    1
   165   102   104    1
   166    93    94    1
   167    93    90    1
   168    98    91   am
   169    92    91    2
   170    91    90    1
   171    86    87    1
   172    86    85    1
   173    80    77    1
   174   194   195    2
   175    90    89    1
   176    77    76    1
   177    77    78    1
   178    85    82    1
   179    78    79    2
   180    82    83    1
   181    82    81    1
   182    83    84    2
