@<TRIPOS>MOLECULE
tmp/3tteA00.pdb
 135 125 0 0 0
SMALL
GASTEIGER

@<TRIPOS>ATOM
      1  N          4.5110   38.4330  -25.9340 N.3    23  LEU23      -0.1245
      2  CA         4.0590   37.0810  -26.1630 C.3    23  LEU23       0.1561
      3  C          2.5630   37.0580  -26.1280 C.2    23  LEU23       0.2260
      4  O          1.9490   37.6790  -25.2950 O.2    23  LEU23      -0.2867
      5  CB         4.6730   36.0910  -25.1900 C.3    23  LEU23       0.0270
      6  CG         4.2980   36.1120  -23.7240 C.3    23  LEU23       0.0019
      7  CD1        2.8580   35.6540  -23.5250 C.3    23  LEU23       0.0001
      8  CD2        5.2490   35.2020  -23.0400 C.3    23  LEU23       0.0001
      9  N          9.1100   39.1440  -10.4630 N.3    53  PHE53      -0.1241
     10  CA         8.0760   39.3440  -11.4400 C.3    53  PHE53       0.1605
     11  C          6.8100   39.1610  -10.6410 C.2    53  PHE53       0.2264
     12  O          6.7040   38.2230   -9.8350 O.2    53  PHE53      -0.2867
     13  CB         8.2010   38.3000  -12.5410 C.3    53  PHE53       0.0534
     14  CG         7.0100   38.1980  -13.4110 C.ar   53  PHE53      -0.0203
     15  CD1        6.8180   39.0960  -14.4400 C.ar   53  PHE53      -0.0042
     16  CD2        6.0800   37.1920  -13.2210 C.ar   53  PHE53      -0.0042
     17  CE1        5.7200   39.0010  -15.2580 C.ar   53  PHE53      -0.0003
     18  CE2        4.9620   37.0950  -14.0340 C.ar   53  PHE53      -0.0003
     19  CZ         4.7840   37.9950  -15.0630 C.ar   53  PHE53      -0.0000
     20  N          3.4820   39.3940  -11.8770 N.3    55  TYR55      -0.1241
     21  CA         2.3160   38.8590  -12.5760 C.3    55  TYR55       0.1605
     22  C          1.2770   39.9000  -12.9790 C.2    55  TYR55       0.2264
     23  O          0.8260   39.9220  -14.1250 O.2    55  TYR55      -0.2867
     24  CB         1.6410   37.7690  -11.7240 C.3    55  TYR55       0.0534
     25  CG         2.4700   36.5090  -11.5620 C.ar   55  TYR55      -0.0201
     26  CD1        2.2420   35.4030  -12.3780 C.ar   55  TYR55      -0.0009
     27  CD2        3.4790   36.4230  -10.5970 C.ar   55  TYR55      -0.0009
     28  CE1        2.9800   34.2370  -12.2310 C.ar   55  TYR55       0.0417
     29  CE2        4.2390   35.2430  -10.4510 C.ar   55  TYR55       0.0417
     30  CZ         3.9760   34.1600  -11.2780 C.ar   55  TYR55       0.1957
     31  OH         4.6970   32.9870  -11.1670 O.3    55  TYR55      -0.2866
     32  N         10.7150   30.2540  -24.3320 N.3   140  SER140     -0.1217
     33  CA         9.3320   30.1640  -23.9050 C.3   140  SER140      0.1889
     34  C          8.3950   31.1600  -24.5900 C.2   140  SER140      0.2288
     35  O          8.6100   32.3660  -24.5490 O.2   140  SER140     -0.2866
     36  CB         9.2630   30.2920  -22.3750 C.3   140  SER140      0.2089
     37  OG         7.9160   30.2980  -21.9270 O.3   140  SER140     -0.2183
     38  N          9.0280   25.9670  -25.8890 N.3   166  LYS166     -0.1245
     39  CA         7.7690   25.7720  -25.1650 C.3   166  LYS166      0.1561
     40  C          6.6900   26.6840  -25.7010 C.2   166  LYS166      0.2260
     41  O          6.9190   27.8660  -25.9590 O.2   166  LYS166     -0.2867
     42  CB         7.9480   26.0420  -23.6700 C.3   166  LYS166      0.0271
     43  CG         6.8270   25.4770  -22.7680 C.3   166  LYS166      0.0035
     44  CD         7.2400   25.4170  -21.2820 C.3   166  LYS166      0.0206
     45  CE         6.9700   26.7280  -20.5380 C.3   166  LYS166      0.1093
     46  NZ         7.5270   26.6690  -19.1150 N.3   166  LYS166     -0.1314
     47  N          2.1220   27.3300  -25.2450 N.3   168  LYS168     -0.1245
     48  CA         0.9740   27.1310  -24.3620 C.3   168  LYS168      0.1561
     49  C         -0.1940   26.4820  -25.0940 C.2   168  LYS168      0.2260
     50  O         -0.2720   26.5100  -26.3210 O.2   168  LYS168     -0.2867
     51  CB         0.5040   28.4590  -23.7640 C.3   168  LYS168      0.0271
     52  CG         1.6350   29.3140  -23.2380 C.3   168  LYS168      0.0035
     53  CD         1.1800   30.4220  -22.2930 C.3   168  LYS168      0.0206
     54  CE         2.3980   31.2310  -21.7940 C.3   168  LYS168      0.1093
     55  NZ         2.0960   32.2950  -20.7780 N.3   168  LYS168     -0.1314
     56  N          2.7400   23.7180  -22.2990 N.3   197  ASP197     -0.1239
     57  CA         2.3260   24.2150  -20.9960 C.3   197  ASP197      0.1674
     58  C          0.8390   24.4730  -21.0430 C.2   197  ASP197      0.2266
     59  O          0.3910   25.3080  -21.8100 O.2   197  ASP197     -0.2867
     60  CB         3.0810   25.5020  -20.6290 C.3   197  ASP197      0.1410
     61  CG         2.8450   25.9300  -19.2040 C.2   197  ASP197      0.3668
     62  OD1        1.7710   25.5700  -18.6620 O.co2 197  ASP197     -0.2456
     63  OD2        3.7240   26.6220  -18.6270 O.co2 197  ASP197     -0.2456
     64  N         -0.7970   25.5410  -18.4830 N.3   199  ASN199     -0.1240
     65  CA        -1.1250   26.5430  -17.4710 C.3   199  ASN199      0.1653
     66  C         -2.3890   26.2350  -16.6640 C.2   199  ASN199      0.2266
     67  O         -3.3160   27.0460  -16.6010 O.2   199  ASN199     -0.2867
     68  CB        -1.1960   27.9360  -18.0860 C.3   199  ASN199      0.1155
     69  CG         0.1780   28.4880  -18.3930 C.2   199  ASN199      0.2627
     70  OD1        0.6140   28.4590  -19.5400 O.2   199  ASN199     -0.2716
     71  ND2        0.8940   28.9380  -17.3590 N.am  199  ASN199     -0.0877
     72  N          3.1680   20.6050  -19.1250 N.3   223  GLU223     -0.1245
     73  CA         3.3850   21.3940  -17.9080 C.3   223  GLU223      0.1567
     74  C          2.0750   21.8620  -17.2750 C.2   223  GLU223      0.2260
     75  O          1.1390   22.3010  -17.9680 O.2   223  GLU223     -0.2867
     76  CB         4.3660   22.5440  -18.1950 C.3   223  GLU223      0.0388
     77  CG         4.6070   23.5330  -17.0510 C.3   223  GLU223      0.1160
     78  CD         5.5530   24.6490  -17.4770 C.2   223  GLU223      0.3649
     79  OE1        6.4180   24.3720  -18.3450 O.co2 223  GLU223     -0.2457
     80  OE2        5.4360   25.7920  -16.9620 O.co2 223  GLU223     -0.2457
     81  N          6.2650   25.5610  -10.7080 N.3   249  GLU249     -0.1245
     82  CA         6.4290   27.0160  -10.7560 C.3   249  GLU249      0.1567
     83  C          5.5940   27.7320   -9.6970 C.2   249  GLU249      0.2260
     84  O          5.8450   28.8920   -9.3810 O.2   249  GLU249     -0.2867
     85  CB         6.1280   27.5670  -12.1550 C.3   249  GLU249      0.0388
     86  CG         4.6950   27.8330  -12.4640 C.3   249  GLU249      0.1160
     87  CD         4.4970   28.0960  -13.9410 C.2   249  GLU249      0.3649
     88  OE1        5.2080   27.4720  -14.7640 O.co2 249  GLU249     -0.2457
     89  OE2        3.6330   28.9200  -14.2840 O.co2 249  GLU249     -0.2457
     90  N         11.9710   28.2010  -13.4340 N.3   299  HIS299     -0.1226
     91  CA        10.8920   28.9930  -13.9900 C.3   299  HIS299      0.1752
     92  C         11.3100   30.4590  -13.9210 C.2   299  HIS299      0.2595
     93  O         11.5310   30.9990  -12.8310 O.2   299  HIS299     -0.2718
     94  CB         9.6140   28.8210  -13.1720 C.3   299  HIS299      0.0759
     95  CG         8.4740   29.6900  -13.6220 C.ar  299  HIS299      0.0818
     96  ND1        7.9080   30.6540  -12.8090 N.ar  299  HIS299     -0.2268
     97  CD2        7.7810   29.7250  -14.7840 C.ar  299  HIS299      0.1154
     98  CE1        6.9120   31.2450  -13.4510 C.ar  299  HIS299      0.1986
     99  NE2        6.8120   30.6960  -14.6520 N.ar  299  HIS299     -0.2212
    100  N         11.4050   31.0840  -15.0920 N.am  300  ILE300     -0.1980
    101  CA        11.8580   32.4640  -15.2260 C.3   300  ILE300      0.1595
    102  C         12.9920   32.8490  -14.2740 C.2   300  ILE300      0.2287
    103  O         13.8300   32.0170  -13.9070 O.2   300  ILE300     -0.2864
    104  CB        10.7030   33.4380  -15.0880 C.3   300  ILE300      0.0276
    105  CG1       10.0750   33.3090  -13.7040 C.3   300  ILE300      0.0022
    106  CG2        9.6710   33.1850  -16.1790 C.3   300  ILE300      0.0022
    107  CD1        8.9230   34.2790  -13.4900 C.3   300  ILE300      0.0001
    108  N         14.7500   28.0860  -18.1030 N.3   319  GLU319     -0.1245
    109  CA        13.7350   28.6900  -18.9370 C.3   319  GLU319      0.1567
    110  C         14.1480   30.0980  -19.3280 C.2   319  GLU319      0.2260
    111  O         14.5320   30.9000  -18.4750 O.2   319  GLU319     -0.2867
    112  CB        12.4150   28.7960  -18.2070 C.3   319  GLU319      0.0388
    113  CG        11.3410   29.4030  -19.0610 C.3   319  GLU319      0.1160
    114  CD        10.0020   29.4520  -18.3610 C.2   319  GLU319      0.3649
    115  OE1       10.0060   29.5000  -17.1130 O.co2 319  GLU319     -0.2457
    116  OE2        8.9490   29.4480  -19.0460 O.co2 319  GLU319     -0.2457
    117  N         12.7170   33.4640  -20.6620 N.3   321  LEU321     -0.1245
    118  CA        11.6430   34.3970  -20.9210 C.3   321  LEU321      0.1561
    119  C         12.1700   35.6530  -20.2320 C.2   321  LEU321      0.2260
    120  O         12.5430   35.6030  -19.0580 O.2   321  LEU321     -0.2867
    121  CB        10.3490   33.9150  -20.2760 C.3   321  LEU321      0.0270
    122  CG         9.0790   34.7220  -20.5350 C.3   321  LEU321      0.0019
    123  CD1        8.8080   34.9150  -22.0190 C.3   321  LEU321      0.0001
    124  CD2        7.9070   34.0160  -19.8660 C.3   321  LEU321      0.0001
    125  N         12.0440   39.4070  -18.9020 N.3   323  PHE323     -0.1241
    126  CA        11.1630   40.4690  -18.4280 C.3   323  PHE323      0.1605
    127  C         11.9810   41.6500  -17.9410 C.2   323  PHE323      0.2264
    128  O         11.5480   42.7980  -18.0200 O.2   323  PHE323     -0.2867
    129  CB        10.2890   39.9730  -17.2650 C.3   323  PHE323      0.0534
    130  CG         9.1310   39.1170  -17.6880 C.ar  323  PHE323     -0.0203
    131  CD1        8.0180   39.6860  -18.2890 C.ar  323  PHE323     -0.0042
    132  CD2        9.1470   37.7410  -17.4630 C.ar  323  PHE323     -0.0042
    133  CE1        6.9320   38.8930  -18.6860 C.ar  323  PHE323     -0.0003
    134  CE2        8.0740   36.9460  -17.8450 C.ar  323  PHE323     -0.0003
    135  CZ         6.9630   37.5240  -18.4610 C.ar  323  PHE323     -0.0000
@<TRIPOS>BOND
     1    50    49    2
     2     2     3    1
     3     2     1    1
     4     2     5    1
     5     3     4    2
     6    41    40    2
     7    38    39    1
     8    40    39    1
     9    47    48    1
    10     5     6    1
    11    39    42    1
    12    49    48    1
    13    34    35    2
    14    34    33    1
    15    48    51    1
    16    32    33    1
    17    33    36    1
    18    51    52    1
    19     6     7    1
    20     6     8    1
    21    42    43    1
    22    52    53    1
    23    43    44    1
    24    36    37    1
    25    56    57    1
    26    53    54    1
    27   123   122    1
    28    59    58    2
    29    54    55    1
    30    44    45    1
    31    58    57    1
    32    57    60    1
    33   118   117    1
    34   118   121    1
    35   118   119    1
    36    60    61    1
    37    45    46    1
    38   122   121    1
    39   122   124    1
    40   119   120    2
    41    70    69    2
    42   110   109    1
    43   110   111    2
    44    61    62   ar
    45    61    63   ar
    46    72    73    1
    47   113   114    1
    48   113   112    1
    49   116   114   ar
    50   109   112    1
    51   109   108    1
    52   125   126    1
    53   133   135   ar
    54   133   131   ar
    55    64    65    1
    56   135   134   ar
    57   126   127    1
    58   126   129    1
    59    69    68    1
    60    69    71   am
    61   114   115   ar
    62    79    78   ar
    63   131   130   ar
    64    76    73    1
    65    76    77    1
    66    68    65    1
    67   128   127    2
    68    75    74    2
    69    73    74    1
    70   134   132   ar
    71   130   132   ar
    72   130   129    1
    73    78    77    1
    74    78    80   ar
    75    65    66    1
    76    66    67    2
    77   106   104    1
    78    17    19   ar
    79    17    15   ar
    80   101   100    1
    81   101   104    1
    82   101   102    1
    83   100    92   am
    84   104   105    1
    85    19    18   ar
    86    97    99   ar
    87    97    95   ar
    88    88    87   ar
    89    99    98   ar
    90    15    14   ar
    91    89    87   ar
    92   102   103    2
    93    23    22    2
    94    18    16   ar
    95    91    92    1
    96    91    90    1
    97    91    94    1
    98    87    86    1
    99    92    93    2
   100   105   107    1
   101    95    94    1
   102    95    96   ar
   103    98    96   ar
   104    14    16   ar
   105    14    13    1
   106    22    21    1
   107    21    20    1
   108    21    24    1
   109    13    10    1
   110    86    85    1
   111    26    28   ar
   112    26    25   ar
   113    28    30   ar
   114    85    82    1
   115    24    25    1
   116    25    27   ar
   117    10    11    1
   118    10     9    1
   119    30    31    1
   120    30    29   ar
   121    82    81    1
   122    82    83    1
   123    11    12    2
   124    27    29   ar
   125    83    84    2
