@<TRIPOS>MOLECULE
tmp/3ttfA00.pdb
 165 157 0 0 0
SMALL
GASTEIGER

@<TRIPOS>ATOM
      1  N         16.5780   15.9770   18.8930 N.3   301  LEU301     -0.1231
      2  CA        16.4810   17.0380   19.8830 C.3   301  LEU301      0.1693
      3  C         17.6840   17.9620   19.8310 C.2   301  LEU301      0.2591
      4  O         18.7750   17.5230   19.4570 O.2   301  LEU301     -0.2718
      5  CB        16.4660   16.4090   21.2810 C.3   301  LEU301      0.0284
      6  CG        15.1610   16.1710   22.0350 C.3   301  LEU301      0.0019
      7  CD1       13.9870   15.8580   21.1220 C.3   301  LEU301      0.0001
      8  CD2       15.4190   15.0600   23.0880 C.3   301  LEU301      0.0001
      9  N         17.5030   19.2060   20.2860 N.am  302  LYS302     -0.1980
     10  CA        18.5540   20.2140   20.3160 C.3   302  LYS302      0.1596
     11  C         19.3110   20.2330   18.9920 C.2   302  LYS302      0.2287
     12  O         20.5410   20.3650   18.9590 O.2   302  LYS302     -0.2864
     13  CB        19.5110   19.9300   21.4880 C.3   302  LYS302      0.0298
     14  CG        18.7910   20.0240   22.8290 C.3   302  LYS302      0.0038
     15  CD        19.7400   19.7590   23.9560 C.3   302  LYS302      0.0206
     16  CE        19.0170   19.7600   25.2680 C.3   302  LYS302      0.1093
     17  NZ        18.2200   18.4940   25.3620 N.3   302  LYS302     -0.1314
     18  N         24.3390    6.8330   17.6510 N.3   375  HIS375     -0.1241
     19  CA        24.2400    8.0140   18.5110 C.3   375  HIS375      0.1621
     20  C         25.4670    8.2140   19.4220 C.2   375  HIS375      0.2264
     21  O         26.0540    9.2970   19.4690 O.2   375  HIS375     -0.2867
     22  CB        23.0220    7.8200   19.4030 C.3   375  HIS375      0.0745
     23  CG        22.5610    9.0570   20.0670 C.ar  375  HIS375      0.0817
     24  ND1       21.7030    9.9450   19.4530 N.ar  375  HIS375     -0.2268
     25  CD2       22.7640    9.5250   21.3170 C.ar  375  HIS375      0.1154
     26  CE1       21.4260   10.9270   20.2900 C.ar  375  HIS375      0.1986
     27  NE2       22.0590   10.6980   21.4230 N.ar  375  HIS375     -0.2212
     28  N         28.5190   11.0480   19.6810 N.3   379  HIS379     -0.1241
     29  CA        28.8880   11.8400   20.8570 C.3   379  HIS379      0.1621
     30  C         30.4030   11.7460   21.1170 C.2   379  HIS379      0.2264
     31  O         31.0590   12.7540   21.4110 O.2   379  HIS379     -0.2867
     32  CB        28.1950   11.3090   22.0950 C.3   379  HIS379      0.0745
     33  CG        26.8060   11.8360   22.2790 C.ar  379  HIS379      0.0817
     34  ND1       26.5090   13.1840   22.2110 N.ar  379  HIS379     -0.2268
     35  CD2       25.6760   11.2180   22.6760 C.ar  379  HIS379      0.1154
     36  CE1       25.2120   13.3510   22.4430 C.ar  379  HIS379      0.1986
     37  NE2       24.7000   12.1820   22.7600 N.ar  379  HIS379     -0.2212
     38  N         23.8160    9.8430   28.7200 N.3   402  ASP402     -0.1225
     39  CA        22.7050   10.7140   28.3390 C.3   402  ASP402      0.1805
     40  C         21.3830   10.0590   28.7200 C.2   402  ASP402      0.2598
     41  O         21.3550    9.1860   29.6190 O.2   402  ASP402     -0.2718
     42  CB        22.7450   11.1420   26.8280 C.3   402  ASP402      0.1424
     43  CG        22.6030    9.9750   25.8790 C.2   402  ASP402      0.3668
     44  OD1       22.5290   10.1840   24.6380 O.co2 402  ASP402     -0.2456
     45  OD2       22.5810    8.8200   26.3740 O.co2 402  ASP402     -0.2456
     46  N         20.2950   10.4850   28.0530 N.am  403  GLY403     -0.1942
     47  CA        18.9300    9.9380   28.3340 C.3   403  GLY403      0.2014
     48  C         18.7750    8.5890   27.6580 C.2   403  GLY403      0.2638
     49  O         18.9450    7.5590   28.2870 O.2   403  GLY403     -0.2714
     50  N         18.4640    8.6090   26.3680 N.am  404  ILE404     -0.1977
     51  CA        18.2650    7.4110   25.5720 C.3   404  ILE404      0.1596
     52  C         18.8080    7.7720   24.1520 C.2   404  ILE404      0.2287
     53  O         18.5950    8.9090   23.6570 O.2   404  ILE404     -0.2864
     54  CB        16.7500    6.9290   25.6210 C.3   404  ILE404      0.0276
     55  CG1       16.4450    6.1300   26.9020 C.3   404  ILE404      0.0022
     56  CG2       16.4010    5.9550   24.4950 C.3   404  ILE404      0.0022
     57  CD1       15.9980    6.9320   28.0410 C.3   404  ILE404      0.0001
     58  N         20.5470    9.1060   32.5280 N.3   495  GLY495     -0.1210
     59  CA        19.4670   10.0800   32.7620 C.3   495  GLY495      0.1956
     60  C         18.3470    9.5250   33.6240 C.2   495  GLY495      0.2611
     61  O         17.8890   10.2070   34.5440 O.2   495  GLY495     -0.2717
     62  N         17.9180    8.2910   33.3320 N.am  496  ARG496     -0.1979
     63  CA        16.7680    7.7050   34.0370 C.3   496  ARG496      0.1597
     64  C         17.2160    7.3200   35.4550 C.2   496  ARG496      0.2287
     65  O         16.4330    7.3470   36.3980 O.2   496  ARG496     -0.2864
     66  CB        16.1640    6.5050   33.2790 C.3   496  ARG496      0.0334
     67  CG        15.5000    6.7990   31.8610 C.3   496  ARG496      0.0492
     68  CD        14.2380    7.7100   31.8760 C.3   496  ARG496      0.2205
     69  NE        14.6770    9.0790   32.1600 N.pl3 496  ARG496     -0.0865
     70  CZ        15.1020    9.9250   31.2340 C.cat 496  ARG496      0.5346
     71  NH1       15.5360   11.1390   31.5700 N.pl3 496  ARG496      0.1354
     72  NH2       15.0870    9.5610   29.9630 N.pl3 496  ARG496      0.1354
     73  N         19.4780    9.0370   37.2440 N.3   498  PHE498     -0.1227
     74  CA        19.3730   10.2880   37.9950 C.3   498  PHE498      0.1736
     75  C         17.9100   10.5510   38.3860 C.2   498  PHE498      0.2595
     76  O         17.6290   11.0100   39.5040 O.2   498  PHE498     -0.2718
     77  CB        19.7870   11.4350   37.1030 C.3   498  PHE498      0.0547
     78  CG        21.2200   11.8150   37.2550 C.ar  498  PHE498     -0.0202
     79  CD1       22.2290   11.0060   36.7620 C.ar  498  PHE498     -0.0042
     80  CD2       21.5560   12.9690   37.9740 C.ar  498  PHE498     -0.0042
     81  CE1       23.6320   11.3840   36.9240 C.ar  498  PHE498     -0.0003
     82  CE2       22.9020   13.3540   38.1250 C.ar  498  PHE498     -0.0003
     83  CZ        23.9360   12.5650   37.6080 C.ar  498  PHE498     -0.0000
     84  N         16.9800   10.3090   37.4510 N.am  499  ASP499     -0.1974
     85  CA        15.5350   10.5370   37.7550 C.3   499  ASP499      0.1709
     86  C         15.0500    9.6620   38.9280 C.2   499  ASP499      0.2293
     87  O         14.3260   10.1330   39.7910 O.2   499  ASP499     -0.2864
     88  CB        14.6810   10.2720   36.5020 C.3   499  ASP499      0.1436
     89  CG        14.8620   11.3320   35.4100 C.2   499  ASP499      0.3671
     90  OD1       15.4530   12.4390   35.6410 O.co2 499  ASP499     -0.2456
     91  OD2       14.3860   11.0630   34.2830 O.co2 499  ASP499     -0.2456
     92  N         12.3210   18.3040   29.9540 N.3   515  GLU515     -0.1231
     93  CA        13.2190   17.1460   29.8800 C.3   515  GLU515      0.1699
     94  C         14.4990   17.3930   30.6820 C.2   515  GLU515      0.2592
     95  O         15.1700   18.4130   30.4910 O.2   515  GLU515     -0.2718
     96  CB        13.5460   16.8550   28.4080 C.3   515  GLU515      0.0402
     97  CG        14.5620   17.8320   27.7610 C.3   515  GLU515      0.1161
     98  CD        15.9230   17.1780   27.5670 C.2   515  GLU515      0.3649
     99  OE1       16.8300   17.7850   26.9450 O.co2 515  GLU515     -0.2457
    100  OE2       16.0800   16.0390   28.0480 O.co2 515  GLU515     -0.2457
    101  N         14.8140   16.4840   31.6130 N.am  516  GLY516     -0.1957
    102  CA        16.0260   16.6590   32.4120 C.3   516  GLY516      0.1869
    103  C         15.8360   17.5010   33.6590 C.2   516  GLY516      0.2309
    104  O         16.7960   17.7060   34.3980 O.2   516  GLY516     -0.2863
    105  N         17.0090   15.7070   36.8780 N.3   519  ALA519     -0.1231
    106  CA        18.4690   15.5770   36.9290 C.3   519  ALA519      0.1694
    107  C         19.1070   16.9140   37.3110 C.2   519  ALA519      0.2592
    108  O         20.0230   16.9460   38.1320 O.2   519  ALA519     -0.2718
    109  CB        19.0330   15.0980   35.6050 C.3   519  ALA519      0.0304
    110  N         18.6100   18.0180   36.7480 N.am  520  CYS520     -0.1970
    111  CA        19.1420   19.3350   37.0860 C.3   520  CYS520      0.1712
    112  C         18.8610   19.6190   38.5340 C.2   520  CYS520      0.2296
    113  O         19.7060   20.1830   39.2280 O.2   520  CYS520     -0.2864
    114  CB        18.5610   20.4390   36.2220 C.3   520  CYS520      0.0983
    115  SG        19.0960   20.2840   34.4770 S.3   520  CYS520     -0.0798
    116  N         21.3750   17.5980   40.6620 N.3   523  GLU523     -0.1245
    117  CA        22.7050   18.2550   40.5850 C.3   523  GLU523      0.1567
    118  C         22.7390   19.5440   41.3920 C.2   523  GLU523      0.2260
    119  O         23.6880   19.7900   42.1160 O.2   523  GLU523     -0.2867
    120  CB        23.0870   18.5580   39.1330 C.3   523  GLU523      0.0388
    121  CG        24.4960   19.1890   39.0620 C.3   523  GLU523      0.1160
    122  CD        24.9140   19.7080   37.6800 C.2   523  GLU523      0.3649
    123  OE1       24.1610   19.5350   36.7080 O.co2 523  GLU523     -0.2457
    124  OE2       26.0240   20.3080   37.5950 O.co2 523  GLU523     -0.2457
    125  N         24.6660   14.1820   27.0250 N.3   597  GLY597     -0.1210
    126  CA        24.1390   15.3720   27.7080 C.3   597  GLY597      0.1956
    127  C         24.3600   15.3390   29.2210 C.2   597  GLY597      0.2611
    128  O         24.4150   16.3800   29.8790 O.2   597  GLY597     -0.2717
    129  N         24.5500   14.1510   29.7840 N.am  598  VAL598     -0.1979
    130  CA        24.7110   14.0430   31.2420 C.3   598  VAL598      0.1595
    131  C         26.0830   14.6250   31.6230 C.2   598  VAL598      0.2287
    132  O         26.2710   15.1190   32.7190 O.2   598  VAL598     -0.2864
    133  CB        24.4720   12.5870   31.7360 C.3   598  VAL598      0.0276
    134  CG1       24.9650   12.3890   33.1910 C.3   598  VAL598      0.0022
    135  CG2       23.0050   12.2560   31.6180 C.3   598  VAL598      0.0022
    136  N         27.2110   17.2880   30.8460 N.3   600  HIS600     -0.1226
    137  CA        27.0110   18.6790   31.2700 C.3   600  HIS600      0.1752
    138  C         26.9620   18.8030   32.8070 C.2   600  HIS600      0.2596
    139  O         27.0360   19.8940   33.3260 O.2   600  HIS600     -0.2718
    140  CB        25.7370   19.2500   30.6540 C.3   600  HIS600      0.0759
    141  CG        25.9160   19.7430   29.2400 C.ar  600  HIS600      0.0818
    142  ND1       25.1360   19.2930   28.1970 N.ar  600  HIS600     -0.2268
    143  CD2       26.7700   20.6490   28.7040 C.ar  600  HIS600      0.1154
    144  CE1       25.4910   19.9050   27.0790 C.ar  600  HIS600      0.1986
    145  NE2       26.4770   20.7340   27.3580 N.ar  600  HIS600     -0.2212
    146  N         26.8460   17.6990   33.5360 N.am  601  ASN601     -0.1974
    147  CA        26.8360   17.7870   35.0070 C.3   601  ASN601      0.1688
    148  C         28.2300   18.1320   35.5160 C.2   601  ASN601      0.2292
    149  O         29.1560   17.3440   35.3880 O.2   601  ASN601     -0.2864
    150  CB        26.3020   16.4490   35.5610 C.3   601  ASN601      0.1181
    151  CG        26.0800   16.4590   37.0500 C.2   601  ASN601      0.2629
    152  OD1       26.9650   16.8210   37.8090 O.2   601  ASN601     -0.2716
    153  ND2       24.9130   15.9960   37.4730 N.am  601  ASN601     -0.0877
    154  N         25.9930   17.6040   24.7480 N.3   626  GLY626     -0.1210
    155  CA        24.7240   16.9900   24.3840 C.3   626  GLY626      0.1956
    156  C         24.4630   16.8610   22.8810 C.2   626  GLY626      0.2611
    157  O         25.3750   16.9350   22.0680 O.2   626  GLY626     -0.2717
    158  N         23.1940   16.6900   22.5230 N.am  627  ASP627     -0.1973
    159  CA        22.8230   16.4220   21.1520 C.3   627  ASP627      0.1709
    160  C         23.1250   17.5630   20.1850 C.2   627  ASP627      0.2293
    161  O         23.2090   17.3340   18.9850 O.2   627  ASP627     -0.2864
    162  CB        21.3430   16.0270   21.0980 C.3   627  ASP627      0.1436
    163  CG        21.1090   14.6460   21.6690 C.2   627  ASP627      0.3671
    164  OD1       22.1040   13.9690   22.0750 O.co2 627  ASP627     -0.2456
    165  OD2       19.9470   14.2190   21.7470 O.co2 627  ASP627     -0.2456
@<TRIPOS>BOND
     1    18    19    1
     2    19    22    1
     3    19    20    1
     4     1     2    1
     5    12    11    2
     6   161   160    2
     7    11    10    1
     8    22    23    1
     9    20    21    2
    10    24    23   ar
    11    24    26   ar
    12     4     3    2
    13    28    29    1
    14     3     2    1
    15     3     9   am
    16     2     5    1
    17    23    25   ar
    18   160   159    1
    19     9    10    1
    20    26    27   ar
    21    10    13    1
    22    29    30    1
    23    29    32    1
    24   162   159    1
    25   162   163    1
    26    30    31    2
    27     7     6    1
    28   159   158    1
    29     5     6    1
    30    25    27   ar
    31    13    14    1
    32   163   165   ar
    33   163   164   ar
    34     6     8    1
    35   157   156    2
    36    32    33    1
    37    34    33   ar
    38    34    36   ar
    39    33    35   ar
    40    36    37   ar
    41   158   156   am
    42    35    37   ar
    43    14    15    1
    44   156   155    1
    45    53    52    2
    46    15    16    1
    47    52    51    1
    48   155   154    1
    49    56    54    1
    50    44    43   ar
    51    16    17    1
    52    51    54    1
    53    51    50    1
    54    54    55    1
    55    43    45   ar
    56    43    42    1
    57    50    48   am
    58    42    39    1
    59    55    57    1
    60    99    98   ar
    61   125   126    1
    62   144   145   ar
    63   144   142   ar
    64   145   143   ar
    65    98    97    1
    66    98   100   ar
    67    48    49    2
    68    48    47    1
    69   126   127    1
    70    97    96    1
    71    46    47    1
    72    46    40   am
    73   142   141   ar
    74    39    38    1
    75    39    40    1
    76    96    93    1
    77   143   141   ar
    78    40    41    2
    79   127   129   am
    80   127   128    2
    81   141   140    1
    82   129   130    1
    83    93    92    1
    84    93    94    1
    85    72    70    1
    86    95    94    2
    87   140   137    1
    88    94   101   am
    89   136   137    1
    90    70    71    1
    91    70    69    2
    92   130   131    1
    93   130   133    1
    94   137   138    1
    95   101   102    1
    96   135   133    1
    97   131   132    2
    98   133   134    1
    99    67    68    1
   100    67    66    1
   101    68    69    1
   102   102   103    1
   103    58    59    1
   104    59    60    1
   105   138   139    2
   106   138   146   am
   107    66    63    1
   108    62    60   am
   109    62    63    1
   110   146   147    1
   111    60    61    2
   112   103   104    2
   113    63    64    1
   114    91    89   ar
   115   115   114    1
   116   147   148    1
   117   147   150    1
   118   149   148    2
   119    89    90   ar
   120    89    88    1
   121    64    65    2
   122   150   151    1
   123   109   106    1
   124   114   111    1
   125    88    85    1
   126   123   122   ar
   127   110   111    1
   128   110   107   am
   129    79    81   ar
   130    79    78   ar
   131   105   106    1
   132    81    83   ar
   133   106   107    1
   134   151   153   am
   135   151   152    2
   136   111   112    1
   137    77    78    1
   138    77    74    1
   139    73    74    1
   140    78    80   ar
   141   107   108    2
   142    84    85    1
   143    84    75   am
   144   124   122   ar
   145    83    82   ar
   146   122   121    1
   147    85    86    1
   148    80    82   ar
   149    74    75    1
   150    75    76    2
   151   112   113    2
   152    86    87    2
   153   121   120    1
   154   120   117    1
   155   117   116    1
   156   117   118    1
   157   118   119    2
