@<TRIPOS>MOLECULE
tmp/3ttiA00.pdb
 192 176 0 0 0
SMALL
GASTEIGER

@<TRIPOS>ATOM
      1  N        -28.3350    5.2920  -41.0090 N.3    23  LYS23      -0.1245
      2  CA       -29.3360    5.1320  -39.9580 C.3    23  LYS23       0.1561
      3  C        -29.0620    6.2390  -38.9270 C.2    23  LYS23       0.2260
      4  O        -27.8950    6.4350  -38.5370 O.2    23  LYS23      -0.2867
      5  CB       -29.1480    3.7570  -39.3080 C.3    23  LYS23       0.0271
      6  CG       -30.4070    2.9670  -39.0010 C.3    23  LYS23       0.0035
      7  CD       -30.3900    2.4160  -37.5570 C.3    23  LYS23       0.0206
      8  CE       -28.9790    2.0550  -37.0610 C.3    23  LYS23       0.1093
      9  NZ       -28.9720    1.8080  -35.5910 N.3    23  LYS23      -0.1314
     10  N        -28.4430    8.0440  -35.5600 N.3    25  ILE25      -0.1231
     11  CA       -27.9440    7.5860  -34.2450 C.3    25  ILE25       0.1692
     12  C        -27.6710    8.7240  -33.2410 C.2    25  ILE25       0.2592
     13  O        -27.5800    8.4870  -32.0320 O.2    25  ILE25      -0.2718
     14  CB       -26.6810    6.6880  -34.3630 C.3    25  ILE25       0.0266
     15  CG1      -25.5110    7.4680  -34.9730 C.3    25  ILE25       0.0019
     16  CG2      -26.9990    5.4160  -35.1650 C.3    25  ILE25       0.0020
     17  CD1      -24.1330    6.8740  -34.7270 C.3    25  ILE25       0.0001
     18  N        -27.5590    9.9530  -33.7440 N.am   26  GLY26      -0.1957
     19  CA       -27.4110   11.1340  -32.8840 C.3    26  GLY26       0.1869
     20  C        -27.8500   12.4820  -33.4430 C.2    26  GLY26       0.2309
     21  O        -27.1500   13.0680  -34.2660 O.2    26  GLY26      -0.2863
     22  N        -24.4720   20.9800  -32.9720 N.3    30  GLN30      -0.1245
     23  CA       -23.8740   21.3620  -34.2580 C.3    30  GLN30       0.1566
     24  C        -24.3030   20.4360  -35.3960 C.2    30  GLN30       0.2260
     25  O        -24.5200   20.8900  -36.5270 O.2    30  GLN30      -0.2867
     26  CB       -22.3210   21.4500  -34.1780 C.3    30  GLN30       0.0367
     27  CG       -21.6040   20.2710  -33.5080 C.3    30  GLN30       0.0905
     28  CD       -20.0750   20.2530  -33.7700 C.2    30  GLN30       0.2608
     29  OE1      -19.3950   21.2850  -33.6820 O.2    30  GLN30      -0.2717
     30  NE2      -19.5400   19.0650  -34.0980 N.am   30  GLN30      -0.0878
     31  N        -25.9750   13.1110  -36.4930 N.3    33  VAL33      -0.1245
     32  CA       -25.0940   11.9520  -36.6990 C.3    33  VAL33       0.1561
     33  C        -25.8970   10.7440  -37.2380 C.2    33  VAL33       0.2260
     34  O        -27.0360   10.5330  -36.8300 O.2    33  VAL33      -0.2867
     35  CB       -24.3310   11.5520  -35.4220 C.3    33  VAL33       0.0252
     36  CG1      -23.2780   10.5170  -35.7570 C.3    33  VAL33       0.0019
     37  CG2      -23.6500   12.7600  -34.8010 C.3    33  VAL33       0.0019
     38  N        -19.3160    6.3800  -37.9240 N.3    46  ALA46      -0.1245
     39  CA       -20.2230    7.4460  -37.4970 C.3    46  ALA46       0.1562
     40  C        -19.9560    8.6150  -38.4230 C.2    46  ALA46       0.2260
     41  O        -18.7800    8.9420  -38.6830 O.2    46  ALA46      -0.2867
     42  CB       -19.9210    7.8370  -36.0780 C.3    46  ALA46       0.0290
     43  N        -21.1740   12.5990  -39.0700 N.3    48  LYS48      -0.1245
     44  CA       -21.8280   13.7660  -38.5110 C.3    48  LYS48       0.1561
     45  C        -21.8070   14.9290  -39.5050 C.2    48  LYS48       0.2260
     46  O        -20.7490   15.3100  -40.0230 O.2    48  LYS48      -0.2867
     47  CB       -21.1810   14.1670  -37.1790 C.3    48  LYS48       0.0271
     48  CG       -21.7870   15.4300  -36.5110 C.3    48  LYS48       0.0035
     49  CD       -20.8810   15.8990  -35.3950 C.3    48  LYS48       0.0206
     50  CE       -21.6580   16.2420  -34.1360 C.3    48  LYS48       0.1093
     51  NZ       -20.7230   16.4470  -32.9620 N.3    48  LYS48      -0.1314
     52  N        -12.6640   22.6870  -33.4480 N.3    66  GLU66      -0.1245
     53  CA       -12.7600   21.2510  -33.3210 C.3    66  GLU66       0.1567
     54  C        -12.1690   20.6130  -34.5730 C.2    66  GLU66       0.2260
     55  O        -11.3250   19.7090  -34.4650 O.2    66  GLU66      -0.2867
     56  CB       -14.1930   20.8210  -33.0130 C.3    66  GLU66       0.0388
     57  CG       -14.2700   19.9770  -31.7320 C.3    66  GLU66       0.1160
     58  CD       -15.5750   20.1040  -30.9760 C.2    66  GLU66       0.3649
     59  OE1      -15.5560   20.7610  -29.9170 O.co2  66  GLU66      -0.2457
     60  OE2      -16.6080   19.5470  -31.4270 O.co2  66  GLU66      -0.2457
     61  N         -8.7890   18.5540  -34.0630 N.3    70  MET70      -0.1245
     62  CA        -9.1660   17.1800  -34.3820 C.3    70  MET70       0.1570
     63  C         -8.2480   16.5650  -35.3760 C.2    70  MET70       0.2261
     64  O         -8.3860   15.3830  -35.6670 O.2    70  MET70      -0.2867
     65  CB       -10.6090   17.1110  -34.9500 C.3    70  MET70       0.0387
     66  CG       -11.4120   15.8960  -34.5480 C.3    70  MET70       0.0595
     67  SD       -13.1970   15.9710  -35.0210 S.3    70  MET70      -0.1393
     68  CE       -13.7220   17.5910  -34.4740 C.3    70  MET70       0.0692
     69  N        -11.0820   11.2420  -30.0000 N.3    79  ILE79      -0.1245
     70  CA       -11.6150   11.1380  -31.3630 C.3    79  ILE79       0.1561
     71  C        -10.5960   11.3970  -32.4390 C.2    79  ILE79       0.2260
     72  O         -9.8840   12.3810  -32.3990 O.2    79  ILE79      -0.2867
     73  CB       -12.8910   12.0640  -31.6020 C.3    79  ILE79       0.0252
     74  CG1      -13.1940   12.2410  -33.0810 C.3    79  ILE79       0.0019
     75  CG2      -12.7200   13.4690  -31.0490 C.3    79  ILE79       0.0019
     76  CD1      -14.5670   12.8910  -33.2980 C.3    79  ILE79       0.0001
     77  N        -10.3350   11.3250  -36.8200 N.3    81  LEU81      -0.1245
     78  CA       -11.1730   11.4030  -37.9880 C.3    81  LEU81       0.1561
     79  C        -10.6320   10.4670  -39.0440 C.2    81  LEU81       0.2260
     80  O         -9.4200   10.2940  -39.1840 O.2    81  LEU81      -0.2867
     81  CB       -11.2540   12.8200  -38.5230 C.3    81  LEU81       0.0270
     82  CG       -11.9980   13.8890  -37.7500 C.3    81  LEU81       0.0019
     83  CD1      -11.4490   15.2180  -38.1730 C.3    81  LEU81       0.0001
     84  CD2      -13.5210   13.8240  -38.0180 C.3    81  LEU81       0.0001
     85  N        -18.4520   14.7850  -41.0990 N.3    99  LEU99      -0.1245
     86  CA       -17.3370   14.3520  -40.2540 C.3    99  LEU99       0.1561
     87  C        -17.5140   12.8810  -39.9790 C.2    99  LEU99       0.2260
     88  O        -18.5790   12.4530  -39.5240 O.2    99  LEU99      -0.2867
     89  CB       -17.3480   15.1380  -38.9390 C.3    99  LEU99       0.0270
     90  CG       -17.0270   16.6190  -39.0660 C.3    99  LEU99       0.0019
     91  CD1      -17.3260   17.2620  -37.7370 C.3    99  LEU99       0.0001
     92  CD2      -15.4730   16.7930  -39.4480 C.3    99  LEU99       0.0001
     93  N        -16.0270    9.2070  -38.4430 N.3   101  MET101     -0.1230
     94  CA       -15.1420    8.5000  -37.5060 C.3   101  MET101      0.1702
     95  C        -15.6120    7.0600  -37.2620 C.2   101  MET101      0.2592
     96  O        -16.7450    6.6790  -37.5950 O.2   101  MET101     -0.2718
     97  CB       -15.0850    9.2500  -36.1640 C.3   101  MET101      0.0401
     98  CG       -16.4820    9.3160  -35.4850 C.3   101  MET101      0.0596
     99  SD       -16.5570    9.8630  -33.7460 S.3   101  MET101     -0.1393
    100  CE       -15.8410    8.4490  -32.8920 C.3   101  MET101      0.0692
    101  N        -14.7410    6.2890  -36.6150 N.am  102  GLU102     -0.1966
    102  CA       -15.0730    4.9420  -36.1990 C.3   102  GLU102      0.1733
    103  C        -16.4350    4.8750  -35.5220 C.2   102  GLU102      0.2616
    104  O        -16.7350    5.6950  -34.6550 O.2   102  GLU102     -0.2715
    105  CB       -14.0470    4.4560  -35.2110 C.3   102  GLU102      0.0429
    106  CG       -14.0030    2.9870  -35.1870 C.3   102  GLU102      0.1163
    107  CD       -13.5450    2.4150  -33.8640 C.2   102  GLU102      0.3649
    108  OE1      -12.3810    2.6690  -33.4550 O.co2 102  GLU102     -0.2457
    109  OE2      -14.3590    1.6690  -33.2690 O.co2 102  GLU102     -0.2457
    110  N        -17.2400    3.8870  -35.8800 N.am  103  LEU103     -0.1963
    111  CA       -18.5480    3.7150  -35.2200 C.3   103  LEU103      0.1728
    112  C        -18.3880    3.0540  -33.8460 C.2   103  LEU103      0.2616
    113  O        -17.6840    2.0570  -33.7100 O.2   103  LEU103     -0.2715
    114  CB       -19.5020    2.8590  -36.0600 C.3   103  LEU103      0.0311
    115  CG       -20.8900    2.7520  -35.4090 C.3   103  LEU103      0.0022
    116  CD1      -21.4880    4.1350  -35.3840 C.3   103  LEU103      0.0001
    117  CD2      -21.8350    1.7520  -36.0750 C.3   103  LEU103      0.0001
    118  N        -19.0530    3.6140  -32.8400 N.am  104  MET104     -0.1963
    119  CA       -19.1050    3.0180  -31.4940 C.3   104  MET104      0.1736
    120  C        -20.5040    2.5030  -31.1280 C.2   104  MET104      0.2616
    121  O        -21.4900    2.7730  -31.8120 O.2   104  MET104     -0.2715
    122  CB       -18.6480    4.0320  -30.4300 C.3   104  MET104      0.0427
    123  CG       -17.4490    4.8240  -30.8340 C.3   104  MET104      0.0599
    124  SD       -15.9830    3.8460  -30.6560 S.3   104  MET104     -0.1393
    125  CE       -15.7660    4.0050  -28.8710 C.3   104  MET104      0.0692
    126  N        -20.5740    1.8050  -29.9960 N.am  105  ASP105     -0.1957
    127  CA       -21.7590    1.0650  -29.5940 C.3   105  ASP105      0.1840
    128  C        -22.7200    1.8360  -28.7250 C.2   105  ASP105      0.2622
    129  O        -23.9580    1.6570  -28.8300 O.2   105  ASP105     -0.2715
    130  CB       -21.3300   -0.2430  -28.9150 C.3   105  ASP105      0.1450
    131  CG       -20.6680   -1.1860  -29.8880 C.2   105  ASP105      0.3671
    132  OD1      -21.2880   -1.4080  -30.9530 O.co2 105  ASP105     -0.2456
    133  OD2      -19.5110   -1.6300  -29.6500 O.co2 105  ASP105     -0.2456
    134  N        -22.1580    2.6910  -27.8620 N.am  106  ALA106     -0.1963
    135  CA       -22.9520    3.4180  -26.8870 C.3   106  ALA106      0.1728
    136  C        -22.2270    4.6630  -26.4360 C.2   106  ALA106      0.2616
    137  O        -20.9750    4.7390  -26.4550 O.2   106  ALA106     -0.2715
    138  CB       -23.2370    2.5210  -25.6790 C.3   106  ALA106      0.0334
    139  N        -23.0030    5.6350  -25.9990 N.am  107  ASN107     -0.1972
    140  CA       -22.4150    6.7610  -25.2940 C.3   107  ASN107      0.1688
    141  C        -22.3280    6.5050  -23.7990 C.2   107  ASN107      0.2292
    142  O        -22.6940    5.4330  -23.3070 O.2   107  ASN107     -0.2864
    143  CB       -23.1360    8.0750  -25.6380 C.3   107  ASN107      0.1181
    144  CG       -24.4360    8.2420  -24.9000 C.2   107  ASN107      0.2629
    145  OD1      -24.8280    7.3870  -24.0960 O.2   107  ASN107     -0.2716
    146  ND2      -25.0950    9.3650  -25.1330 N.am  107  ASN107     -0.0877
    147  N        -25.8890    6.0670  -21.5310 N.3   110  GLN110     -0.1245
    148  CA       -26.3460    4.6780  -21.5370 C.3   110  GLN110      0.1566
    149  C        -25.5030    3.7550  -20.6310 C.2   110  GLN110      0.2260
    150  O        -26.0430    2.8970  -19.9460 O.2   110  GLN110     -0.2867
    151  CB       -26.4030    4.1570  -22.9760 C.3   110  GLN110      0.0367
    152  CG       -27.1370    5.0870  -23.9290 C.3   110  GLN110      0.0905
    153  CD       -26.8340    4.8390  -25.4040 C.2   110  GLN110      0.2608
    154  OE1      -25.6650    4.7950  -25.8490 O.2   110  GLN110     -0.2717
    155  NE2      -27.8910    4.7110  -26.1780 N.am  110  GLN110     -0.0878
    156  N        -22.5180   12.6360  -22.5110 N.3   148  SER148     -0.1202
    157  CA       -23.2540   12.6140  -23.7770 C.3   148  SER148      0.2020
    158  C        -22.2990   12.7770  -24.9530 C.2   148  SER148      0.2618
    159  O        -22.6860   12.5210  -26.1050 O.2   148  SER148     -0.2717
    160  CB       -24.2590   13.7590  -23.8090 C.3   148  SER148      0.2103
    161  OG       -23.5370   14.9400  -24.0890 O.3   148  SER148     -0.2182
    162  N        -21.0750   13.2160  -24.6490 N.am  149  ASN149     -0.1974
    163  CA       -19.9870   13.3990  -25.6050 C.3   149  ASN149      0.1688
    164  C        -18.7790   12.4630  -25.4260 C.2   149  ASN149      0.2292
    165  O        -17.6840   12.7670  -25.8670 O.2   149  ASN149     -0.2864
    166  CB       -19.4860   14.8680  -25.6050 C.3   149  ASN149      0.1181
    167  CG       -20.5970   15.8530  -25.9230 C.2   149  ASN149      0.2629
    168  OD1      -21.3810   15.6250  -26.8420 O.2   149  ASN149     -0.2716
    169  ND2      -20.6970   16.9250  -25.1410 N.am  149  ASN149     -0.0877
    170  N        -17.7720    8.2470  -25.9290 N.3   151  VAL151     -0.1245
    171  CA       -18.2780    6.9930  -26.4910 C.3   151  VAL151      0.1561
    172  C        -17.4990    5.7560  -26.1130 C.2   151  VAL151      0.2260
    173  O        -16.2560    5.8170  -25.9020 O.2   151  VAL151     -0.2867
    174  CB       -18.4910    7.0480  -28.0430 C.3   151  VAL151      0.0252
    175  CG1      -19.9400    7.4620  -28.3810 C.3   151  VAL151      0.0019
    176  CG2      -17.4840    7.8920  -28.7010 C.3   151  VAL151      0.0019
    177  N        -15.3050   12.7370  -27.5150 N.3   161  LEU161     -0.1231
    178  CA       -15.6950   13.2560  -28.8400 C.3   161  LEU161      0.1693
    179  C        -15.3770   14.7200  -29.1320 C.2   161  LEU161      0.2592
    180  O        -15.2380   15.1030  -30.2980 O.2   161  LEU161     -0.2718
    181  CB       -17.2110   13.0820  -29.0820 C.3   161  LEU161      0.0284
    182  CG       -17.7260   11.6510  -29.0840 C.3   161  LEU161      0.0019
    183  CD1      -19.2010   11.6820  -29.4540 C.3   161  LEU161      0.0001
    184  CD2      -16.9250   10.8140  -30.0790 C.3   161  LEU161      0.0001
    185  N        -15.2810   15.5360  -28.0890 N.am  162  ASP162     -0.1974
    186  CA       -15.2020   16.9700  -28.2750 C.3   162  ASP162      0.1709
    187  C        -14.0390   17.5450  -27.5000 C.2   162  ASP162      0.2293
    188  O        -13.3490   16.8140  -26.7690 O.2   162  ASP162     -0.2864
    189  CB       -16.5050   17.6210  -27.8120 C.3   162  ASP162      0.1436
    190  CG       -16.5570   17.7470  -26.3220 C.2   162  ASP162      0.3671
    191  OD1      -16.3190   16.7170  -25.6130 O.co2 162  ASP162     -0.2456
    192  OD2      -16.7480   18.8900  -25.8590 O.co2 162  ASP162     -0.2456
@<TRIPOS>BOND
     1    85    86    1
     2     1     2    1
     3    86    87    1
     4    86    89    1
     5    46    45    2
     6    87    88    2
     7     2     5    1
     8     2     3    1
     9    45    44    1
    10    92    90    1
    11     5     6    1
    12    80    79    2
    13    43    44    1
    14    90    89    1
    15    90    91    1
    16    79    78    1
    17     6     7    1
    18     3     4    2
    19    41    40    2
    20    81    78    1
    21    81    82    1
    22    44    47    1
    23    93    94    1
    24    40    39    1
    25    83    82    1
    26    84    82    1
    27    78    77    1
    28    38    39    1
    29    96    95    2
    30     7     8    1
    31    94    95    1
    32    94    97    1
    33    39    42    1
    34    95   101   am
    35    33    34    2
    36    33    32    1
    37    47    48    1
    38     8     9    1
    39    32    31    1
    40    32    35    1
    41   101   102    1
    42    25    24    2
    43    48    49    1
    44   102   103    1
    45   102   105    1
    46    97    98    1
    47   117   115    1
    48   114   115    1
    49   114   111    1
    50   110   103   am
    51   110   111    1
    52    36    35    1
    53    64    63    2
    54    10    11    1
    55   103   104    2
    56    98    99    1
    57    35    37    1
    58   115   116    1
    59    24    23    1
    60    49    50    1
    61    63    62    1
    62   111   112    1
    63   105   106    1
    64   106   107    1
    65    16    14    1
    66    67    66    1
    67    67    68    1
    68    15    17    1
    69    15    14    1
    70    65    66    1
    71    65    62    1
    72    54    55    2
    73    54    53    1
    74    62    61    1
    75    14    11    1
    76    21    20    2
    77    23    26    1
    78    23    22    1
    79    11    12    1
    80    26    27    1
    81    50    51    1
    82    30    28   am
    83   107   108   ar
    84   107   109   ar
    85   112   113    2
    86   112   118   am
    87    28    29    2
    88    28    27    1
    89    99   100    1
    90    18    12   am
    91    18    19    1
    92    52    53    1
    93    20    19    1
    94    53    56    1
    95    76    74    1
    96    12    13    2
    97    74    73    1
    98    56    57    1
    99   118   119    1
   100    71    72    2
   101    71    70    1
   102   121   120    2
   103    57    58    1
   104    73    70    1
   105    73    75    1
   106   119   120    1
   107   119   122    1
   108    60    58   ar
   109    70    69    1
   110   120   126   am
   111    58    59   ar
   112   132   131   ar
   113   123   124    1
   114   123   122    1
   115   124   125    1
   116   180   179    2
   117   184   182    1
   118   126   127    1
   119   131   133   ar
   120   131   130    1
   121   127   130    1
   122   127   128    1
   123   183   182    1
   124   179   178    1
   125   179   185   am
   126   182   181    1
   127   181   178    1
   128   178   177    1
   129   129   128    2
   130   128   134   am
   131   176   174    1
   132   175   174    1
   133   186   185    1
   134   186   189    1
   135   186   187    1
   136   174   171    1
   137   134   135    1
   138   189   190    1
   139   187   188    2
   140   135   136    1
   141   135   138    1
   142   168   167    2
   143   171   172    1
   144   171   170    1
   145   137   136    2
   146   136   139   am
   147   190   192   ar
   148   190   191   ar
   149   155   153   am
   150   172   173    2
   151   159   158    2
   152   139   140    1
   153   167   166    1
   154   167   169   am
   155   165   164    2
   156   154   153    2
   157   143   140    1
   158   143   144    1
   159   166   163    1
   160   163   164    1
   161   163   162    1
   162   153   152    1
   163   140   141    1
   164   146   144   am
   165   158   162   am
   166   158   157    1
   167   144   145    2
   168   161   160    1
   169   152   151    1
   170   160   157    1
   171   141   142    2
   172   157   156    1
   173   151   148    1
   174   148   147    1
   175   148   149    1
   176   149   150    2
