@<TRIPOS>MOLECULE
tmp/3ttjA00.pdb
 156 143 0 0 0
SMALL
GASTEIGER

@<TRIPOS>ATOM
      1  N         28.2760    7.8060   35.2400 N.3    23  ILE23      -0.1231
      2  CA        27.9870    7.2940   33.8960 C.3    23  ILE23       0.1692
      3  C         27.8940    8.4080   32.8570 C.2    23  ILE23       0.2593
      4  O         28.0450    8.1470   31.6550 O.2    23  ILE23      -0.2718
      5  CB        26.7260    6.4020   33.8380 C.3    23  ILE23       0.0266
      6  CG1       25.4690    7.1390   34.3290 C.3    23  ILE23       0.0019
      7  CG2       26.9460    5.0970   34.5890 C.3    23  ILE23       0.0020
      8  CD1       24.2010    6.3030   34.2990 C.3    23  ILE23       0.0001
      9  N         27.6270    9.6390   33.3130 N.am   24  GLY24      -0.1942
     10  CA        27.5310   10.7640   32.4100 C.3    24  GLY24       0.2014
     11  C         27.9760   12.0950   32.9750 C.2    24  GLY24       0.2639
     12  O         28.0100   12.2880   34.1910 O.2    24  GLY24      -0.2714
     13  N         28.2530   13.0400   32.0770 N.am   25  SER25      -0.1949
     14  CA        28.7890   14.3370   32.4660 C.3    25  SER25       0.1924
     15  C         28.6250   15.3740   31.3690 C.2    25  SER25       0.2314
     16  O         29.4310   15.4280   30.4510 O.2    25  SER25      -0.2863
     17  CB        30.2750   14.1990   32.7980 C.3    25  SER25       0.2116
     18  OG        30.7470   15.3230   33.5160 O.3    25  SER25      -0.2180
     19  N         26.0290   12.5970   36.1220 N.3    31  VAL31      -0.1245
     20  CA        25.0260   11.5690   36.3530 C.3    31  VAL31       0.1561
     21  C         25.7290   10.2930   36.8650 C.2    31  VAL31       0.2260
     22  O         26.6900    9.8510   36.2610 O.2    31  VAL31      -0.2867
     23  CB        24.2050   11.2250   35.0790 C.3    31  VAL31       0.0252
     24  CG1       23.0920   10.2660   35.4430 C.3    31  VAL31       0.0019
     25  CG2       23.5810   12.4600   34.4330 C.3    31  VAL31       0.0019
     26  N         19.3320    6.1910   37.7770 N.3    44  ALA44      -0.1245
     27  CA        20.3240    7.1860   37.3910 C.3    44  ALA44       0.1562
     28  C         20.0070    8.4330   38.1920 C.2    44  ALA44       0.2260
     29  O         18.8210    8.8330   38.3270 O.2    44  ALA44      -0.2867
     30  CB        20.2280    7.4520   35.8790 C.3    44  ALA44       0.0290
     31  N         21.0940   12.4000   38.8060 N.3    46  LYS46      -0.1245
     32  CA        21.8340   13.5390   38.1980 C.3    46  LYS46       0.1561
     33  C         21.9790   14.6450   39.2470 C.2    46  LYS46       0.2260
     34  O         21.0060   15.0630   39.8430 O.2    46  LYS46      -0.2867
     35  CB        21.0730   14.0790   36.9730 C.3    46  LYS46       0.0271
     36  CG        21.7920   15.2000   36.1830 C.3    46  LYS46       0.0035
     37  CD        20.8690   15.6170   35.0430 C.3    46  LYS46       0.0206
     38  CE        21.6010   16.1910   33.8510 C.3    46  LYS46       0.1093
     39  NZ        20.5450   16.4740   32.8240 N.3    46  LYS46      -0.1314
     40  N         12.5140   22.4650   33.3870 N.3    64  GLU64      -0.1245
     41  CA        12.3920   21.0330   33.2180 C.3    64  GLU64       0.1567
     42  C         11.7850   20.3370   34.4380 C.2    64  GLU64       0.2260
     43  O         11.1250   19.2940   34.3040 O.2    64  GLU64      -0.2867
     44  CB        13.6810   20.3950   32.7340 C.3    64  GLU64       0.0388
     45  CG        14.1020   20.8980   31.3470 C.3    64  GLU64       0.1160
     46  CD        15.2170   20.0730   30.7270 C.2    64  GLU64       0.3649
     47  OE1       15.9500   19.4080   31.4850 O.co2  64  GLU64      -0.2457
     48  OE2       15.3710   20.0970   29.4920 O.co2  64  GLU64      -0.2457
     49  N         11.1550   11.0810   29.7690 N.3    77  ILE77      -0.1245
     50  CA        11.5980   11.0160   31.1550 C.3    77  ILE77       0.1561
     51  C         10.4440   11.1850   32.1870 C.2    77  ILE77       0.2260
     52  O          9.5570   12.0480   32.0540 O.2    77  ILE77      -0.2867
     53  CB        12.7550   12.0360   31.3780 C.3    77  ILE77       0.0252
     54  CG1       13.4580   11.7990   32.7250 C.3    77  ILE77       0.0019
     55  CG2       12.3040   13.4740   31.1000 C.3    77  ILE77       0.0019
     56  CD1       14.2180   13.0070   33.2170 C.3    77  ILE77       0.0001
     57  N         10.3510   11.2490   36.5370 N.3    79  LEU79      -0.1245
     58  CA        11.2470   11.3040   37.6770 C.3    79  LEU79       0.1561
     59  C         10.7850   10.2970   38.7440 C.2    79  LEU79       0.2260
     60  O          9.5680   10.0890   38.9070 O.2    79  LEU79      -0.2867
     61  CB        11.3010   12.7280   38.1880 C.3    79  LEU79       0.0270
     62  CG        12.4960   13.6050   37.7810 C.3    79  LEU79       0.0019
     63  CD1       13.1600   13.2020   36.4820 C.3    79  LEU79       0.0001
     64  CD2       12.1140   15.0630   37.7590 C.3    79  LEU79       0.0001
     65  N         18.2610   14.6540   40.6880 N.3    97  LEU97      -0.1245
     66  CA        17.0680   14.0910   39.9910 C.3    97  LEU97       0.1561
     67  C         17.3460   12.6090   39.8010 C.2    97  LEU97       0.2260
     68  O         18.4650   12.2340   39.3910 O.2    97  LEU97      -0.2867
     69  CB        16.8260   14.7570   38.6000 C.3    97  LEU97       0.0270
     70  CG        16.8380   16.3100   38.5350 C.3    97  LEU97       0.0019
     71  CD1       16.6150   16.8310   37.1260 C.3    97  LEU97       0.0001
     72  CD2       15.7720   16.8890   39.4290 C.3    97  LEU97       0.0001
     73  N         16.0020    8.9430   38.1700 N.3    99  MET99      -0.1230
     74  CA        15.1000    8.2540   37.2660 C.3    99  MET99       0.1702
     75  C         15.5580    6.8290   37.0680 C.2    99  MET99       0.2592
     76  O         16.6600    6.4370   37.5230 O.2    99  MET99      -0.2718
     77  CB        15.0580    8.9860   35.9250 C.3    99  MET99       0.0401
     78  CG        16.4050    8.8890   35.2090 C.3    99  MET99       0.0596
     79  SD        16.3980    9.6350   33.5600 S.3    99  MET99      -0.1393
     80  CE        15.3790    8.4290   32.7020 C.3    99  MET99       0.0692
     81  N         14.6960    6.0370   36.4270 N.am  100  GLU100     -0.1966
     82  CA        15.0340    4.6860   35.9970 C.3   100  GLU100      0.1733
     83  C         16.4070    4.6290   35.2810 C.2   100  GLU100      0.2616
     84  O         16.6850    5.4900   34.4220 O.2   100  GLU100     -0.2715
     85  CB        13.9270    4.2310   35.0480 C.3   100  GLU100      0.0429
     86  CG        14.2090    2.9040   34.3770 C.3   100  GLU100      0.1163
     87  CD        13.0190    2.3760   33.6100 C.2   100  GLU100      0.3649
     88  OE1       11.9710    3.0710   33.5830 O.co2 100  GLU100     -0.2457
     89  OE2       13.1390    1.2710   33.0380 O.co2 100  GLU100     -0.2457
     90  N         17.2380    3.6240   35.5940 N.am  101  LEU101     -0.1963
     91  CA        18.5280    3.4400   34.8830 C.3   101  LEU101      0.1728
     92  C         18.2690    2.7630   33.5250 C.2   101  LEU101      0.2616
     93  O         17.6100    1.7490   33.4540 O.2   101  LEU101     -0.2715
     94  CB        19.5460    2.5980   35.6980 C.3   101  LEU101      0.0311
     95  CG        20.9500    2.3420   35.1100 C.3   101  LEU101      0.0022
     96  CD1       21.7810    3.6140   34.9710 C.3   101  LEU101      0.0001
     97  CD2       21.7150    1.2870   35.8820 C.3   101  LEU101      0.0001
     98  N         18.7610    3.3450   32.4450 N.am  102  MET102     -0.1963
     99  CA        18.6130    2.7020   31.1500 C.3   102  MET102      0.1736
    100  C         19.9920    2.1220   30.8210 C.2   102  MET102      0.2616
    101  O         20.8860    2.2150   31.6420 O.2   102  MET102     -0.2715
    102  CB        18.1260    3.7300   30.1400 C.3   102  MET102      0.0427
    103  CG        16.9670    4.5340   30.6580 C.3   102  MET102      0.0599
    104  SD        15.4800    3.5560   30.4380 S.3   102  MET102     -0.1393
    105  CE        15.2890    3.7420   28.6370 C.3   102  MET102      0.0692
    106  N         20.1870    1.5390   29.6480 N.am  103  ASP103     -0.1957
    107  CA        21.4270    0.8020   29.4120 C.3   103  ASP103      0.1840
    108  C         22.4590    1.5790   28.6330 C.2   103  ASP103      0.2622
    109  O         23.6390    1.2530   28.6560 O.2   103  ASP103     -0.2715
    110  CB        21.1110   -0.5260   28.7090 C.3   103  ASP103      0.1450
    111  CG        20.2720   -1.4460   29.5730 C.2   103  ASP103      0.3671
    112  OD1       20.5190   -1.4680   30.7970 O.co2 103  ASP103     -0.2456
    113  OD2       19.3490   -2.1110   29.0570 O.co2 103  ASP103     -0.2456
    114  N         22.0130    2.6410   27.9650 N.am  104  ALA104     -0.1963
    115  CA        22.8320    3.3070   26.9740 C.3   104  ALA104      0.1728
    116  C         22.1330    4.5740   26.5060 C.2   104  ALA104      0.2616
    117  O         20.8600    4.6470   26.4900 O.2   104  ALA104     -0.2715
    118  CB        23.0370    2.3600   25.7750 C.3   104  ALA104      0.0334
    119  N         22.9300    5.5330   26.0440 N.am  105  ASN105     -0.1972
    120  CA        22.3720    6.6600   25.2860 C.3   105  ASN105      0.1688
    121  C         22.3430    6.4320   23.7630 C.2   105  ASN105      0.2292
    122  O         22.8920    5.4320   23.2840 O.2   105  ASN105     -0.2864
    123  CB        22.9880    7.9820   25.7020 C.3   105  ASN105      0.1181
    124  CG        24.3900    8.1400   25.1960 C.2   105  ASN105      0.2629
    125  OD1       24.8730    7.3270   24.4180 O.2   105  ASN105     -0.2716
    126  ND2       25.0290    9.2190   25.5900 N.am  105  ASN105     -0.0877
    127  N         25.5370    5.9060   21.6200 N.3   108  GLN108     -0.1245
    128  CA        26.1300    4.5860   21.6410 C.3   108  GLN108      0.1566
    129  C         25.4630    3.6470   20.6490 C.2   108  GLN108      0.2260
    130  O         26.1390    2.8800   19.9780 O.2   108  GLN108     -0.2867
    131  CB        26.1270    4.0180   23.0690 C.3   108  GLN108      0.0367
    132  CG        27.0220    4.8100   24.0250 C.3   108  GLN108      0.0905
    133  CD        26.7120    4.5200   25.4880 C.2   108  GLN108      0.2608
    134  OE1       25.5630    4.2780   25.8720 O.2   108  GLN108     -0.2717
    135  NE2       27.7270    4.5650   26.3120 N.am  108  GLN108     -0.0878
    136  N         22.5260   12.5900   22.4700 N.3   146  SER146     -0.1217
    137  CA        23.1430   12.4680   23.7610 C.3   146  SER146      0.1889
    138  C         22.0520   12.6540   24.8780 C.2   146  SER146      0.2288
    139  O         22.2690   12.2300   25.9940 O.2   146  SER146     -0.2866
    140  CB        24.2630   13.4820   23.8910 C.3   146  SER146      0.2089
    141  OG        23.6850   14.7760   23.8610 O.3   146  SER146     -0.2183
    142  N         17.8590    8.0400   25.7030 N.3   149  VAL149     -0.1245
    143  CA        18.4190    6.8040   26.2970 C.3   149  VAL149      0.1561
    144  C         17.6030    5.6080   25.9100 C.2   149  VAL149      0.2260
    145  O         16.3870    5.7370   25.6360 O.2   149  VAL149     -0.2867
    146  CB        18.6080    6.8240   27.8560 C.3   149  VAL149      0.0252
    147  CG1       19.8210    7.6400   28.2590 C.3   149  VAL149      0.0019
    148  CG2       17.3500    7.2910   28.5740 C.3   149  VAL149      0.0019
    149  N         15.0750   12.5840   27.3040 N.3   159  LEU159     -0.1245
    150  CA        15.3970   13.0890   28.6530 C.3   159  LEU159      0.1561
    151  C         15.2210   14.5930   28.8910 C.2   159  LEU159      0.2260
    152  O         15.2490   15.0050   30.0170 O.2   159  LEU159     -0.2867
    153  CB        16.8520   12.7430   29.0570 C.3   159  LEU159      0.0270
    154  CG        17.2970   11.2880   29.0330 C.3   159  LEU159      0.0019
    155  CD1       18.7930   11.2180   29.3800 C.3   159  LEU159      0.0001
    156  CD2       16.4440   10.4590   29.9720 C.3   159  LEU159      0.0001
@<TRIPOS>BOND
     1   130   129    2
     2   129   128    1
     3   127   128    1
     4   128   131    1
     5   136   137    1
     6   131   132    1
     7   122   121    2
     8   137   140    1
     9   137   138    1
    10   121   120    1
    11   141   140    1
    12   132   133    1
    13   125   124    2
    14   138   139    2
    15   124   126   am
    16   124   123    1
    17   120   123    1
    18   120   119    1
    19   133   134    2
    20   133   135   am
    21   145   144    2
    22   142   143    1
    23   118   115    1
    24   144   143    1
    25   119   116   am
    26   143   146    1
    27   117   116    2
    28   116   115    1
    29   115   114    1
    30   149   150    1
    31   146   147    1
    32   146   148    1
    33   114   108   am
    34   108   109    2
    35   108   107    1
    36   105   104    1
    37   150   151    1
    38   150   153    1
    39   110   107    1
    40   110   111    1
    41   151   152    2
    42   154   153    1
    43   154   155    1
    44   154   156    1
    45   113   111   ar
    46   107   106    1
    47    48    46   ar
    48   111   112   ar
    49   106   100   am
    50    49    50    1
    51   102   103    1
    52   102    99    1
    53   104   103    1
    54    16    15    2
    55    46    45    1
    56    46    47   ar
    57   100    99    1
    58   100   101    2
    59    55    53    1
    60    99    98    1
    61    50    53    1
    62    50    51    1
    63    45    44    1
    64    15    14    1
    65    53    54    1
    66     4     3    2
    67    52    51    2
    68    13    14    1
    69    13    11   am
    70    10    11    1
    71    10     9    1
    72    98    92   am
    73    14    17    1
    74    80    79    1
    75    54    56    1
    76    44    41    1
    77    17    18    1
    78    39    38    1
    79     3     9   am
    80     3     2    1
    81    11    12    2
    82    89    87   ar
    83    41    40    1
    84    41    42    1
    85    93    92    2
    86    92    91    1
    87    79    78    1
    88    88    87   ar
    89    87    86    1
    90     5     2    1
    91     5     6    1
    92     5     7    1
    93    38    37    1
    94     2     1    1
    95     8     6    1
    96    43    42    2
    97    86    85    1
    98    84    83    2
    99    25    23    1
   100    91    90    1
   101    91    94    1
   102    96    95    1
   103    37    36    1
   104    85    82    1
   105    23    24    1
   106    23    20    1
   107    95    94    1
   108    95    97    1
   109    78    77    1
   110    83    90   am
   111    83    82    1
   112    30    27    1
   113    77    74    1
   114    82    81    1
   115    19    20    1
   116    36    35    1
   117    22    21    2
   118    20    21    1
   119    81    75   am
   120    63    62    1
   121    57    58    1
   122    35    32    1
   123    75    74    1
   124    75    76    2
   125    71    70    1
   126    74    73    1
   127    27    26    1
   128    27    28    1
   129    58    61    1
   130    58    59    1
   131    64    62    1
   132    62    61    1
   133    28    29    2
   134    32    31    1
   135    32    33    1
   136    70    69    1
   137    70    72    1
   138    69    66    1
   139    59    60    2
   140    33    34    2
   141    68    67    2
   142    67    66    1
   143    66    65    1
