@<TRIPOS>MOLECULE
tmp/3ttnA00.pdb
 148 143 0 0 0
SMALL
GASTEIGER

@<TRIPOS>ATOM
      1  N         29.0470   30.3100   36.9740 N.3     7  TRP7       -0.1227
      2  CA        28.4920   29.1220   36.3390 C.3     7  TRP7        0.1737
      3  C         29.5500   28.4100   35.4910 C.2     7  TRP7        0.2596
      4  O         30.4970   29.0290   35.0070 O.2     7  TRP7       -0.2718
      5  CB        27.2970   29.4870   35.4470 C.3     7  TRP7        0.0564
      6  CG        26.1210   30.1070   36.1630 C.ar    7  TRP7        0.0003
      7  CD1       26.0200   31.3940   36.6290 C.ar    7  TRP7        0.0946
      8  CD2       24.8710   29.4750   36.4530 C.ar    7  TRP7        0.0152
      9  NE1       24.7800   31.5900   37.2070 N.ar    7  TRP7       -0.2442
     10  CE2       24.0620   30.4230   37.1140 C.ar    7  TRP7        0.0810
     11  CE3       24.3640   28.1870   36.2400 C.ar    7  TRP7        0.0012
     12  CZ2       22.7810   30.1250   37.5550 C.ar    7  TRP7        0.0191
     13  CZ3       23.0840   27.8920   36.6750 C.ar    7  TRP7        0.0001
     14  CH2       22.3050   28.8550   37.3270 C.ar    7  TRP7        0.0015
     15  N         29.3710   27.1040   35.3110 N.am    8  THR8       -0.1939
     16  CA        30.1700   26.3370   34.3650 C.3     8  THR8        0.2028
     17  C         29.9670   26.8670   32.9410 C.2     8  THR8        0.2642
     18  O         28.8700   27.3270   32.5910 O.2     8  THR8       -0.2714
     19  CB        29.7010   24.8690   34.3530 C.3     8  THR8        0.1808
     20  OG1       28.2850   24.8470   34.1540 O.3     8  THR8       -0.2208
     21  CG2       30.0180   24.1580   35.6780 C.3     8  THR8        0.0379
     22  N         31.0130   26.7590   32.1220 N.am    9  ASP9       -0.1957
     23  CA        30.9480   27.0910   30.6950 C.3     9  ASP9        0.1840
     24  C         30.3560   28.4800   30.4560 C.2     9  ASP9        0.2622
     25  O         29.4210   28.6300   29.6770 O.2     9  ASP9       -0.2715
     26  CB        30.1040   26.0690   29.9480 C.3     9  ASP9        0.1450
     27  CG        30.6540   24.6440   30.0680 C.2     9  ASP9        0.3671
     28  OD1       31.7980   24.4060   29.6440 O.co2   9  ASP9       -0.2456
     29  OD2       29.9330   23.7740   30.5860 O.co2   9  ASP9       -0.2456
     30  N         30.9020   29.4950   31.1160 N.am   10  TYR10      -0.1974
     31  CA        30.2640   30.8030   31.1060 C.3    10  TYR10       0.1639
     32  C         31.2850   31.9020   30.9970 C.2    10  TYR10       0.2290
     33  O         31.0650   33.0080   31.5000 O.2    10  TYR10      -0.2864
     34  CB        29.4840   30.9980   32.3980 C.3    10  TYR10       0.0560
     35  CG        28.1570   31.7280   32.2650 C.ar   10  TYR10      -0.0198
     36  CD1       27.3280   31.5410   31.1570 C.ar   10  TYR10      -0.0009
     37  CD2       27.6980   32.5380   33.2950 C.ar   10  TYR10      -0.0009
     38  CE1       26.0810   32.1750   31.0710 C.ar   10  TYR10       0.0417
     39  CE2       26.4730   33.1660   33.2200 C.ar   10  TYR10       0.0417
     40  CZ        25.6740   32.9960   32.1040 C.ar   10  TYR10       0.1957
     41  OH        24.4560   33.6220   32.0730 O.3    10  TYR10      -0.2866
     42  N         21.8750   27.4600   40.4770 N.3    35  ASN35      -0.1240
     43  CA        21.6020   28.4790   41.5000 C.3    35  ASN35       0.1653
     44  C         21.5310   27.8930   42.9190 C.2    35  ASN35       0.2266
     45  O         21.9520   28.5210   43.8870 O.2    35  ASN35      -0.2867
     46  CB        20.2830   29.1870   41.1900 C.3    35  ASN35       0.1155
     47  CG        20.4390   30.3160   40.1830 C.2    35  ASN35       0.2627
     48  OD1       19.8820   30.2600   39.0780 O.2    35  ASN35      -0.2716
     49  ND2       21.1780   31.3520   40.5610 N.am   35  ASN35      -0.0877
     50  N         21.3160   34.1590   39.3600 N.3    55  SER55      -0.1217
     51  CA        20.3070   34.6150   38.4140 C.3    55  SER55       0.1889
     52  C         19.4100   35.6590   39.0850 C.2    55  SER55       0.2288
     53  O         19.3650   35.7680   40.3110 O.2    55  SER55      -0.2866
     54  CB        19.4410   33.4510   37.9180 C.3    55  SER55       0.2089
     55  OG        20.2260   32.4100   37.3660 O.3    55  SER55      -0.2183
     56  N         16.2410   36.0010   39.8980 N.3    57  ASN57      -0.1240
     57  CA        15.3100   35.6430   40.9580 C.3    57  ASN57       0.1653
     58  C         16.0270   35.2890   42.2660 C.2    57  ASN57       0.2266
     59  O         15.5860   35.6910   43.3300 O.2    57  ASN57      -0.2867
     60  CB        14.3360   34.5270   40.5330 C.3    57  ASN57       0.1155
     61  CG        15.0450   33.3110   39.8980 C.2    57  ASN57       0.2627
     62  OD1       16.0960   33.4470   39.2760 O.2    57  ASN57      -0.2716
     63  ND2       14.4450   32.1320   40.0360 N.am   57  ASN57      -0.0877
     64  N         13.6420   24.8700   40.5710 N.3   151  ASP151     -0.1225
     65  CA        13.4240   26.2090   40.0400 C.3   151  ASP151      0.1805
     66  C         13.3090   26.2020   38.5200 C.2   151  ASP151      0.2597
     67  O         12.6370   27.0500   37.9360 O.2   151  ASP151     -0.2718
     68  CB        14.5500   27.1550   40.4810 C.3   151  ASP151      0.1424
     69  CG        14.4180   28.5470   39.8730 C.2   151  ASP151      0.3668
     70  OD1       13.4360   29.2430   40.1920 O.co2 151  ASP151     -0.2456
     71  OD2       15.2950   28.9530   39.0850 O.co2 151  ASP151     -0.2456
     72  N         13.9540   25.2360   37.8770 N.am  152  GLU152     -0.1979
     73  CA        13.9050   25.1570   36.4280 C.3   152  GLU152      0.1602
     74  C         12.7210   24.3270   35.9500 C.2   152  GLU152      0.2287
     75  O         11.9470   24.7530   35.0880 O.2   152  GLU152     -0.2864
     76  CB        15.1960   24.5350   35.8900 C.3   152  GLU152      0.0415
     77  CG        16.4560   25.3290   36.1940 C.3   152  GLU152      0.1163
     78  CD        16.6120   26.5380   35.3100 C.2   152  GLU152      0.3649
     79  OE1       16.0330   26.5540   34.2000 O.co2 152  GLU152     -0.2457
     80  OE2       17.3250   27.4760   35.7170 O.co2 152  GLU152     -0.2457
     81  N         20.0140   25.2290   28.6900 N.3   209  TYR209     -0.1241
     82  CA        20.1490   26.6710   28.5250 C.3   209  TYR209      0.1605
     83  C         20.6900   26.9340   27.1150 C.2   209  TYR209      0.2264
     84  O         21.5410   26.1910   26.6150 O.2   209  TYR209     -0.2867
     85  CB        21.1060   27.2380   29.5580 C.3   209  TYR209      0.0534
     86  CG        20.7120   26.9770   31.0030 C.ar  209  TYR209     -0.0201
     87  CD1       19.4640   27.3510   31.4870 C.ar  209  TYR209     -0.0009
     88  CD2       21.6040   26.3790   31.8860 C.ar  209  TYR209     -0.0009
     89  CE1       19.1010   27.1050   32.8260 C.ar  209  TYR209      0.0417
     90  CE2       21.2610   26.1500   33.2240 C.ar  209  TYR209      0.0417
     91  CZ        20.0090   26.5100   33.6760 C.ar  209  TYR209      0.1957
     92  OH        19.6820   26.2970   34.9940 O.3   209  TYR209     -0.2866
     93  N         24.4880   27.0040   26.3620 N.3   212  ASP212     -0.1239
     94  CA        25.0220   25.6710   26.6440 C.3   212  ASP212      0.1674
     95  C         24.7760   24.7460   25.4570 C.2   212  ASP212      0.2266
     96  O         25.6640   24.0120   25.0510 O.2   212  ASP212     -0.2867
     97  CB        24.3570   25.0670   27.8790 C.3   212  ASP212      0.1410
     98  CG        24.8070   25.7170   29.1700 C.2   212  ASP212      0.3668
     99  OD1       25.5780   26.6970   29.1480 O.co2 212  ASP212     -0.2456
    100  OD2       24.3850   25.2300   30.2320 O.co2 212  ASP212     -0.2456
    101  N         11.5870   30.1640   29.8940 N.3   239  ASN239     -0.1240
    102  CA        12.1520   31.0990   30.8650 C.3   239  ASN239      0.1653
    103  C         13.1140   32.0640   30.1910 C.2   239  ASN239      0.2266
    104  O         13.9380   31.6580   29.3570 O.2   239  ASN239     -0.2867
    105  CB        12.8820   30.3320   31.9800 C.3   239  ASN239      0.1155
    106  CG        13.3220   31.2240   33.1090 C.2   239  ASN239      0.2627
    107  OD1       12.5680   32.1040   33.5630 O.2   239  ASN239     -0.2716
    108  ND2       14.5400   31.0120   33.5840 N.am  239  ASN239     -0.0877
    109  N         15.8990   34.7430   31.5480 N.3   241  TRP241     -0.1241
    110  CA        16.6090   34.9620   32.7990 C.3   241  TRP241      0.1605
    111  C         17.8500   35.8220   32.5450 C.2   241  TRP241      0.2264
    112  O         18.3260   35.9350   31.4040 O.2   241  TRP241     -0.2867
    113  CB        16.9970   33.6210   33.4440 C.3   241  TRP241      0.0550
    114  CG        17.6880   32.7370   32.4440 C.ar  241  TRP241      0.0003
    115  CD1       17.1250   31.7290   31.7130 C.ar  241  TRP241      0.0946
    116  CD2       19.0600   32.8210   32.0250 C.ar  241  TRP241      0.0152
    117  NE1       18.0690   31.1710   30.8730 N.ar  241  TRP241     -0.2442
    118  CE2       19.2610   31.8230   31.0460 C.ar  241  TRP241      0.0810
    119  CE3       20.1350   33.6450   32.3800 C.ar  241  TRP241      0.0012
    120  CZ2       20.4870   31.6330   30.4160 C.ar  241  TRP241      0.0191
    121  CZ3       21.3490   33.4550   31.7570 C.ar  241  TRP241      0.0001
    122  CH2       21.5220   32.4550   30.7890 C.ar  241  TRP241      0.0015
    123  N         21.7500   36.7390   34.3670 N.3   243  ASP243     -0.1239
    124  CA        22.7240   36.4880   35.4170 C.3   243  ASP243      0.1674
    125  C         23.5130   37.7550   35.7410 C.2   243  ASP243      0.2266
    126  O         23.8470   38.5230   34.8490 O.2   243  ASP243     -0.2867
    127  CB        23.6340   35.3260   35.0380 C.3   243  ASP243      0.1410
    128  CG        22.8880   33.9880   35.0490 C.2   243  ASP243      0.3668
    129  OD1       21.9160   33.8560   35.8110 O.co2 243  ASP243     -0.2456
    130  OD2       23.2550   33.0820   34.2840 O.co2 243  ASP243     -0.2456
    131  N         25.8200   33.3610   24.5840 N.3   278  TYR278     -0.1241
    132  CA        24.8140   34.0870   25.3360 C.3   278  TYR278      0.1605
    133  C         24.8840   35.5880   25.0470 C.2   278  TYR278      0.2264
    134  O         25.9540   36.1620   24.9080 O.2   278  TYR278     -0.2867
    135  CB        25.0340   33.8660   26.8270 C.3   278  TYR278      0.0534
    136  CG        24.7580   32.4670   27.3300 C.ar  278  TYR278     -0.0201
    137  CD1       23.4610   32.0400   27.5380 C.ar  278  TYR278     -0.0009
    138  CD2       25.8080   31.5800   27.6300 C.ar  278  TYR278     -0.0009
    139  CE1       23.1940   30.7720   28.0680 C.ar  278  TYR278      0.0417
    140  CE2       25.5550   30.3000   28.1530 C.ar  278  TYR278      0.0417
    141  CZ        24.2400   29.9090   28.3510 C.ar  278  TYR278      0.1957
    142  OH        23.9430   28.6660   28.8490 O.3   278  TYR278     -0.2866
    143  N         11.4160   34.8030   35.8890 N.3   311  SER311     -0.1217
    144  CA        11.1870   34.1820   37.2020 C.3   311  SER311      0.1889
    145  C         11.0300   35.2540   38.2630 C.2   311  SER311      0.2288
    146  O         11.8410   36.1570   38.3600 O.2   311  SER311     -0.2866
    147  CB        12.3400   33.2680   37.5950 C.3   311  SER311      0.2089
    148  OG        12.6460   32.3920   36.5350 O.3   311  SER311     -0.2183
@<TRIPOS>BOND
     1   131   132    1
     2   134   133    2
     3   133   132    1
     4    96    95    2
     5   132   135    1
     6    95    94    1
     7    93    94    1
     8    84    83    2
     9    94    97    1
    10   135   136    1
    11    83    82    1
    12   136   137   ar
    13   136   138   ar
    14   137   139   ar
    15   138   140   ar
    16    97    98    1
    17   139   141   ar
    18   140   141   ar
    19   141   142    1
    20    82    81    1
    21    82    85    1
    22    99    98   ar
    23    98   100   ar
    24   104   103    2
    25    85    86    1
    26    28    27   ar
    27    25    24    2
    28   101   102    1
    29    26    27    1
    30    26    23    1
    31    27    29   ar
    32   103   102    1
    33   120   122   ar
    34   120   118   ar
    35    24    23    1
    36    24    30   am
    37    23    22    1
    38   122   121   ar
    39   102   105    1
    40   117   118   ar
    41   117   115   ar
    42    32    31    1
    43    32    33    2
    44    86    87   ar
    45    86    88   ar
    46   118   116   ar
    47    38    36   ar
    48    38    40   ar
    49    31    30    1
    50    31    34    1
    51    36    35   ar
    52   112   111    2
    53    87    89   ar
    54   109   110    1
    55   115   114   ar
    56   121   119   ar
    57    88    90   ar
    58   105   106    1
    59   116   119   ar
    60   116   114   ar
    61    41    40    1
    62    40    39   ar
    63    22    17   am
    64    35    34    1
    65    35    37   ar
    66   114   113    1
    67   111   110    1
    68    18    17    2
    69   110   113    1
    70    89    91   ar
    71    17    16    1
    72   106   107    2
    73   106   108   am
    74    39    37   ar
    75    90    91   ar
    76    91    92    1
    77    20    19    1
    78    79    78   ar
    79   130   128   ar
    80    19    16    1
    81    19    21    1
    82    16    15    1
    83   123   124    1
    84   126   125    2
    85     4     3    2
    86   127   128    1
    87   127   124    1
    88   128   129   ar
    89    75    74    2
    90    78    80   ar
    91    78    77    1
    92    15     3   am
    93   124   125    1
    94     5     6    1
    95     5     2    1
    96     3     2    1
    97   143   144    1
    98    76    77    1
    99    76    73    1
   100    74    73    1
   101     6     8   ar
   102     6     7   ar
   103    11     8   ar
   104    11    13   ar
   105     2     1    1
   106    73    72    1
   107     8    10   ar
   108   148   147    1
   109     7     9   ar
   110    13    14   ar
   111    10     9   ar
   112    10    12   ar
   113   144   147    1
   114   144   145    1
   115    14    12   ar
   116    55    54    1
   117    72    66   am
   118    54    51    1
   119    67    66    2
   120   145   146    2
   121    51    52    1
   122    51    50    1
   123    66    65    1
   124    48    47    2
   125    71    69   ar
   126    52    53    2
   127    62    61    2
   128    69    70   ar
   129    69    68    1
   130    61    63   am
   131    61    60    1
   132    56    57    1
   133    65    68    1
   134    65    64    1
   135    47    49   am
   136    47    46    1
   137    42    43    1
   138    60    57    1
   139    57    58    1
   140    46    43    1
   141    43    44    1
   142    58    59    2
   143    44    45    2
