@<TRIPOS>MOLECULE
tmp/3ttrA03.pdb
 78 77 0 0 0
SMALL
GASTEIGER

@<TRIPOS>ATOM
      1  N         23.5460   18.9180    9.2050 N.3    87  ARG87      -0.1231
      2  CA        22.2170   18.6970    8.6510 C.3    87  ARG87       0.1679
      3  C         21.1670   18.1200    9.5960 C.2    87  ARG87       0.2434
      4  O         21.4420   17.2020   10.3660 O.2    87  ARG87      -0.2733
      5  CB        22.3420   17.7770    7.4370 C.3    87  ARG87       0.0321
      6  CG        21.0270   17.3890    6.7770 C.3    87  ARG87       0.0489
      7  CD        21.2190   16.1220    5.9700 C.3    87  ARG87       0.2205
      8  NE        22.4550   16.1900    5.1990 N.pl3  87  ARG87      -0.0865
      9  CZ        23.1710   15.1330    4.8330 C.cat  87  ARG87       0.5346
     10  NH1       22.7740   13.9130    5.1680 N.pl3  87  ARG87       0.1354
     11  NH2       24.2860   15.3030    4.1370 N.pl3  87  ARG87       0.1354
     12  N         19.9410   18.6650    9.5540 N.am   88  PRO88      -0.2718
     13  CA        18.8740   18.1530   10.4190 C.3    88  PRO88       0.1535
     14  C         18.5610   16.6860   10.0650 C.2    88  PRO88       0.2599
     15  O         18.8500   16.2300    8.9540 O.2    88  PRO88      -0.2715
     16  CB        17.7030   19.1120   10.1400 C.3    88  PRO88       0.0310
     17  CG        18.0680   19.7670    8.8070 C.3    88  PRO88       0.0237
     18  CD        19.5430   19.9340    8.9210 C.3    88  PRO88       0.0939
     19  N         17.9890   15.9480   11.0100 N.am   89  THR89      -0.1951
     20  CA        17.6570   14.5500   10.7630 C.3    89  THR89       0.1897
     21  C         16.2360   14.4190   10.2100 C.2    89  THR89       0.2313
     22  O         15.2920   15.0000   10.7540 O.2    89  THR89      -0.2863
     23  CB        17.8130   13.7110   12.0580 C.3    89  THR89       0.1794
     24  OG1       16.8950   14.1800   13.0480 O.3    89  THR89      -0.2208
     25  CG2       19.2310   13.8210   12.6030 C.3    89  THR89       0.0378
     26  N         25.0530   16.6380   14.7340 N.3   309  LYS309     -0.1231
     27  CA        24.8170   17.4160   15.9450 C.3   309  LYS309      0.1693
     28  C         23.3240   17.6300   16.0160 C.2   309  LYS309      0.2592
     29  O         22.6290   17.5000   15.0140 O.2   309  LYS309     -0.2718
     30  CB        25.5280   18.7730   15.8960 C.3   309  LYS309      0.0285
     31  CG        27.0330   18.6890   15.9380 C.3   309  LYS309      0.0035
     32  CD        27.6430   20.0620   16.1290 C.3   309  LYS309      0.0206
     33  CE        29.1260   20.0470   15.8120 C.3   309  LYS309      0.1093
     34  NZ        29.7050   21.4220   15.8930 N.3   309  LYS309     -0.1314
     35  N         22.8270   17.9860   17.1660 N.am  310  LEU310     -0.1966
     36  CA        21.4230   18.1510   17.3110 C.3   310  LEU310      0.1728
     37  C         20.9080   19.5730   17.0860 C.2   310  LEU310      0.2617
     38  O         20.0570   19.7970   16.2810 O.2   310  LEU310     -0.2715
     39  CB        20.9520   17.4890   18.5940 C.3   310  LEU310      0.0311
     40  CG        21.1710   15.9850   18.4590 C.3   310  LEU310      0.0022
     41  CD1       20.8730   15.2980   19.6580 C.3   310  LEU310      0.0001
     42  CD2       20.3370   15.4470   17.3960 C.3   310  LEU310      0.0001
     43  N         21.4350   20.5510   17.7640 N.am  311  GLY311     -0.1940
     44  CA        20.9270   21.8970   17.5660 C.3   311  GLY311      0.2014
     45  C         19.6070   22.0410   18.2850 C.2   311  GLY311      0.2639
     46  O         18.6510   21.3290   18.0000 O.2   311  GLY311     -0.2714
     47  N         19.5540   22.9830   19.2150 N.am  312  GLY312     -0.1954
     48  CA        18.3520   23.1720   19.9950 C.3   312  GLY312      0.1869
     49  C         18.6390   22.5090   21.3240 C.2   312  GLY312      0.2309
     50  O         17.8400   22.5860   22.2580 O.2   312  GLY312     -0.2863
     51  N         18.3020   19.6890   22.4560 N.3   314  PRO314     -0.2116
     52  CA        17.0770   19.0230   22.8940 C.3   314  PRO314      0.1372
     53  C         17.1300   18.0170   24.0390 C.2   314  PRO314      0.2244
     54  O         18.0810   17.2400   24.1830 O.2   314  PRO314     -0.2868
     55  CB        16.5760   18.3860   21.6070 C.3   314  PRO314      0.0268
     56  CG        17.8420   17.9070   21.0090 C.3   314  PRO314      0.0207
     57  CD        18.8030   19.0780   21.2120 C.3   314  PRO314      0.0892
     58  N         11.8810   16.4980   23.6600 N.3   318  GLU318     -0.1231
     59  CA        11.8590   17.3540   22.4760 C.3   318  GLU318      0.1699
     60  C         12.4380   16.5960   21.2920 C.2   318  GLU318      0.2592
     61  O         12.0040   16.7750   20.1570 O.2   318  GLU318     -0.2718
     62  CB        12.7090   18.6010   22.6860 C.3   318  GLU318      0.0402
     63  CG        12.2000   19.5610   23.7220 C.3   318  GLU318      0.1161
     64  CD        13.1690   20.6890   23.9450 C.2   318  GLU318      0.3649
     65  OE1       14.3220   20.4000   24.3160 O.co2 318  GLU318     -0.2457
     66  OE2       12.7830   21.8580   23.7460 O.co2 318  GLU318     -0.2457
     67  N         13.4410   15.7630   21.5630 N.am  319  TYR319     -0.1976
     68  CA        14.0840   14.9890   20.5120 C.3   319  TYR319      0.1639
     69  C         13.1290   13.9600   19.9350 C.2   319  TYR319      0.2290
     70  O         13.0580   13.7920   18.7290 O.2   319  TYR319     -0.2864
     71  CB        15.3410   14.2600   21.0150 C.3   319  TYR319      0.0560
     72  CG        16.0030   13.4470   19.9180 C.ar  319  TYR319     -0.0198
     73  CD1       16.7990   14.0640   18.9550 C.ar  319  TYR319     -0.0009
     74  CD2       15.7360   12.0810   19.7730 C.ar  319  TYR319     -0.0009
     75  CE1       17.3040   13.3490   17.8680 C.ar  319  TYR319      0.0417
     76  CE2       16.2360   11.3570   18.6890 C.ar  319  TYR319      0.0417
     77  CZ        17.0130   12.0010   17.7410 C.ar  319  TYR319      0.1957
     78  OH        17.4600   11.3140   16.6400 O.3   319  TYR319     -0.2866
@<TRIPOS>BOND
     1    11     9    1
     2     9    10    1
     3     9     8    2
     4     8     7    1
     5     7     6    1
     6     6     5    1
     7     5     2    1
     8     2     1    1
     9     2     3    1
    10    17    18    1
    11    17    16    1
    12    18    12    1
    13    15    14    2
    14    12     3   am
    15    12    13    1
    16     3     4    2
    17    14    13    1
    18    14    19   am
    19    16    13    1
    20    21    22    2
    21    21    20    1
    22    20    19    1
    23    20    23    1
    24    23    25    1
    25    23    24    1
    26    26    27    1
    27    29    28    2
    28    33    34    1
    29    33    32    1
    30    30    31    1
    31    30    27    1
    32    31    32    1
    33    27    28    1
    34    28    35   am
    35    38    37    2
    36    78    77    1
    37    37    36    1
    38    37    43   am
    39    35    36    1
    40    36    39    1
    41    42    40    1
    42    44    43    1
    43    44    45    1
    44    77    75   ar
    45    77    76   ar
    46    75    73   ar
    47    46    45    2
    48    45    47   am
    49    40    39    1
    50    40    41    1
    51    76    74   ar
    52    70    69    2
    53    73    72   ar
    54    47    48    1
    55    74    72   ar
    56    72    71    1
    57    69    68    1
    58    48    49    1
    59    61    60    2
    60    68    71    1
    61    68    67    1
    62    56    57    1
    63    56    55    1
    64    57    51    1
    65    60    67   am
    66    60    59    1
    67    49    50    2
    68    55    52    1
    69    51    52    1
    70    59    62    1
    71    59    58    1
    72    62    63    1
    73    52    53    1
    74    63    64    1
    75    66    64   ar
    76    64    65   ar
    77    53    54    2
