@<TRIPOS>MOLECULE
tmp/3ttyC00.pdb
 137 130 0 0 0
SMALL
GASTEIGER

@<TRIPOS>ATOM
      1  N         90.9930   75.1860   13.5580 N.3    14  ASP14      -0.1239
      2  CA        90.4930   74.0310   12.8060 C.3    14  ASP14       0.1674
      3  C         91.6060   73.3810   11.9930 C.2    14  ASP14       0.2266
      4  O         92.3440   74.0510   11.2700 O.2    14  ASP14      -0.2867
      5  CB        89.3310   74.4270   11.8970 C.3    14  ASP14       0.1410
      6  CG        88.0280   74.6190   12.6630 C.2    14  ASP14       0.3668
      7  OD1       88.0570   75.2340   13.7540 O.co2  14  ASP14      -0.2456
      8  OD2       86.9800   74.1390   12.1870 O.co2  14  ASP14      -0.2456
      9  N         84.1700   67.5730   11.4700 N.3    45  PHE45      -0.1241
     10  CA        83.3090   67.1310   10.3840 C.3    45  PHE45       0.1605
     11  C         83.6320   65.7410    9.8840 C.2    45  PHE45       0.2264
     12  O         83.8280   65.5470    8.6820 O.2    45  PHE45      -0.2867
     13  CB        83.3690   68.1170    9.2180 C.3    45  PHE45       0.0534
     14  CG        82.6920   69.4300    9.4970 C.ar   45  PHE45      -0.0203
     15  CD1       81.3300   69.4820    9.7250 C.ar   45  PHE45      -0.0042
     16  CD2       83.4190   70.6170    9.5070 C.ar   45  PHE45      -0.0042
     17  CE1       80.7020   70.6940    9.9890 C.ar   45  PHE45      -0.0003
     18  CE2       82.8080   71.8240    9.7530 C.ar   45  PHE45      -0.0003
     19  CZ        81.4460   71.8710   10.0010 C.ar   45  PHE45      -0.0000
     20  N         75.1630   71.1910    5.9390 N.3   111  ARG111     -0.1245
     21  CA        75.6450   70.8970    7.2810 C.3   111  ARG111      0.1563
     22  C         74.8170   71.7260    8.2570 C.2   111  ARG111      0.2260
     23  O         73.9790   72.5360    7.8330 O.2   111  ARG111     -0.2867
     24  CB        77.1150   71.3000    7.4000 C.3   111  ARG111      0.0307
     25  CG        77.3010   72.8080    7.3060 C.3   111  ARG111      0.0489
     26  CD        78.7040   73.2150    7.6350 C.3   111  ARG111      0.2205
     27  NE        78.9090   74.6480    7.4420 N.pl3 111  ARG111     -0.0865
     28  CZ        80.0430   75.2780    7.7390 C.cat 111  ARG111      0.5346
     29  NH1       81.0670   74.5960    8.2550 N.pl3 111  ARG111      0.1354
     30  NH2       80.1470   76.5900    7.5450 N.pl3 111  ARG111      0.1354
     31  N         78.9370   72.0360   15.7020 N.3   149  ASN149     -0.1225
     32  CA        79.5250   73.2110   15.0670 C.3   149  ASN149      0.1785
     33  C         78.4430   74.1920   14.6820 C.2   149  ASN149      0.2597
     34  O         77.4910   73.8240   14.0150 O.2   149  ASN149     -0.2718
     35  CB        80.3610   72.8350   13.8340 C.3   149  ASN149      0.1169
     36  CG        81.3100   73.9580   13.4100 C.2   149  ASN149      0.2627
     37  OD1       82.3100   74.2220   14.0880 O.2   149  ASN149     -0.2716
     38  ND2       80.9920   74.6380   12.2980 N.am  149  ASN149     -0.0877
     39  N         78.5910   75.4370   15.1190 N.am  150  GLU150     -0.1979
     40  CA        77.6470   76.5030   14.8000 C.3   150  GLU150      0.1602
     41  C         76.1880   76.0230   14.7060 C.2   150  GLU150      0.2287
     42  O         75.5960   75.9960   13.6270 O.2   150  GLU150     -0.2864
     43  CB        78.0590   77.2240   13.5020 C.3   150  GLU150      0.0415
     44  CG        79.4100   77.9420   13.5870 C.3   150  GLU150      0.1163
     45  CD        79.5880   78.9980   12.5000 C.2   150  GLU150      0.3649
     46  OE1       78.9360   78.8980   11.4300 O.co2 150  GLU150     -0.2457
     47  OE2       80.3800   79.9360   12.7190 O.co2 150  GLU150     -0.2457
     48  N         80.7910   76.6890   19.3190 N.3   252  ASN252     -0.1240
     49  CA        81.1820   77.9350   18.6650 C.3   252  ASN252      0.1653
     50  C         80.0230   78.8080   18.2010 C.2   252  ASN252      0.2266
     51  O         79.1960   78.3910   17.3850 O.2   252  ASN252     -0.2867
     52  CB        82.2290   77.7100   17.5550 C.3   252  ASN252      0.1155
     53  CG        81.8100   76.6760   16.5220 C.2   252  ASN252      0.2627
     54  OD1       81.1680   75.6770   16.8330 O.2   252  ASN252     -0.2716
     55  ND2       82.2160   76.9040   15.2740 N.am  252  ASN252     -0.0877
     56  N         83.1310   82.9650   16.3270 N.3   275  ASP275     -0.1239
     57  CA        83.7400   82.9370   15.0100 C.3   275  ASP275      0.1674
     58  C         83.5590   84.2800   14.3460 C.2   275  ASP275      0.2266
     59  O         82.4530   84.6430   13.9650 O.2   275  ASP275     -0.2867
     60  CB        83.0900   81.8510   14.1620 C.3   275  ASP275      0.1410
     61  CG        83.1520   80.4870   14.8210 C.2   275  ASP275      0.3668
     62  OD1       84.0010   80.3110   15.7240 O.co2 275  ASP275     -0.2456
     63  OD2       82.3680   79.5870   14.4300 O.co2 275  ASP275     -0.2456
     64  N         84.1730   86.9910   11.4030 N.3   277  TYR277     -0.1241
     65  CA        84.4970   87.1300    9.9880 C.3   277  TYR277      0.1605
     66  C         84.0270   88.4640    9.4060 C.2   277  TYR277      0.2264
     67  O         83.0610   88.5020    8.6450 O.2   277  TYR277     -0.2867
     68  CB        83.8680   85.9780    9.1920 C.3   277  TYR277      0.0534
     69  CG        84.4940   84.6350    9.4810 C.ar  277  TYR277     -0.0201
     70  CD1       85.6150   84.2180    8.7870 C.ar  277  TYR277     -0.0009
     71  CD2       83.9750   83.7900   10.4580 C.ar  277  TYR277     -0.0009
     72  CE1       86.2190   82.9890    9.0540 C.ar  277  TYR277      0.0417
     73  CE2       84.5640   82.5550   10.7190 C.ar  277  TYR277      0.0417
     74  CZ        85.6900   82.1600   10.0090 C.ar  277  TYR277      0.1957
     75  OH        86.3100   80.9400   10.2440 O.3   277  TYR277     -0.2866
     76  N         87.4040   81.0090   15.9290 N.3   307  GLU307     -0.1245
     77  CA        87.6810   81.0730   14.5000 C.3   307  GLU307      0.1567
     78  C         87.8430   82.4920   14.0120 C.2   307  GLU307      0.2260
     79  O         87.2530   83.4220   14.5580 O.2   307  GLU307     -0.2867
     80  CB        86.5550   80.4180   13.6820 C.3   307  GLU307      0.0388
     81  CG        86.3900   78.9150   13.8410 C.3   307  GLU307      0.1160
     82  CD        85.2590   78.3860   12.9570 C.2   307  GLU307      0.3649
     83  OE1       84.9800   79.0270   11.9190 O.co2 307  GLU307     -0.2457
     84  OE2       84.6430   77.3510   13.2910 O.co2 307  GLU307     -0.2457
     85  N         88.0320   85.1780    3.0660 N.3   313  GLN313     -0.1245
     86  CA        86.9150   84.2900    3.3880 C.3   313  GLN313      0.1566
     87  C         86.0370   84.0590    2.1510 C.2   313  GLN313      0.2260
     88  O         85.4900   84.9970    1.5830 O.2   313  GLN313     -0.2867
     89  CB        86.0770   84.8340    4.5550 C.3   313  GLN313      0.0367
     90  CG        85.0080   83.8410    5.0170 C.3   313  GLN313      0.0905
     91  CD        83.9220   84.4580    5.8840 C.2   313  GLN313      0.2608
     92  OE1       83.2540   83.7470    6.6390 O.2   313  GLN313     -0.2717
     93  NE2       83.7210   85.7750    5.7630 N.am  313  GLN313     -0.0878
     94  N         83.0610   82.9470    1.6740 N.3   315  TRP315     -0.1241
     95  CA        81.6370   83.2630    1.7760 C.3   315  TRP315      0.1605
     96  C         81.2920   84.7350    1.5310 C.2   315  TRP315      0.2264
     97  O         80.1270   85.0680    1.3140 O.2   315  TRP315     -0.2867
     98  CB        81.0620   82.8010    3.1240 C.3   315  TRP315      0.0550
     99  CG        81.2030   81.3130    3.3420 C.ar  315  TRP315      0.0003
    100  CD1       82.1990   80.6780    4.0210 C.ar  315  TRP315      0.0946
    101  CD2       80.3280   80.2820    2.8560 C.ar  315  TRP315      0.0152
    102  NE1       81.9990   79.3140    3.9900 N.ar  315  TRP315     -0.2442
    103  CE2       80.8580   79.0460    3.2850 C.ar  315  TRP315      0.0810
    104  CE3       79.1530   80.2860    2.0950 C.ar  315  TRP315      0.0012
    105  CZ2       80.2550   77.8260    2.9840 C.ar  315  TRP315      0.0191
    106  CZ3       78.5460   79.0650    1.7960 C.ar  315  TRP315      0.0001
    107  CH2       79.0990   77.8550    2.2400 C.ar  315  TRP315      0.0015
    108  N         90.0210   79.4810   11.2030 N.3   345  PHE345     -0.1241
    109  CA        89.6460   78.4860   10.2200 C.3   345  PHE345      0.1605
    110  C         90.3500   78.8790    8.9320 C.2   345  PHE345      0.2264
    111  O         90.1060   79.9670    8.4220 O.2   345  PHE345     -0.2867
    112  CB        88.1430   78.4490    9.9490 C.3   345  PHE345      0.0534
    113  CG        87.7560   77.3430    9.0300 C.ar  345  PHE345     -0.0203
    114  CD1       87.4610   76.0800    9.5350 C.ar  345  PHE345     -0.0042
    115  CD2       87.7640   77.5280    7.6510 C.ar  345  PHE345     -0.0042
    116  CE1       87.1350   75.0380    8.6840 C.ar  345  PHE345     -0.0003
    117  CE2       87.4360   76.4910    6.7960 C.ar  345  PHE345     -0.0003
    118  CZ        87.1300   75.2480    7.3050 C.ar  345  PHE345     -0.0000
    119  N         84.8200   75.3570    0.3030 N.3   355  GLU355     -0.1245
    120  CA        85.7230   76.2480    1.0250 C.3   355  GLU355      0.1567
    121  C         87.1930   76.1560    0.5980 C.2   355  GLU355      0.2260
    122  O         88.0750   76.5890    1.3350 O.2   355  GLU355     -0.2867
    123  CB        85.5680   76.0650    2.5410 C.3   355  GLU355      0.0388
    124  CG        84.2050   76.5000    3.0260 C.3   355  GLU355      0.1160
    125  CD        84.0150   76.3600    4.5270 C.2   355  GLU355      0.3649
    126  OE1       83.1440   77.0730    5.0600 O.co2 355  GLU355     -0.2457
    127  OE2       84.7230   75.5480    5.1680 O.co2 355  GLU355     -0.2457
    128  N         88.6840   79.4460    0.7540 N.3   358  HIS358     -0.1241
    129  CA        88.7620   80.0610    2.0720 C.3   358  HIS358      0.1621
    130  C         90.2320   80.0930    2.4750 C.2   358  HIS358      0.2264
    131  O         90.9340   79.0990    2.3280 O.2   358  HIS358     -0.2867
    132  CB        87.9800   79.2420    3.0960 C.3   358  HIS358      0.0745
    133  CG        87.7450   79.9600    4.3880 C.ar  358  HIS358      0.0817
    134  ND1       88.7450   80.1810    5.3090 N.ar  358  HIS358     -0.2268
    135  CD2       86.6220   80.5070    4.9110 C.ar  358  HIS358      0.1154
    136  CE1       88.2430   80.8240    6.3500 C.ar  358  HIS358      0.1986
    137  NE2       86.9570   81.0330    6.1370 N.ar  358  HIS358     -0.2212
@<TRIPOS>BOND
     1   119   120    1
     2   121   120    1
     3   121   122    2
     4   128   129    1
     5   120   123    1
     6    97    96    2
     7    96    95    1
     8    88    87    2
     9    94    95    1
    10    95    98    1
    11   106   104   ar
    12   106   107   ar
    13   129   130    1
    14   129   132    1
    15   104   101   ar
    16    87    86    1
    17   107   105   ar
    18   131   130    2
    19   123   124    1
    20   101   103   ar
    21   101    99   ar
    22   105   103   ar
    23   124   125    1
    24    85    86    1
    25   132   133    1
    26    98    99    1
    27   103   102   ar
    28    99   100   ar
    29    86    89    1
    30   102   100   ar
    31   133   135   ar
    32   133   134   ar
    33   125   126   ar
    34   125   127   ar
    35    89    90    1
    36   135   137   ar
    37    90    91    1
    38   134   136   ar
    39    93    91   am
    40    91    92    2
    41    20    21    1
    42   137   136   ar
    43   117   118   ar
    44   117   115   ar
    45    21    24    1
    46    21    22    1
    47   118   116   ar
    48    25    24    1
    49    25    26    1
    50    27    26    1
    51    27    28    2
    52    30    28    1
    53   115   113   ar
    54    28    29    1
    55    23    22    2
    56   111   110    2
    57    67    66    2
    58    12    11    2
    59   116   114   ar
    60    70    72   ar
    61    70    69   ar
    62   110   109    1
    63   113   114   ar
    64   113   112    1
    65    72    74   ar
    66    68    69    1
    67    68    65    1
    68    13    14    1
    69    13    10    1
    70    66    65    1
    71    69    71   ar
    72    14    16   ar
    73    14    15   ar
    74    16    18   ar
    75    15    17   ar
    76    18    19   ar
    77    11    10    1
    78   112   109    1
    79    65    64    1
    80    17    19   ar
    81    74    75    1
    82    74    73   ar
    83   109   108    1
    84    10     9    1
    85    71    73   ar
    86     4     3    2
    87    46    45   ar
    88     5     6    1
    89     5     2    1
    90    83    82   ar
    91     3     2    1
    92     8     6   ar
    93    38    36   am
    94    45    47   ar
    95    45    44    1
    96     6     7   ar
    97     2     1    1
    98    82    84   ar
    99    82    81    1
   100    36    35    1
   101    36    37    2
   102    43    44    1
   103    43    40    1
   104    42    41    2
   105    80    81    1
   106    80    77    1
   107    35    32    1
   108    59    58    2
   109    78    77    1
   110    78    79    2
   111    34    33    2
   112    60    61    1
   113    60    57    1
   114    58    57    1
   115    63    61   ar
   116    77    76    1
   117    33    32    1
   118    33    39   am
   119    41    40    1
   120    40    39    1
   121    61    62   ar
   122    57    56    1
   123    32    31    1
   124    55    53   am
   125    53    54    2
   126    53    52    1
   127    51    50    2
   128    52    49    1
   129    50    49    1
   130    49    48    1
