@<TRIPOS>MOLECULE
tmp/3ttzB00.pdb
 118 109 0 0 0
SMALL
GASTEIGER

@<TRIPOS>ATOM
      1  N         22.3310   -8.8150    3.9060 N.3    32  ILE32      -0.1245
      2  CA        22.6330  -10.2070    4.2310 C.3    32  ILE32       0.1561
      3  C         22.6200  -10.4150    5.7430 C.2    32  ILE32       0.2260
      4  O         21.9730  -11.3390    6.2340 O.2    32  ILE32      -0.2867
      5  CB        23.9940  -10.6630    3.6540 C.3    32  ILE32       0.0252
      6  CG1       23.9830  -10.5980    2.1220 C.3    32  ILE32       0.0019
      7  CG2       24.3240  -12.0780    4.1220 C.3    32  ILE32       0.0019
      8  CD1       22.8680  -11.4020    1.4630 C.3    32  ILE32       0.0001
      9  N         19.2750  -10.8670    7.5400 N.3    35  ASN35      -0.1225
     10  CA        18.6860  -12.2080    7.4830 C.3    35  ASN35       0.1785
     11  C         19.1630  -13.0640    8.6580 C.2    35  ASN35       0.2597
     12  O         18.3770  -13.7990    9.2590 O.2    35  ASN35      -0.2718
     13  CB        19.0050  -12.8970    6.1510 C.3    35  ASN35       0.1169
     14  CG        18.4520  -12.1440    4.9540 C.2    35  ASN35       0.2627
     15  OD1       17.3230  -11.6530    4.9820 O.2    35  ASN35      -0.2716
     16  ND2       19.2430  -12.0560    3.8940 N.am   35  ASN35      -0.0877
     17  N         20.4460  -12.9430    8.9950 N.am   36  SER36      -0.1952
     18  CA        21.0100  -13.6390   10.1520 C.3    36  SER36       0.1924
     19  C         20.4210  -13.1020   11.4570 C.2    36  SER36       0.2314
     20  O         20.1180  -13.8700   12.3710 O.2    36  SER36      -0.2863
     21  CB        22.5360  -13.5170   10.1770 C.3    36  SER36       0.2116
     22  OG        23.1290  -14.1920    9.0850 O.3    36  SER36      -0.2180
     23  N         17.0660  -14.5440   11.9770 N.3    39  GLU39      -0.1245
     24  CA        17.1950  -15.9210   12.4380 C.3    39  GLU39       0.1567
     25  C         17.5830  -15.9850   13.9230 C.2    39  GLU39       0.2260
     26  O         17.2100  -16.9270   14.6240 O.2    39  GLU39      -0.2867
     27  CB        18.2050  -16.6670   11.5530 C.3    39  GLU39       0.0388
     28  CG        18.3240  -18.1670   11.7960 C.3    39  GLU39       0.1160
     29  CD        17.0690  -18.9680   11.4570 C.2    39  GLU39       0.3649
     30  OE1       16.0220  -18.3910   11.0840 O.co2  39  GLU39      -0.2457
     31  OE2       17.1360  -20.2090   11.5710 O.co2  39  GLU39      -0.2457
     32  N         29.2870  -13.9630    5.1190 N.3    60  VAL60      -0.1245
     33  CA        28.4450  -13.9010    6.3080 C.3    60  VAL60       0.1561
     34  C         28.0480  -15.3230    6.6810 C.2    60  VAL60       0.2260
     35  O         27.5420  -16.0700    5.8430 O.2    60  VAL60      -0.2867
     36  CB        27.1830  -13.0420    6.0840 C.3    60  VAL60       0.0252
     37  CG1       26.3350  -12.9940    7.3570 C.3    60  VAL60       0.0019
     38  CG2       27.5680  -11.6330    5.6390 C.3    60  VAL60       0.0019
     39  N         26.0320  -17.6510    9.7710 N.3    62  ASP62      -0.1239
     40  CA        25.3110  -17.8150   11.0300 C.3    62  ASP62       0.1674
     41  C         25.1350  -19.2950   11.3670 C.2    62  ASP62       0.2266
     42  O         25.3450  -20.1660   10.5150 O.2    62  ASP62      -0.2867
     43  CB        23.9730  -17.0530   11.0260 C.3    62  ASP62       0.1410
     44  CG        22.9540  -17.6300   10.0570 C.2    62  ASP62       0.3668
     45  OD1       22.6150  -18.8270   10.1780 O.co2  62  ASP62      -0.2456
     46  OD2       22.4690  -16.8740    9.1900 O.co2  62  ASP62      -0.2456
     47  N         19.1500  -22.2380   11.4060 N.3    65  ARG65      -0.1231
     48  CA        18.6130  -23.4920   10.8610 C.3    65  ARG65       0.1694
     49  C         19.1290  -23.8400    9.4670 C.2    65  ARG65       0.2593
     50  O         19.0290  -24.9930    9.0400 O.2    65  ARG65      -0.2718
     51  CB        17.0890  -23.4380   10.8060 C.3    65  ARG65       0.0321
     52  CG        16.4190  -23.3860   12.1610 C.3    65  ARG65       0.0489
     53  CD        14.9480  -23.0570   12.0150 C.3    65  ARG65       0.2205
     54  NE        14.7430  -21.6600   11.6420 N.pl3  65  ARG65      -0.0865
     55  CZ        13.5610  -21.1060   11.3860 C.cat  65  ARG65       0.5346
     56  NH1       12.4480  -21.8270   11.4490 N.pl3  65  ARG65       0.1354
     57  NH2       13.4890  -19.8190   11.0640 N.pl3  65  ARG65       0.1354
     58  N         19.6550  -22.8490    8.7560 N.am   66  GLY66      -0.1942
     59  CA        20.0520  -23.0200    7.3650 C.3    66  GLY66       0.2014
     60  C         18.8710  -22.7360    6.4590 C.2    66  GLY66       0.2639
     61  O         17.7400  -23.1190    6.7650 O.2    66  GLY66      -0.2714
     62  N         19.1230  -22.0530    5.3470 N.am   67  ILE67      -0.1963
     63  CA        18.0580  -21.7460    4.3910 C.3    67  ILE67       0.1712
     64  C         17.4830  -23.0650    3.8670 C.2    67  ILE67       0.2458
     65  O         18.2440  -23.9530    3.4880 O.2    67  ILE67      -0.2730
     66  CB        18.5600  -20.9180    3.1920 C.3    67  ILE67       0.0289
     67  CG1       19.2570  -19.6370    3.6590 C.3    67  ILE67       0.0022
     68  CG2       17.3930  -20.5710    2.2730 C.3    67  ILE67       0.0023
     69  CD1       19.8690  -18.8370    2.5330 C.3    67  ILE67       0.0001
     70  N         16.1440  -23.2120    3.8610 N.am   68  PRO68      -0.2727
     71  CA        15.5590  -24.4670    3.3850 C.3    68  PRO68       0.1402
     72  C         15.9650  -24.8210    1.9560 C.2    68  PRO68       0.2269
     73  O         16.1620  -23.9270    1.1260 O.2    68  PRO68      -0.2865
     74  CB        14.0500  -24.2070    3.4560 C.3    68  PRO68       0.0296
     75  CG        13.8950  -23.1620    4.4690 C.3    68  PRO68       0.0237
     76  CD        15.1160  -22.3010    4.3990 C.3    68  PRO68       0.0939
     77  N         14.6890  -18.3000   -3.1520 N.3    80  ILE80      -0.1231
     78  CA        14.9860  -17.1890   -2.2460 C.3    80  ILE80       0.1692
     79  C         16.1360  -16.3120   -2.7480 C.2    80  ILE80       0.2591
     80  O         16.0040  -15.0860   -2.8130 O.2    80  ILE80      -0.2718
     81  CB        15.3150  -17.7110   -0.8210 C.3    80  ILE80       0.0266
     82  CG1       14.0460  -18.2340   -0.1450 C.3    80  ILE80       0.0019
     83  CG2       15.9460  -16.6190    0.0390 C.3    80  ILE80       0.0020
     84  CD1       14.3050  -18.9970    1.1380 C.3    80  ILE80       0.0001
     85  N         17.2570  -16.9330   -3.1020 N.am   81  LEU81      -0.1980
     86  CA        18.4450  -16.1790   -3.5120 C.3    81  LEU81       0.1596
     87  C         18.3630  -15.5970   -4.9320 C.2    81  LEU81       0.2287
     88  O         19.0120  -14.5930   -5.2160 O.2    81  LEU81      -0.2864
     89  CB        19.7170  -17.0190   -3.3340 C.3    81  LEU81       0.0297
     90  CG        20.0920  -17.3380   -1.8800 C.3    81  LEU81       0.0022
     91  CD1       21.3770  -18.1540   -1.8210 C.3    81  LEU81       0.0001
     92  CD2       20.2380  -16.0640   -1.0410 C.3    81  LEU81       0.0001
     93  N         22.4590  -28.2010    6.8080 N.3    99  ARG99      -0.1245
     94  CA        21.1030  -28.6070    7.1680 C.3    99  ARG99       0.1563
     95  C         20.9370  -30.0910    6.8560 C.2    99  ARG99       0.2260
     96  O         21.5650  -30.5950    5.9290 O.2    99  ARG99      -0.2867
     97  CB        20.1000  -27.7770    6.3620 C.3    99  ARG99       0.0307
     98  CG        18.6780  -27.8010    6.8700 C.3    99  ARG99       0.0489
     99  CD        17.8090  -26.8580    6.0480 C.3    99  ARG99       0.2205
    100  NE        16.3860  -27.1260    6.2470 N.pl3  99  ARG99      -0.0865
    101  CZ        15.5330  -26.3640    6.9320 C.cat  99  ARG99       0.5346
    102  NH1       15.9150  -25.2240    7.5080 N.pl3  99  ARG99       0.1354
    103  NH2       14.2650  -26.7450    7.0290 N.pl3  99  ARG99       0.1354
    104  N         23.9130  -21.0640    7.7600 N.3   128  THR128     -0.1218
    105  CA        24.0270  -20.5620    6.3990 C.3   128  THR128      0.1862
    106  C         25.3350  -19.7980    6.2400 C.2   128  THR128      0.2287
    107  O         25.7070  -19.0060    7.1110 O.2   128  THR128     -0.2866
    108  CB        22.8640  -19.6060    6.0720 C.3   128  THR128      0.1770
    109  OG1       21.6150  -20.2750    6.2770 O.3   128  THR128     -0.2211
    110  CG2       22.9410  -19.1110    4.6320 C.3   128  THR128      0.0375
    111  N         27.0740  -17.3020    3.3190 N.3   130  ILE130     -0.1245
    112  CA        26.9070  -16.5490    2.0800 C.3   130  ILE130      0.1561
    113  C         28.2170  -15.8320    1.7900 C.2   130  ILE130      0.2260
    114  O         28.7520  -15.1620    2.6700 O.2   130  ILE130     -0.2867
    115  CB        25.7840  -15.4880    2.1950 C.3   130  ILE130      0.0252
    116  CG1       24.4090  -16.1550    2.3230 C.3   130  ILE130      0.0019
    117  CG2       25.7990  -14.5430    0.9880 C.3   130  ILE130      0.0019
    118  CD1       23.8680  -16.7220    1.0240 C.3   130  ILE130      0.0001
@<TRIPOS>BOND
     1    88    87    2
     2    87    86    1
     3    86    89    1
     4    86    85    1
     5    89    90    1
     6    77    78    1
     7    85    79   am
     8    80    79    2
     9    79    78    1
    10    78    81    1
    11    90    91    1
    12    90    92    1
    13    81    82    1
    14    81    83    1
    15    82    84    1
    16   117   115    1
    17   118   116    1
    18    73    72    2
    19     8     6    1
    20   113   112    1
    21   113   114    2
    22    72    71    1
    23   112   115    1
    24   112   111    1
    25     6     5    1
    26   115   116    1
    27    68    66    1
    28    69    67    1
    29    66    67    1
    30    66    63    1
    31    71    74    1
    32    71    70    1
    33    74    75    1
    34    65    64    2
    35     5     7    1
    36     5     2    1
    37    70    64   am
    38    70    76    1
    39    64    63    1
    40    16    14   am
    41     1     2    1
    42     2     3    1
    43    63    62    1
    44    76    75    1
    45   110   108    1
    46    14    15    2
    47    14    13    1
    48    32    33    1
    49    62    60   am
    50    38    36    1
    51     3     4    2
    52    35    34    2
    53    96    95    2
    54    99   100    1
    55    99    98    1
    56   108   109    1
    57   108   105    1
    58    36    33    1
    59    36    37    1
    60    13    10    1
    61   106   105    1
    62   106   107    2
    63   100   101    2
    64    33    34    1
    65    97    98    1
    66    97    94    1
    67   105   104    1
    68    60    61    2
    69    60    59    1
    70    93    94    1
    71    95    94    1
    72   101   103    1
    73   101   102    1
    74    59    58    1
    75    10     9    1
    76    10    11    1
    77    11    17   am
    78    11    12    2
    79    58    49   am
    80    17    18    1
    81    50    49    2
    82    22    21    1
    83    46    44   ar
    84    49    48    1
    85    39    40    1
    86    44    45   ar
    87    44    43    1
    88    18    21    1
    89    18    19    1
    90    42    41    2
    91    51    48    1
    92    51    52    1
    93    48    47    1
    94    43    40    1
    95    40    41    1
    96    57    55    1
    97    30    29   ar
    98    55    56    1
    99    55    54    2
   100    29    31   ar
   101    29    28    1
   102    19    20    2
   103    27    28    1
   104    27    24    1
   105    54    53    1
   106    23    24    1
   107    53    52    1
   108    24    25    1
   109    25    26    2
