@<TRIPOS>MOLECULE
tmp/3tu7B01.pdb
 217 220 0 0 0
SMALL
GASTEIGER

@<TRIPOS>ATOM
      1  N         27.1530   -4.9390   16.9750 N.3    43  HIS43      -0.1241
      2  CA        26.4050   -4.4170   18.1270 C.3    43  HIS43       0.1621
      3  C         24.8840   -4.6340   18.0660 C.2    43  HIS43       0.2264
      4  O         24.2580   -4.7620   19.1060 O.2    43  HIS43      -0.2867
      5  CB        26.8460   -2.9940   18.5480 C.3    43  HIS43       0.0745
      6  CG        26.0290   -1.9010   17.9500 C.ar   43  HIS43       0.0817
      7  ND1       26.4840   -1.1750   16.8600 N.ar   43  HIS43      -0.2268
      8  CD2       24.8100   -1.4430   18.3050 C.ar   43  HIS43       0.1154
      9  CE1       25.5290   -0.3020   16.5830 C.ar   43  HIS43       0.1986
     10  NE2       24.5030   -0.4230   17.4220 N.ar   43  HIS43      -0.2212
     11  N         25.7260   -7.3230   22.2520 N.3    47  TYR47      -0.1241
     12  CA        26.1560   -6.2150   23.0950 C.3    47  TYR47       0.1605
     13  C         25.9020   -6.5720   24.5530 C.2    47  TYR47       0.2264
     14  O         24.8950   -6.1300   25.1170 O.2    47  TYR47      -0.2867
     15  CB        25.5090   -4.8730   22.6950 C.3    47  TYR47       0.0534
     16  CG        26.1890   -3.6940   23.3600 C.ar   47  TYR47      -0.0201
     17  CD1       27.5430   -3.4370   23.1540 C.ar   47  TYR47      -0.0009
     18  CD2       25.4950   -2.8730   24.2480 C.ar   47  TYR47      -0.0009
     19  CE1       28.1850   -2.3790   23.7950 C.ar   47  TYR47       0.0417
     20  CE2       26.1380   -1.8310   24.9220 C.ar   47  TYR47       0.0417
     21  CZ        27.4770   -1.5740   24.6720 C.ar   47  TYR47       0.1957
     22  OH        28.1030   -0.5090   25.2710 O.3    47  TYR47      -0.2866
     23  N         24.2650   -4.4360   27.5520 N.3    50  TRP50      -0.1241
     24  CA        22.8240   -4.1670   27.5120 C.3    50  TRP50       0.1605
     25  C         22.0090   -5.4160   27.4020 C.2    50  TRP50       0.2264
     26  O         20.8350   -5.3350   27.0960 O.2    50  TRP50      -0.2867
     27  CB        22.4450   -3.1950   26.3860 C.3    50  TRP50       0.0550
     28  CG        22.9710   -1.7910   26.5250 C.ar   50  TRP50       0.0003
     29  CD1       23.6270   -1.2490   27.5940 C.ar   50  TRP50       0.0946
     30  CD2       22.8180   -0.7360   25.5720 C.ar   50  TRP50       0.0152
     31  NE1       23.9020    0.0740   27.3590 N.ar   50  TRP50      -0.2442
     32  CE2       23.4470    0.4070   26.1070 C.ar   50  TRP50       0.0810
     33  CE3       22.2280   -0.6510   24.3000 C.ar   50  TRP50       0.0012
     34  CZ2       23.5220    1.6190   25.4040 C.ar   50  TRP50       0.0191
     35  CZ3       22.3310    0.5390   23.5920 C.ar   50  TRP50       0.0001
     36  CH2       22.9620    1.6600   24.1460 C.ar   50  TRP50       0.0015
     37  N         33.2020   -4.9740   22.2840 N.3    92  TRP92      -0.1227
     38  CA        31.9950   -4.4000   22.8940 C.3    92  TRP92       0.1737
     39  C         32.2990   -3.7640   24.2450 C.2    92  TRP92       0.2595
     40  O         31.5230   -2.9320   24.7420 O.2    92  TRP92      -0.2718
     41  CB        30.8920   -5.4630   23.0640 C.3    92  TRP92       0.0564
     42  CG        31.3220   -6.7150   23.7530 C.ar   92  TRP92       0.0003
     43  CD1       31.6890   -7.8830   23.1570 C.ar   92  TRP92       0.0946
     44  CD2       31.4490   -6.9270   25.1700 C.ar   92  TRP92       0.0152
     45  NE1       32.0070   -8.8230   24.1100 N.ar   92  TRP92      -0.2442
     46  CE2       31.8680   -8.2620   25.3570 C.ar   92  TRP92       0.0810
     47  CE3       31.2340   -6.1220   26.3050 C.ar   92  TRP92       0.0012
     48  CZ2       32.1080   -8.8040   26.6320 C.ar   92  TRP92       0.0191
     49  CZ3       31.4820   -6.6540   27.5650 C.ar   92  TRP92       0.0001
     50  CH2       31.9070   -7.9810   27.7210 C.ar   92  TRP92       0.0015
     51  N         33.3930   -4.2320   24.8710 N.am   93  ARG93      -0.1966
     52  CA        33.9020   -3.8400   26.1820 C.3    93  ARG93       0.1729
     53  C         34.2880   -2.3580   26.2450 C.2    93  ARG93       0.2616
     54  O         33.8830   -1.6350   27.1490 O.2    93  ARG93      -0.2715
     55  CB        35.1620   -4.6870   26.4770 C.3    93  ARG93       0.0348
     56  CG        35.1640   -5.4290   27.8010 C.3    93  ARG93       0.0492
     57  CD        36.1550   -6.5760   27.7770 C.3    93  ARG93       0.2205
     58  NE        37.5490   -6.1160   27.8310 N.pl3  93  ARG93      -0.0865
     59  CZ        38.4340   -6.2300   26.8390 C.cat  93  ARG93       0.5346
     60  NH1       38.0790   -6.7790   25.6800 N.pl3  93  ARG93       0.1354
     61  NH2       39.6790   -5.7940   26.9980 N.pl3  93  ARG93       0.1354
     62  N         35.0910   -1.9250   25.2940 N.am   94  GLU94      -0.1963
     63  CA        35.6670   -0.6070   25.3110 C.3    94  GLU94       0.1733
     64  C         35.0980    0.4450   24.3530 C.2    94  GLU94       0.2616
     65  O         34.6680    1.4950   24.8170 O.2    94  GLU94      -0.2715
     66  CB        37.1790   -0.7800   25.0980 C.3    94  GLU94       0.0429
     67  CG        38.0380    0.3990   25.4960 C.3    94  GLU94       0.1163
     68  CD        39.5100    0.2080   25.1840 C.2    94  GLU94       0.3649
     69  OE1       39.9520   -0.9580   25.0480 O.co2  94  GLU94      -0.2457
     70  OE2       40.2230    1.2330   25.0780 O.co2  94  GLU94      -0.2457
     71  N         35.1770    0.2120   23.0240 N.am   95  ASN95      -0.1958
     72  CA        34.9130    1.2560   22.0200 C.3    95  ASN95       0.1819
     73  C         34.1350    0.8750   20.7630 C.2    95  ASN95       0.2621
     74  O         34.0850    1.6900   19.8460 O.2    95  ASN95      -0.2715
     75  CB        36.2910    1.8070   21.5740 C.3    95  ASN95       0.1195
     76  CG        37.3010    0.7300   21.1520 C.2    95  ASN95       0.2630
     77  OD1       37.0460   -0.4770   21.2310 O.2    95  ASN95      -0.2716
     78  ND2       38.4890    1.1380   20.7040 N.am   95  ASN95      -0.0877
     79  N         33.5690   -0.3490   20.7000 N.am   96  LEU96      -0.1977
     80  CA        32.9140   -0.9180   19.5190 C.3    96  LEU96       0.1596
     81  C         33.9090   -1.0860   18.3730 C.2    96  LEU96       0.2287
     82  O         33.5400   -0.9380   17.2080 O.2    96  LEU96      -0.2864
     83  CB        31.6250   -0.1910   19.0570 C.3    96  LEU96       0.0297
     84  CG        30.4060   -0.2560   19.9600 C.3    96  LEU96       0.0022
     85  CD1       29.2640    0.4910   19.3340 C.3    96  LEU96       0.0001
     86  CD2       30.0000   -1.6830   20.2490 C.3    96  LEU96       0.0001
     87  N         35.9860    8.6570   23.9210 N.3   171  ILE171     -0.1245
     88  CA        36.0980    7.2510   23.5210 C.3   171  ILE171      0.1561
     89  C         37.3780    7.0740   22.6810 C.2   171  ILE171      0.2260
     90  O         37.7590    7.9800   21.9260 O.2   171  ILE171     -0.2867
     91  CB        34.7960    6.7380   22.7950 C.3   171  ILE171      0.0252
     92  CG1       33.7010    6.3640   23.8120 C.3   171  ILE171      0.0019
     93  CG2       35.0430    5.5240   21.8590 C.3   171  ILE171      0.0019
     94  CD1       32.3770    6.9840   23.5120 C.3   171  ILE171      0.0001
     95  N         22.2790   13.4970   11.0640 N.3   191  ASP191     -0.1225
     96  CA        23.0010   12.4000   11.6750 C.3   191  ASP191      0.1805
     97  C         22.1460   11.1660   11.5810 C.2   191  ASP191      0.2598
     98  O         20.9540   11.2620   11.3240 O.2   191  ASP191     -0.2718
     99  CB        23.2570   12.7170   13.1700 C.3   191  ASP191      0.1424
    100  CG        24.3280   11.8860   13.8350 C.2   191  ASP191      0.3668
    101  OD1       24.9840   11.0950   13.1350 O.co2 191  ASP191     -0.2456
    102  OD2       24.5080   12.0240   15.0530 O.co2 191  ASP191     -0.2456
    103  N         22.7480   10.0080   11.8240 N.am  192  ALA192     -0.1966
    104  CA        22.0500    8.7400   11.9650 C.3   192  ALA192      0.1728
    105  C         21.6730    8.7390   13.4670 C.2   192  ALA192      0.2616
    106  O         22.1790    9.5740   14.2320 O.2   192  ALA192     -0.2715
    107  CB        22.9980    7.5790   11.6320 C.3   192  ALA192      0.0334
    108  N         20.7910    7.8430   13.8940 N.am  193  CYS193     -0.1954
    109  CA        20.3350    7.8020   15.2900 C.3   193  CYS193      0.1843
    110  C         19.9840    6.3450   15.6780 C.2   193  CYS193      0.2625
    111  O         20.2760    5.4160   14.8870 O.2   193  CYS193     -0.2714
    112  CB        19.1310    8.7250   15.4090 C.3   193  CYS193      0.0997
    113  SG        18.7150    9.2210   17.0850 S.3   193  CYS193     -0.0797
    114  N         19.3590    6.1290   16.8710 N.am  194  GLU194     -0.1977
    115  CA        18.9600    4.7700   17.2980 C.3   194  GLU194      0.1602
    116  C         17.9520    4.1790   16.2960 C.2   194  GLU194      0.2287
    117  O         16.9860    4.8490   15.8980 O.2   194  GLU194     -0.2864
    118  CB        18.3890    4.7590   18.7260 C.3   194  GLU194      0.0415
    119  CG        19.4280    5.0860   19.8000 C.3   194  GLU194      0.1163
    120  CD        20.3680    3.9720   20.2520 C.2   194  GLU194      0.3649
    121  OE1       20.1160    2.7870   19.9200 O.co2 194  GLU194     -0.2457
    122  OE2       21.3400    4.2890   20.9780 O.co2 194  GLU194     -0.2457
    123  N         21.5160    1.8910   13.1580 N.3   197  SER197     -0.1217
    124  CA        22.6770    0.9990   13.3680 C.3   197  SER197      0.1889
    125  C         22.6980   -0.1900   12.4250 C.2   197  SER197      0.2288
    126  O         21.6620   -0.8050   12.1800 O.2   197  SER197     -0.2866
    127  CB        22.7100    0.5020   14.8070 C.3   197  SER197      0.2089
    128  OG        22.3760    1.5230   15.7360 O.3   197  SER197     -0.2183
    129  N         26.8290    2.2400    9.9950 N.3   217  VAL217     -0.1231
    130  CA        26.3610    3.1130   11.0960 C.3   217  VAL217      0.1692
    131  C         26.6650    2.3790   12.4060 C.2   217  VAL217      0.2593
    132  O         26.0540    1.3460   12.6420 O.2   217  VAL217     -0.2718
    133  CB        24.8340    3.4560   10.9940 C.3   217  VAL217      0.0266
    134  CG1       24.3610    4.2570   12.2180 C.3   217  VAL217      0.0020
    135  CG2       24.5150    4.1910    9.7170 C.3   217  VAL217      0.0020
    136  N         27.6050    2.9020   13.2240 N.am  218  SER218     -0.1938
    137  CA        28.0550    2.2650   14.4560 C.3   218  SER218      0.2055
    138  C         27.6420    2.9450   15.7770 C.2   218  SER218      0.2643
    139  O         26.8440    2.4050   16.5470 O.2   218  SER218     -0.2714
    140  CB        29.5760    2.0480   14.4030 C.3   218  SER218      0.2130
    141  OG        30.0860    1.1980   15.4200 O.3   218  SER218     -0.2179
    142  N         28.2600    4.0750   16.0810 N.am  219  TRP219     -0.1959
    143  CA        28.0370    4.7560   17.3480 C.3   219  TRP219      0.1771
    144  C         28.0960    6.2760   17.1900 C.2   219  TRP219      0.2620
    145  O         28.4220    6.7810   16.1170 O.2   219  TRP219     -0.2715
    146  CB        28.9770    4.2150   18.4740 C.3   219  TRP219      0.0590
    147  CG        30.4480    4.4310   18.2500 C.ar  219  TRP219      0.0006
    148  CD1       31.3000    3.6230   17.5490 C.ar  219  TRP219      0.0946
    149  CD2       31.2480    5.5220   18.7530 C.ar  219  TRP219      0.0152
    150  NE1       32.5710    4.1590   17.5500 N.ar  219  TRP219     -0.2442
    151  CE2       32.5670    5.3290   18.2740 C.ar  219  TRP219      0.0810
    152  CE3       30.9720    6.6600   19.5350 C.ar  219  TRP219      0.0012
    153  CZ2       33.6030    6.2410   18.5420 C.ar  219  TRP219      0.0191
    154  CZ3       32.0010    7.5540   19.8080 C.ar  219  TRP219      0.0001
    155  CH2       33.2930    7.3490   19.3020 C.ar  219  TRP219      0.0015
    156  N         27.7040    6.9720   18.2450 N.am  220  GLY220     -0.1940
    157  CA        27.6700    8.4200   18.3170 C.3   220  GLY220      0.2014
    158  C         27.1330    8.8150   19.6640 C.2   220  GLY220      0.2639
    159  O         26.4530    8.0250   20.3050 O.2   220  GLY220     -0.2714
    160  N         27.4630   10.0180   20.1120 N.am  221  GLU221     -0.1963
    161  CA        27.0070   10.5530   21.3980 C.3   221  GLU221      0.1733
    162  C         25.8170   11.4310   21.1280 C.2   221  GLU221      0.2617
    163  O         25.9450   12.4870   20.4940 O.2   221  GLU221     -0.2715
    164  CB        28.1400   11.2850   22.1320 C.3   221  GLU221      0.0429
    165  CG        29.1370   10.3250   22.7430 C.3   221  GLU221      0.1163
    166  CD        30.4490   10.9530   23.1730 C.2   221  GLU221      0.3649
    167  OE1       30.7970   12.0500   22.6760 O.co2 221  GLU221     -0.2457
    168  OE2       31.1630   10.3080   23.9720 O.co2 221  GLU221     -0.2457
    169  N         24.6570   10.9070   21.5140 N.am  222  GLY222     -0.1940
    170  CA        23.3550   11.4740   21.2060 C.3   222  GLY222      0.2014
    171  C         23.0830   11.3150   19.7190 C.2   222  GLY222      0.2639
    172  O         23.6520   10.4300   19.0700 O.2   222  GLY222     -0.2714
    173  N         22.2450   12.1870   19.1630 N.am  223  CYS223     -0.1967
    174  CA        21.9670   12.2730   17.7290 C.3   223  CYS223      0.1712
    175  C         21.9830   13.7390   17.3650 C.2   223  CYS223      0.2296
    176  O         21.3510   14.5360   18.0470 O.2   223  CYS223     -0.2864
    177  CB        20.6320   11.6300   17.3510 C.3   223  CYS223      0.0983
    178  SG        20.4230    9.9330   17.9460 S.3   223  CYS223     -0.0798
    179  N         29.9700   13.9130   16.2960 N.3   229  TYR229     -0.1227
    180  CA        29.9320   13.2730   14.9720 C.3   229  TYR229      0.1736
    181  C         29.5060   11.7970   15.0260 C.2   229  TYR229      0.2596
    182  O         29.7970   11.1060   15.9940 O.2   229  TYR229     -0.2718
    183  CB        31.3040   13.4280   14.2610 C.3   229  TYR229      0.0548
    184  CG        31.7470   14.8720   14.1470 C.ar  229  TYR229     -0.0200
    185  CD1       31.2850   15.6850   13.1180 C.ar  229  TYR229     -0.0009
    186  CD2       32.5530   15.4550   15.1240 C.ar  229  TYR229     -0.0009
    187  CE1       31.6090   17.0400   13.0640 C.ar  229  TYR229      0.0417
    188  CE2       32.8810   16.8090   15.0810 C.ar  229  TYR229      0.0417
    189  CZ        32.4160   17.5960   14.0420 C.ar  229  TYR229      0.1957
    190  OH        32.7590   18.9270   13.9860 O.3   229  TYR229     -0.2866
    191  N         28.8630   11.3170   13.9730 N.am  230  GLY230     -0.1942
    192  CA        28.4970    9.9070   13.8930 C.3   230  GLY230      0.2014
    193  C         29.7200    9.0780   13.5430 C.2   230  GLY230      0.2639
    194  O         30.5260    9.4990   12.7100 O.2   230  GLY230     -0.2714
    195  N         29.9240    7.9430   14.2280 N.am  231  PHE231     -0.1959
    196  CA        31.0620    7.0680   13.9710 C.3   231  PHE231      0.1771
    197  C         30.6330    5.8490   13.1760 C.2   231  PHE231      0.2619
    198  O         29.5710    5.2570   13.4190 O.2   231  PHE231     -0.2715
    199  CB        31.8040    6.7150   15.2550 C.3   231  PHE231      0.0574
    200  CG        32.7400    7.8340   15.6860 C.ar  231  PHE231     -0.0200
    201  CD1       32.2470    8.9680   16.3380 C.ar  231  PHE231     -0.0042
    202  CD2       34.0880    7.8020   15.3520 C.ar  231  PHE231     -0.0042
    203  CE1       33.1050   10.0080   16.7130 C.ar  231  PHE231     -0.0003
    204  CE2       34.9360    8.8510   15.7050 C.ar  231  PHE231     -0.0003
    205  CZ        34.4470    9.9290   16.4180 C.ar  231  PHE231     -0.0000
    206  N         31.4280    5.5390   12.1590 N.am  232  TYR232     -0.1974
    207  CA        31.1370    4.4910   11.2080 C.3   232  TYR232      0.1639
    208  C         32.2390    3.4380   11.1180 C.2   232  TYR232      0.2290
    209  O         33.4220    3.7760   11.1070 O.2   232  TYR232     -0.2864
    210  CB        30.8480    5.1250    9.8300 C.3   232  TYR232      0.0560
    211  CG        29.6900    6.1090    9.8450 C.ar  232  TYR232     -0.0198
    212  CD1       29.8940    7.4600   10.1480 C.ar  232  TYR232     -0.0009
    213  CD2       28.4060    5.7080    9.4950 C.ar  232  TYR232     -0.0009
    214  CE1       28.8320    8.3650   10.1730 C.ar  232  TYR232      0.0417
    215  CE2       27.3380    6.6050    9.5090 C.ar  232  TYR232      0.0417
    216  CZ        27.5510    7.9270    9.8680 C.ar  232  TYR232      0.1957
    217  OH        26.4810    8.7950    9.8950 O.3   232  TYR232     -0.2866
@<TRIPOS>BOND
     1   213   215   ar
     2   213   211   ar
     3   215   216   ar
     4   135   133    1
     5   210   211    1
     6   210   207    1
     7   211   212   ar
     8   216   217    1
     9   216   214   ar
    10   129   130    1
    11   212   214   ar
    12   133   130    1
    13   133   134    1
    14    95    96    1
    15   130   131    1
    16   209   208    2
    17   208   207    1
    18   207   206    1
    19    98    97    2
    20    97    96    1
    21    97   103   am
    22   107   104    1
    23    96    99    1
    24   103   104    1
    25   104   105    1
    26   206   197   am
    27   126   125    2
    28   131   132    2
    29   131   136   am
    30   125   124    1
    31   194   193    2
    32   187   185   ar
    33   187   189   ar
    34   185   184   ar
    35   101   100   ar
    36   123   124    1
    37    99   100    1
    38   197   198    2
    39   197   196    1
    40   136   137    1
    41   124   127    1
    42   105   108   am
    43   105   106    2
    44   193   192    1
    45   193   195   am
    46   100   102   ar
    47   192   191    1
    48   108   109    1
    49   196   195    1
    50   196   199    1
    51   191   181   am
    52   190   189    1
    53   189   188   ar
    54   184   183    1
    55   184   186   ar
    56   183   180    1
    57   140   137    1
    58   140   141    1
    59   137   138    1
    60   127   128    1
    61   111   110    2
    62   180   181    1
    63   180   179    1
    64   181   182    2
    65   188   186   ar
    66   199   200    1
    67   109   112    1
    68   109   110    1
    69   202   200   ar
    70   202   204   ar
    71   112   113    1
    72   110   114   am
    73   200   201   ar
    74   204   205   ar
    75   138   142   am
    76   138   139    2
    77   117   116    2
    78   142   143    1
    79   145   144    2
    80   116   115    1
    81   201   203   ar
    82   205   203   ar
    83     9     7   ar
    84     9    10   ar
    85     7     6   ar
    86   114   115    1
    87     1     2    1
    88   113   178    1
    89   144   143    1
    90   144   156   am
    91    82    81    2
    92   115   118    1
    93   143   146    1
    94   177   174    1
    95   177   178    1
    96   175   174    1
    97   175   176    2
    98    10     8   ar
    99   148   150   ar
   100   148   147   ar
   101   150   151   ar
   102   174   173    1
   103     6     8   ar
   104     6     5    1
   105     3     2    1
   106     3     4    2
   107     2     5    1
   108   156   157    1
   109   147   146    1
   110   147   149   ar
   111   151   153   ar
   112   151   149   ar
   113   157   158    1
   114    81    80    1
   115   153   155   ar
   116   118   119    1
   117   149   152   ar
   118    83    80    1
   119    83    84    1
   120   172   171    2
   121   173   171   am
   122   155   154   ar
   123    85    84    1
   124    80    79    1
   125   152   154   ar
   126   158   160   am
   127   158   159    2
   128   171   170    1
   129   119   120    1
   130    74    73    2
   131   121   120   ar
   132    84    86    1
   133   160   161    1
   134   120   122   ar
   135   163   162    2
   136    79    73   am
   137    78    76   am
   138    73    72    1
   139   162   161    1
   140   162   169   am
   141    76    77    2
   142    76    75    1
   143   170   169    1
   144   161   164    1
   145    75    72    1
   146    93    91    1
   147    90    89    2
   148    72    71    1
   149   164   165    1
   150    11    12    1
   151    37    38    1
   152   167   166   ar
   153    89    88    1
   154    15    12    1
   155    15    16    1
   156   165   166    1
   157    91    88    1
   158    91    92    1
   159    38    41    1
   160    38    39    1
   161    71    64   am
   162    41    42    1
   163    12    13    1
   164    17    16   ar
   165    17    19   ar
   166    43    42   ar
   167    43    45   ar
   168   166   168   ar
   169    16    18   ar
   170    94    92    1
   171    88    87    1
   172    35    36   ar
   173    35    33   ar
   174    42    44   ar
   175    19    21   ar
   176    45    46   ar
   177    36    34   ar
   178    39    40    2
   179    39    51   am
   180    18    20   ar
   181    33    30   ar
   182    64    65    2
   183    64    63    1
   184    13    14    2
   185    21    20   ar
   186    21    22    1
   187    51    52    1
   188    69    68   ar
   189    70    68   ar
   190    66    63    1
   191    66    67    1
   192    44    46   ar
   193    44    47   ar
   194    68    67    1
   195    62    63    1
   196    62    53   am
   197    46    48   ar
   198    34    32   ar
   199    30    32   ar
   200    30    28   ar
   201    60    59    1
   202    32    31   ar
   203    52    53    1
   204    52    55    1
   205    53    54    2
   206    47    49   ar
   207    27    28    1
   208    27    24    1
   209    55    56    1
   210    28    29   ar
   211    48    50   ar
   212    59    61    1
   213    59    58    2
   214    26    25    2
   215    31    29   ar
   216    25    24    1
   217    24    23    1
   218    49    50   ar
   219    57    56    1
   220    57    58    1
