@<TRIPOS>MOLECULE
tmp/3tu7B00.pdb
 168 159 0 0 0
SMALL
GASTEIGER

@<TRIPOS>ATOM
      1  N         16.2300   -4.5310    6.3870 N.3    17  MET17      -0.1245
      2  CA        15.6750   -4.3220    7.7090 C.3    17  MET17       0.1570
      3  C         15.9040   -5.6010    8.5260 C.2    17  MET17       0.2261
      4  O         15.5180   -6.6990    8.1110 O.2    17  MET17      -0.2867
      5  CB        14.1730   -3.9490    7.6300 C.3    17  MET17       0.0387
      6  CG        13.5120   -3.7400    9.0050 C.3    17  MET17       0.0595
      7  SD        11.7390   -3.3460    9.0090 S.3    17  MET17      -0.1393
      8  CE        11.7520   -1.7330    8.1710 C.3    17  MET17       0.0692
      9  N         14.6440   -7.4490   11.5190 N.3    19  PHE19      -0.1241
     10  CA        13.3380   -7.5050   12.1640 C.3    19  PHE19       0.1605
     11  C         13.2440   -8.6520   13.1320 C.2    19  PHE19       0.2264
     12  O         13.5560   -9.7870   12.7740 O.2    19  PHE19      -0.2867
     13  CB        12.2550   -7.6300   11.0740 C.3    19  PHE19       0.0534
     14  CG        10.8420   -7.3850   11.5260 C.ar   19  PHE19      -0.0203
     15  CD1       10.3500   -6.0860   11.6540 C.ar   19  PHE19      -0.0042
     16  CD2        9.9840   -8.4530   11.7890 C.ar   19  PHE19      -0.0042
     17  CE1        9.0330   -5.8620   12.0730 C.ar   19  PHE19      -0.0003
     18  CE2        8.6680   -8.2340   12.2000 C.ar   19  PHE19      -0.0003
     19  CZ         8.1950   -6.9410   12.3320 C.ar   19  PHE19      -0.0000
     20  N         11.2960  -11.4020   15.4580 N.3    21  LYS21      -0.1245
     21  CA        10.0790  -12.2410   15.4050 C.3    21  LYS21       0.1561
     22  C          9.1530  -11.9510   16.6040 C.2    21  LYS21       0.2260
     23  O          8.0070  -11.5620   16.4060 O.2    21  LYS21      -0.2867
     24  CB        10.4300  -13.7440   15.4030 C.3    21  LYS21       0.0271
     25  CG        10.8320  -14.2870   14.0500 C.3    21  LYS21       0.0035
     26  CD        11.5530  -15.6110   14.2200 C.3    21  LYS21       0.0206
     27  CE        11.6760  -16.4090   12.9470 C.3    21  LYS21       0.1093
     28  NZ        12.7540  -17.4220   13.0510 N.3    21  LYS21      -0.1314
     29  N          7.4120   -8.4100   17.5420 N.3    24  GLN24      -0.1231
     30  CA         7.5530   -7.9460   16.1800 C.3    24  GLN24       0.1698
     31  C          7.9940   -6.4880   16.2240 C.2    24  GLN24       0.2592
     32  O          7.1640   -5.6020   16.4350 O.2    24  GLN24      -0.2718
     33  CB         6.2200   -8.0920   15.4250 C.3    24  GLN24       0.0381
     34  CG         5.8270   -9.5340   15.0870 C.3    24  GLN24       0.0905
     35  CD         5.0400   -9.6780   13.7950 C.2    24  GLN24       0.2608
     36  OE1        4.6530   -8.7030   13.1270 O.2    24  GLN24      -0.2717
     37  NE2        4.7940  -10.9200   13.4100 N.am   24  GLN24      -0.0878
     38  N          9.3120   -6.2430   16.0480 N.am   25  GLU25      -0.1966
     39  CA         9.8960   -4.8930   16.0660 C.3    25  GLU25       0.1733
     40  C         11.1440   -4.7220   15.1590 C.2    25  GLU25       0.2616
     41  O         11.7780   -5.7090   14.7610 O.2    25  GLU25      -0.2715
     42  CB        10.1920   -4.4510   17.5200 C.3    25  GLU25       0.0429
     43  CG        11.1570   -5.3620   18.2700 C.3    25  GLU25       0.1163
     44  CD        11.5370   -4.9920   19.6950 C.2    25  GLU25       0.3649
     45  OE1       10.8840   -4.1160   20.3100 O.co2  25  GLU25      -0.2457
     46  OE2       12.5180   -5.5880   20.1940 O.co2  25  GLU25      -0.2457
     47  N         11.4690   -3.4510   14.8190 N.am   26  LEU26      -0.1977
     48  CA        12.6720   -3.1160   14.0550 C.3    26  LEU26       0.1596
     49  C         13.8660   -3.2040   15.0270 C.2    26  LEU26       0.2287
     50  O         13.8430   -2.5820   16.0940 O.2    26  LEU26      -0.2864
     51  CB        12.6060   -1.7070   13.4030 C.3    26  LEU26       0.0297
     52  CG        13.9650   -1.0610   12.9620 C.3    26  LEU26       0.0022
     53  CD1       14.5000   -1.6950   11.7010 C.3    26  LEU26       0.0001
     54  CD2       13.8300    0.4460   12.7040 C.3    26  LEU26       0.0001
     55  N         14.4360  -12.1200   11.3570 N.3    60  LEU60      -0.1245
     56  CA        14.2490  -12.1930    9.9140 C.3    60  LEU60       0.1561
     57  C         14.8930  -10.9480    9.3080 C.2    60  LEU60       0.2260
     58  O         15.1320   -9.9490   10.0030 O.2    60  LEU60      -0.2867
     59  CB        12.7560  -12.2770    9.5310 C.3    60  LEU60       0.0270
     60  CG        11.9540  -13.4550   10.1090 C.3    60  LEU60       0.0019
     61  CD1       10.5060  -13.1200   10.2290 C.3    60  LEU60       0.0001
     62  CD2       12.1320  -14.7070    9.2790 C.3    60  LEU60       0.0001
     63  N         14.3380   -8.3520    6.0040 N.3    62  ARG62      -0.1245
     64  CA        13.3210   -7.7960    5.0990 C.3    62  ARG62       0.1563
     65  C         13.9940   -6.8160    4.1390 C.2    62  ARG62       0.2260
     66  O         14.5040   -5.7540    4.5350 O.2    62  ARG62      -0.2867
     67  CB        12.1710   -7.1550    5.9070 C.3    62  ARG62       0.0307
     68  CG        11.4740   -8.1430    6.8330 C.3    62  ARG62       0.0489
     69  CD        10.4820   -7.4710    7.7610 C.3    62  ARG62       0.2205
     70  NE         9.2790   -7.0940    7.0310 N.pl3  62  ARG62      -0.0865
     71  CZ         8.2580   -6.4130    7.5340 C.cat  62  ARG62       0.5346
     72  NH1        8.2510   -6.0550    8.8140 N.pl3  62  ARG62       0.1354
     73  NH2        7.2290   -6.0950    6.7660 N.pl3  62  ARG62       0.1354
     74  N          8.1970    1.7110    6.6560 N.3    68  ARG68      -0.1231
     75  CA         8.7440    1.0970    7.8640 C.3    68  ARG68       0.1694
     76  C          7.8150   -0.0340    8.3900 C.2    68  ARG68       0.2593
     77  O          8.2830   -1.1090    8.7660 O.2    68  ARG68      -0.2718
     78  CB         8.8870    2.1690    8.9560 C.3    68  ARG68       0.0321
     79  CG         9.5100    1.6390   10.2250 C.3    68  ARG68       0.0489
     80  CD         9.8210    2.7410   11.2140 C.3    68  ARG68       0.2205
     81  NE         8.6200    3.5000   11.5470 N.pl3  68  ARG68      -0.0865
     82  CZ         7.7650    3.1780   12.5140 C.cat  68  ARG68       0.5346
     83  NH1        7.9820    2.1120   13.2790 N.pl3  68  ARG68       0.1354
     84  NH2        6.6790    3.9110   12.7140 N.pl3  68  ARG68       0.1354
     85  N          6.5070    0.2470    8.4410 N.am   69  THR69      -0.1939
     86  CA         5.4770   -0.5690    9.0960 C.3    69  THR69       0.2028
     87  C          4.6950   -1.5600    8.2300 C.2    69  THR69       0.2642
     88  O          4.3820   -2.6600    8.6930 O.2    69  THR69      -0.2714
     89  CB         4.5730    0.3530    9.9560 C.3    69  THR69       0.1808
     90  OG1        4.1260    1.4200    9.1260 O.3    69  THR69      -0.2208
     91  CG2        5.3280    0.9950   11.1220 C.3    69  THR69       0.0379
     92  N          4.3690   -1.1690    6.9930 N.am   70  ARG70      -0.1963
     93  CA         3.6090   -2.0070    6.0820 C.3    70  ARG70       0.1729
     94  C          4.3060   -3.3010    5.6730 C.2    70  ARG70       0.2616
     95  O          5.5320   -3.3310    5.4540 O.2    70  ARG70      -0.2715
     96  CB         3.2300   -1.2200    4.8070 C.3    70  ARG70       0.0348
     97  CG         1.9670   -0.4340    4.9910 C.3    70  ARG70       0.0492
     98  CD         2.0090    0.9310    4.3640 C.3    70  ARG70       0.2205
     99  NE         1.6250    0.9120    2.9620 N.pl3  70  ARG70      -0.0865
    100  CZ         0.6920    1.6900    2.4240 C.cat  70  ARG70       0.5346
    101  NH1        0.0230    2.5570    3.1750 N.pl3  70  ARG70       0.1354
    102  NH2        0.4240    1.6110    1.1360 N.pl3  70  ARG70       0.1354
    103  N          3.4930   -4.3710    5.5200 N.am   71  TYR71      -0.1974
    104  CA         3.9460   -5.6020    4.8990 C.3    71  TYR71       0.1639
    105  C          3.7310   -5.3390    3.3830 C.2    71  TYR71       0.2290
    106  O          2.6080   -5.4010    2.8840 O.2    71  TYR71      -0.2864
    107  CB         3.1790   -6.8440    5.3740 C.3    71  TYR71       0.0560
    108  CG         3.5420   -8.0440    4.5280 C.ar   71  TYR71      -0.0198
    109  CD1        4.8690   -8.4420    4.3860 C.ar   71  TYR71      -0.0009
    110  CD2        2.5850   -8.6850    3.7500 C.ar   71  TYR71      -0.0009
    111  CE1        5.2280   -9.4780    3.5300 C.ar   71  TYR71       0.0417
    112  CE2        2.9290   -9.7330    2.8980 C.ar   71  TYR71       0.0417
    113  CZ         4.2570  -10.1160    2.7820 C.ar   71  TYR71       0.1957
    114  OH         4.6160  -11.1610    1.9820 O.3    71  TYR71      -0.2866
    115  N          3.6850   -6.5240    0.3040 N.3    73  ARG73      -0.1245
    116  CA         3.4030   -7.8080   -0.3680 C.3    73  ARG73       0.1563
    117  C          4.2260   -8.2570   -1.5870 C.2    73  ARG73       0.2260
    118  O          5.0180   -9.1980   -1.4420 O.2    73  ARG73      -0.2867
    119  CB         1.9070   -8.1090   -0.5060 C.3    73  ARG73       0.0307
    120  CG         1.6130   -9.6120   -0.5490 C.3    73  ARG73       0.0489
    121  CD         0.1410   -9.9590   -0.3530 C.3    73  ARG73       0.2205
    122  NE        -0.2330  -10.1150    1.0590 N.pl3  73  ARG73      -0.0865
    123  CZ        -0.1120  -11.2470    1.7540 C.cat  73  ARG73       0.5346
    124  NH1        0.3950  -12.3360    1.1840 N.pl3  73  ARG73       0.1354
    125  NH2       -0.4830  -11.2920    3.0300 N.pl3  73  ARG73       0.1354
    126  N          8.5670   -6.3330   -1.0230 N.3    76  GLU76      -0.1231
    127  CA         9.5280   -6.8280   -0.0540 C.3    76  GLU76       0.1699
    128  C          9.6800   -8.3430   -0.1340 C.2    76  GLU76       0.2592
    129  O          8.8100   -9.0090   -0.6810 O.2    76  GLU76      -0.2718
    130  CB         9.2600   -6.3050    1.3740 C.3    76  GLU76       0.0402
    131  CG         8.2130   -7.0560    2.1810 C.3    76  GLU76       0.1161
    132  CD         8.2160   -6.6520    3.6360 C.2    76  GLU76       0.3649
    133  OE1        7.4740   -5.7140    4.0110 O.co2  76  GLU76      -0.2457
    134  OE2        9.0040   -7.2500    4.3980 O.co2  76  GLU76      -0.2457
    135  N         10.8240   -8.8640    0.3590 N.am   77  LYS77      -0.1966
    136  CA        11.1310  -10.2940    0.4120 C.3    77  LYS77       0.1728
    137  C         11.6850  -10.5560    1.7980 C.2    77  LYS77       0.2616
    138  O         12.4390   -9.7320    2.3140 O.2    77  LYS77      -0.2715
    139  CB        12.0880  -10.7160   -0.7230 C.3    77  LYS77       0.0311
    140  CG        11.4690  -11.7040   -1.7280 C.3    77  LYS77       0.0038
    141  CD        10.4830  -11.0510   -2.7100 C.3    77  LYS77       0.0206
    142  CE         9.2900  -11.9290   -3.0560 C.3    77  LYS77       0.1093
    143  NZ         8.1660  -11.1490   -3.6680 N.3    77  LYS77      -0.1314
    144  N         11.2110  -11.6210    2.4520 N.am   78  ILE78      -0.1977
    145  CA        11.5900  -11.9530    3.8320 C.3    78  ILE78       0.1596
    146  C         12.4730  -13.1910    3.8290 C.2    78  ILE78       0.2287
    147  O         12.1260  -14.2080    3.2210 O.2    78  ILE78      -0.2864
    148  CB        10.3460  -12.0320    4.8110 C.3    78  ILE78       0.0276
    149  CG1        9.4820  -10.7380    4.7160 C.3    78  ILE78       0.0022
    150  CG2       10.7800  -12.3190    6.2880 C.3    78  ILE78       0.0022
    151  CD1        8.1360  -10.7650    5.4250 C.3    78  ILE78       0.0001
    152  N         15.1750  -15.9700    6.0110 N.3    80  MET80      -0.1245
    153  CA        15.6260  -16.5910    7.2460 C.3    80  MET80       0.1570
    154  C         17.1630  -16.5990    7.2170 C.2    80  MET80       0.2261
    155  O         17.7640  -16.6360    6.1390 O.2    80  MET80      -0.2867
    156  CB        15.0720  -18.0200    7.3820 C.3    80  MET80       0.0387
    157  CG        13.5410  -18.0810    7.4470 C.3    80  MET80       0.0595
    158  SD        12.9580  -19.6890    8.0650 S.3    80  MET80      -0.1393
    159  CE        12.9140  -20.6210    6.5890 C.3    80  MET80       0.0692
    160  N          9.4210    8.3640   14.8810 N.3   148  GLN148     -0.1245
    161  CA         9.5760    7.1950   14.0190 C.3   148  GLN148      0.1566
    162  C          9.0960    7.5870   12.6230 C.2   148  GLN148      0.2260
    163  O          8.0070    8.1110   12.5390 O.2   148  GLN148     -0.2867
    164  CB         8.6900    6.0560   14.5370 C.3   148  GLN148      0.0367
    165  CG         8.7800    5.8110   16.0400 C.3   148  GLN148      0.0905
    166  CD         9.8310    4.7870   16.3270 C.2   148  GLN148      0.2608
    167  OE1       11.0280    5.1030   16.4290 O.2   148  GLN148     -0.2717
    168  NE2        9.4060    3.5270   16.4010 N.am  148  GLN148     -0.0878
@<TRIPOS>BOND
     1   143   142    1
     2   142   141    1
     3   141   140    1
     4   140   139    1
     5   117   118    2
     6   117   116    1
     7   126   127    1
     8   139   136    1
     9   129   128    2
    10   120   119    1
    11   120   121    1
    12   119   116    1
    13   116   115    1
    14   121   122    1
    15   128   127    1
    16   128   135   am
    17   127   130    1
    18   135   136    1
    19   136   137    1
    20   122   123    2
    21   102   100    1
    22   124   123    1
    23   130   131    1
    24   123   125    1
    25   137   138    2
    26   137   144   am
    27   114   113    1
    28   131   132    1
    29   100    99    2
    30   100   101    1
    31   144   145    1
    32   113   112   ar
    33   113   111   ar
    34   106   105    2
    35   112   110   ar
    36    99    98    1
    37   147   146    2
    38   105   104    1
    39   111   109   ar
    40   132   133   ar
    41   132   134   ar
    42   110   108   ar
    43   146   145    1
    44   145   148    1
    45    65    66    2
    46    65    64    1
    47    98    97    1
    48   109   108   ar
    49   108   107    1
    50   149   148    1
    51   149   151    1
    52    96    97    1
    53    96    93    1
    54   148   150    1
    55   104   107    1
    56   104   103    1
    57    64    67    1
    58    64    63    1
    59    95    94    2
    60   103    94   am
    61    94    93    1
    62    67    68    1
    63   152   153    1
    64    93    92    1
    65   155   154    2
    66     1     2    1
    67   159   158    1
    68    74    75    1
    69    73    71    1
    70    68    69    1
    71    92    87   am
    72    70    71    2
    73    70    69    1
    74   154   153    1
    75   153   156    1
    76   156   157    1
    77   157   158    1
    78    71    72    1
    79     5     2    1
    80     5     6    1
    81     2     3    1
    82    75    76    1
    83    75    78    1
    84     4     3    2
    85     8     7    1
    86    87    88    2
    87    87    86    1
    88    76    85   am
    89    76    77    2
    90    85    86    1
    91    78    79    1
    92     6     7    1
    93    86    89    1
    94    90    89    1
    95    62    60    1
    96    57    56    1
    97    57    58    2
    98    59    56    1
    99    59    60    1
   100    56    55    1
   101    89    91    1
   102    60    61    1
   103    79    80    1
   104    13    14    1
   105    13    10    1
   106    80    81    1
   107     9    10    1
   108    14    15   ar
   109    14    16   ar
   110    81    82    2
   111    15    17   ar
   112    53    52    1
   113    16    18   ar
   114    17    19   ar
   115    10    11    1
   116    18    19   ar
   117    82    84    1
   118    82    83    1
   119   163   162    2
   120   162   161    1
   121    54    52    1
   122    12    11    2
   123    27    28    1
   124    27    26    1
   125    52    51    1
   126    36    35    2
   127    51    48    1
   128    37    35   am
   129    35    34    1
   130   161   164    1
   131   161   160    1
   132    25    26    1
   133    25    24    1
   134    48    47    1
   135    48    49    1
   136   164   165    1
   137    41    40    2
   138    47    40   am
   139    49    50    2
   140    34    33    1
   141    40    39    1
   142    24    21    1
   143    21    20    1
   144    21    22    1
   145    33    30    1
   146   165   166    1
   147    38    39    1
   148    38    31   am
   149    39    42    1
   150    30    31    1
   151    30    29    1
   152    31    32    2
   153   166   168   am
   154   166   167    2
   155    23    22    2
   156    42    43    1
   157    43    44    1
   158    44    46   ar
   159    44    45   ar
