@<TRIPOS>MOLECULE
tmp/3tu9A00.pdb
 160 148 0 0 0
SMALL
GASTEIGER

@<TRIPOS>ATOM
      1  N         10.9690  -27.1830   51.3260 N.3    31  ALA31      -0.1245
      2  CA         9.5550  -27.2340   51.6720 C.3    31  ALA31       0.1562
      3  C          9.3780  -27.9720   52.9980 C.2    31  ALA31       0.2260
      4  O          9.3480  -29.2000   53.0370 O.2    31  ALA31      -0.2867
      5  CB         8.7420  -27.9040   50.5530 C.3    31  ALA31       0.0290
      6  N          6.7800  -27.3950   55.0300 N.3    33  ASP33      -0.1225
      7  CA         5.4600  -26.8530   55.3570 C.3    33  ASP33       0.1805
      8  C          4.3780  -27.9270   55.5430 C.2    33  ASP33       0.2598
      9  O          3.1860  -27.6520   55.3760 O.2    33  ASP33      -0.2718
     10  CB         5.0290  -25.8700   54.2650 C.3    33  ASP33       0.1424
     11  CG         4.8470  -26.5510   52.9110 C.2    33  ASP33       0.3668
     12  OD1        5.8420  -27.0930   52.3810 O.co2  33  ASP33      -0.2456
     13  OD2        3.7090  -26.5490   52.3840 O.co2  33  ASP33      -0.2456
     14  N          4.7910  -29.1370   55.9040 N.am   34  GLU34      -0.1965
     15  CA         3.8510  -30.2240   56.1810 C.3    34  GLU34       0.1733
     16  C          2.9080  -29.8370   57.3160 C.2    34  GLU34       0.2617
     17  O          3.3570  -29.4030   58.3850 O.2    34  GLU34      -0.2715
     18  CB         4.5930  -31.5150   56.5670 C.3    34  GLU34       0.0429
     19  CG         5.5310  -32.0560   55.4990 C.3    34  GLU34       0.1163
     20  CD         6.9510  -31.5430   55.6660 C.2    34  GLU34       0.3649
     21  OE1        7.1530  -30.5590   56.4100 O.co2  34  GLU34      -0.2457
     22  OE2        7.8710  -32.1320   55.0740 O.co2  34  GLU34      -0.2457
     23  N          1.6040  -29.9900   57.0840 N.am   35  SER35      -0.1950
     24  CA         0.6040  -29.7260   58.1190 C.3    35  SER35       0.1924
     25  C          0.6740  -30.7550   59.2490 C.2    35  SER35       0.2314
     26  O          1.4150  -31.7300   59.1690 O.2    35  SER35      -0.2863
     27  CB        -0.8060  -29.7040   57.5200 C.3    35  SER35       0.2116
     28  OG        -1.0940  -30.9070   56.8200 O.3    35  SER35      -0.2180
     29  N          0.0220  -34.2210   58.1440 N.3    38  SER38      -0.1217
     30  CA         1.0360  -34.6650   57.1950 C.3    38  SER38       0.1889
     31  C          2.3780  -34.9810   57.8810 C.2    38  SER38       0.2288
     32  O          2.9630  -36.0290   57.6470 O.2    38  SER38      -0.2866
     33  CB         1.2250  -33.6070   56.1070 C.3    38  SER38       0.2089
     34  OG         2.1910  -34.0200   55.1600 O.3    38  SER38      -0.2183
     35  N          4.9400  -38.5510   58.6940 N.3    42  ARG42      -0.1245
     36  CA         6.3830  -38.5530   58.5630 C.3    42  ARG42       0.1563
     37  C          7.0520  -38.9950   59.8610 C.2    42  ARG42       0.2260
     38  O          8.0690  -39.6850   59.8370 O.2    42  ARG42      -0.2867
     39  CB         6.8750  -37.1660   58.1510 C.3    42  ARG42       0.0307
     40  CG         7.6850  -37.1800   56.8670 C.3    42  ARG42       0.0489
     41  CD         6.9340  -36.5780   55.7000 C.3    42  ARG42       0.2205
     42  NE         5.5690  -37.0830   55.5950 N.pl3  42  ARG42      -0.0865
     43  CZ         4.7460  -36.8120   54.5870 C.cat  42  ARG42       0.5346
     44  NH1        5.1490  -36.0420   53.5850 N.pl3  42  ARG42       0.1354
     45  NH2        3.5200  -37.3160   54.5800 N.pl3  42  ARG42       0.1354
     46  N          2.7780  -21.6130   53.7160 N.3   107  LYS107     -0.1245
     47  CA         1.7330  -22.3690   53.0200 C.3   107  LYS107      0.1561
     48  C          0.4150  -21.8600   53.5430 C.2   107  LYS107      0.2260
     49  O          0.2260  -21.7880   54.7460 O.2   107  LYS107     -0.2867
     50  CB         1.8330  -23.8670   53.2860 C.3   107  LYS107      0.0271
     51  CG         0.7810  -24.6910   52.5260 C.3   107  LYS107      0.0035
     52  CD        -0.2150  -25.3250   53.4620 C.3   107  LYS107      0.0206
     53  CE         0.4330  -26.4200   54.2990 C.3   107  LYS107      0.1093
     54  NZ         1.1100  -27.4560   53.4590 N.3   107  LYS107     -0.1314
     55  N         -2.8910  -22.7400   51.8710 N.3   109  ASP109     -0.1239
     56  CA        -4.1020  -23.4960   51.5350 C.3   109  ASP109      0.1674
     57  C         -4.5870  -24.2880   52.7470 C.2   109  ASP109      0.2266
     58  O         -3.8600  -24.4240   53.7290 O.2   109  ASP109     -0.2867
     59  CB        -3.9180  -24.4110   50.3080 C.3   109  ASP109      0.1410
     60  CG        -3.0480  -25.6250   50.5790 C.2   109  ASP109      0.3668
     61  OD1       -3.5190  -26.5910   51.2010 O.co2 109  ASP109     -0.2456
     62  OD2       -1.8960  -25.6380   50.1240 O.co2 109  ASP109     -0.2456
     63  N          2.5150  -20.4850   49.4040 N.3   146  LYS146     -0.1245
     64  CA         2.4000  -21.6870   48.6050 C.3   146  LYS146      0.1561
     65  C          0.9790  -22.2240   48.7270 C.2   146  LYS146      0.2260
     66  O          0.3510  -22.1310   49.7810 O.2   146  LYS146     -0.2867
     67  CB         3.4610  -22.7020   49.0300 C.3   146  LYS146      0.0271
     68  CG         3.3090  -24.0940   48.4370 C.3   146  LYS146      0.0035
     69  CD         2.4050  -24.9280   49.3340 C.3   146  LYS146      0.0206
     70  CE         2.3930  -26.3640   48.9270 C.3   146  LYS146      0.1093
     71  NZ         3.0170  -27.2330   49.9410 N.3   146  LYS146     -0.1314
     72  N         -1.2500  -25.6130   47.1620 N.3   148  ARG148     -0.1245
     73  CA        -1.1980  -26.8840   46.4350 C.3   148  ARG148      0.1563
     74  C         -2.5550  -27.3560   45.8780 C.2   148  ARG148      0.2260
     75  O         -3.4770  -27.6660   46.6270 O.2   148  ARG148     -0.2867
     76  CB        -0.6380  -27.9760   47.3510 C.3   148  ARG148      0.0307
     77  CG        -0.5760  -29.3670   46.6980 C.3   148  ARG148      0.0489
     78  CD         0.1910  -30.3550   47.5840 C.3   148  ARG148      0.2205
     79  NE         0.4200  -31.6490   46.9400 N.pl3 148  ARG148     -0.0865
     80  CZ        -0.1390  -32.7970   47.3240 C.cat 148  ARG148      0.5346
     81  NH1       -0.9770  -32.8330   48.3540 N.pl3 148  ARG148      0.1354
     82  NH2        0.1440  -33.9190   46.6780 N.pl3 148  ARG148      0.1354
     83  N          1.1190  -24.0330   42.6730 N.3   187  GLU187     -0.1245
     84  CA         1.4690  -25.4660   42.5760 C.3   187  GLU187      0.1567
     85  C          0.3060  -26.3180   42.0790 C.2   187  GLU187      0.2260
     86  O         -0.5400  -26.7230   42.8680 O.2   187  GLU187     -0.2867
     87  CB         1.9750  -26.0320   43.9230 C.3   187  GLU187      0.0388
     88  CG         2.3480  -27.5150   43.8430 C.3   187  GLU187      0.1160
     89  CD         2.7360  -28.1740   45.1840 C.2   187  GLU187      0.3649
     90  OE1        2.7970  -27.5050   46.2380 O.co2 187  GLU187     -0.2457
     91  OE2        2.9920  -29.3900   45.1700 O.co2 187  GLU187     -0.2457
     92  N         -0.0900  -29.6730   41.1510 N.3   189  GLU189     -0.1245
     93  CA         0.6200  -30.9470   41.1030 C.3   189  GLU189      0.1567
     94  C         -0.2040  -32.0000   40.3830 C.2   189  GLU189      0.2260
     95  O         -1.3280  -32.3070   40.7770 O.2   189  GLU189     -0.2867
     96  CB         0.9900  -31.4710   42.4920 C.3   189  GLU189      0.0388
     97  CG         1.5110  -32.9040   42.4100 C.3   189  GLU189      0.1160
     98  CD         2.0950  -33.4370   43.7010 C.2   189  GLU189      0.3649
     99  OE1        1.9300  -32.8010   44.7690 O.co2 189  GLU189     -0.2457
    100  OE2        2.7350  -34.5080   43.6340 O.co2 189  GLU189     -0.2457
    101  N          5.2890  -24.1420   40.5650 N.3   229  LYS229     -0.1245
    102  CA         5.7650  -25.3850   41.1720 C.3   229  LYS229      0.1561
    103  C          5.0110  -26.5740   40.5580 C.2   229  LYS229      0.2260
    104  O          4.0120  -27.0170   41.1050 O.2   229  LYS229     -0.2867
    105  CB         5.5330  -25.3450   42.6930 C.3   229  LYS229      0.0271
    106  CG         5.9640  -26.5910   43.4410 C.3   229  LYS229      0.0035
    107  CD         6.1810  -26.3080   44.9420 C.3   229  LYS229      0.0206
    108  CE         6.3330  -27.6010   45.7510 C.3   229  LYS229      0.1093
    109  NZ         6.7410  -27.3400   47.1710 N.3   229  LYS229     -0.1314
    110  N          8.3590  -29.7440   42.4010 N.3   270  LEU270     -0.1231
    111  CA         8.0920  -30.5890   43.5580 C.3   270  LEU270      0.1693
    112  C          8.7440  -31.9380   43.2890 C.2   270  LEU270      0.2593
    113  O          8.9390  -32.2910   42.1370 O.2   270  LEU270     -0.2718
    114  CB         6.5810  -30.7410   43.7680 C.3   270  LEU270      0.0284
    115  CG         5.8040  -31.3090   42.5720 C.3   270  LEU270      0.0019
    116  CD1        5.6440  -32.8220   42.6960 C.3   270  LEU270      0.0001
    117  CD2        4.4460  -30.6090   42.4180 C.3   270  LEU270      0.0001
    118  N          9.0910  -32.6930   44.3320 N.am  271  SER271     -0.1938
    119  CA         9.8280  -33.9430   44.1230 C.3   271  SER271      0.2055
    120  C          8.8680  -35.1140   43.8950 C.2   271  SER271      0.2643
    121  O          9.1970  -36.0710   43.1890 O.2   271  SER271     -0.2714
    122  CB        10.8550  -34.2240   45.2450 C.3   271  SER271      0.2130
    123  OG        10.2770  -34.3020   46.5440 O.3   271  SER271     -0.2179
    124  N          7.6800  -35.0180   44.4800 N.am  272  GLY272     -0.1954
    125  CA         6.5720  -35.8930   44.1250 C.3   272  GLY272      0.1869
    126  C          6.7510  -37.3740   44.3970 C.2   272  GLY272      0.2309
    127  O          6.1270  -38.2030   43.7440 O.2   272  GLY272     -0.2863
    128  N         11.7960  -27.1610   44.7540 N.3   300  SER300     -0.1202
    129  CA        11.0620  -26.8390   45.9680 C.3   300  SER300      0.2020
    130  C         10.7240  -28.1890   46.5580 C.2   300  SER300      0.2619
    131  O          9.6210  -28.7110   46.3740 O.2   300  SER300     -0.2717
    132  CB         9.7960  -26.0340   45.6670 C.3   300  SER300      0.2103
    133  OG         9.1350  -25.6370   46.8630 O.3   300  SER300     -0.2182
    134  N         11.7040  -28.7710   47.2390 N.am  301  TYR301     -0.1961
    135  CA        11.6270  -30.1590   47.6680 C.3   301  TYR301      0.1771
    136  C         11.2480  -30.2850   49.1330 C.2   301  TYR301      0.2620
    137  O         11.7970  -29.5910   50.0000 O.2   301  TYR301     -0.2715
    138  CB        12.9750  -30.8460   47.4570 C.3   301  TYR301      0.0574
    139  CG        13.3290  -31.1130   46.0190 C.ar  301  TYR301     -0.0198
    140  CD1       12.3800  -30.9650   45.0010 C.ar  301  TYR301     -0.0009
    141  CD2       14.6120  -31.5270   45.6710 C.ar  301  TYR301     -0.0009
    142  CE1       12.6990  -31.2210   43.6780 C.ar  301  TYR301      0.0417
    143  CE2       14.9420  -31.7820   44.3460 C.ar  301  TYR301      0.0417
    144  CZ        13.9790  -31.6270   43.3560 C.ar  301  TYR301      0.1957
    145  OH        14.3090  -31.8840   42.0450 O.3   301  TYR301     -0.2866
    146  N         10.3100  -31.1840   49.3970 N.am  302  GLY302     -0.1940
    147  CA        10.0180  -31.6020   50.7490 C.3   302  GLY302      0.2014
    148  C         10.7710  -32.8870   51.0090 C.2   302  GLY302      0.2638
    149  O         11.8600  -32.8830   51.5750 O.2   302  GLY302     -0.2714
    150  N         10.2030  -33.9960   50.5630 N.am  303  ARG303     -0.1977
    151  CA        10.7780  -35.3010   50.8590 C.3   303  ARG303      0.1597
    152  C         12.2100  -35.4540   50.3250 C.2   303  ARG303      0.2287
    153  O         13.0600  -36.0330   50.9930 O.2   303  ARG303     -0.2864
    154  CB         9.8670  -36.4020   50.3080 C.3   303  ARG303      0.0334
    155  CG         8.5000  -36.4520   50.9980 C.3   303  ARG303      0.0492
    156  CD         7.4840  -37.2580   50.2020 C.3   303  ARG303      0.2205
    157  NE         6.9100  -36.4930   49.0900 N.pl3 303  ARG303     -0.0865
    158  CZ         5.8980  -36.9210   48.3400 C.cat 303  ARG303      0.5346
    159  NH1        5.4300  -36.1700   47.3510 N.pl3 303  ARG303      0.1354
    160  NH2        5.3500  -38.1060   48.5750 N.pl3 303  ARG303      0.1354
@<TRIPOS>BOND
     1    94    95    2
     2    94    93    1
     3   103   104    2
     4   103   102    1
     5   101   102    1
     6    93    92    1
     7    93    96    1
     8   102   105    1
     9   145   144    1
    10    85    84    1
    11    85    86    2
    12   113   112    2
    13   110   111    1
    14    97    96    1
    15    97    98    1
    16   117   115    1
    17   115   116    1
    18   115   114    1
    19    84    83    1
    20    84    87    1
    21   105   106    1
    22   121   120    2
    23   112   111    1
    24   112   118   am
    25   144   142   ar
    26   144   143   ar
    27   106   107    1
    28   111   114    1
    29   100    98   ar
    30   142   140   ar
    31    98    99   ar
    32   127   126    2
    33    88    87    1
    34    88    89    1
    35   120   119    1
    36   120   124   am
    37   119   118    1
    38   119   122    1
    39   125   126    1
    40   125   124    1
    41   143   141   ar
    42   128   129    1
    43   107   108    1
    44   140   139   ar
    45    91    89   ar
    46    89    90   ar
    47   122   123    1
    48   132   129    1
    49   132   133    1
    50   141   139   ar
    51   108   109    1
    52    74    73    1
    53    74    75    2
    54   129   130    1
    55   139   138    1
    56   131   130    2
    57    73    72    1
    58    73    76    1
    59   130   134   am
    60    82    80    1
    61    77    76    1
    62    77    78    1
    63    79    80    2
    64    79    78    1
    65   134   135    1
    66    80    81    1
    67   159   158    1
    68   138   135    1
    69   135   136    1
    70   158   160    1
    71   158   157    2
    72    68    67    1
    73    68    69    1
    74    64    65    1
    75    64    67    1
    76    64    63    1
    77    65    66    2
    78    70    69    1
    79    70    71    1
    80   157   156    1
    81   136   146   am
    82   136   137    2
    83   146   147    1
    84    62    60   ar
    85   156   155    1
    86    59    60    1
    87    59    56    1
    88   154   151    1
    89   154   155    1
    90   152   151    1
    91   152   153    2
    92     5     2    1
    93   150   151    1
    94   150   148   am
    95    60    61   ar
    96   147   148    1
    97   148   149    2
    98     1     2    1
    99    56    55    1
   100    56    57    1
   101     2     3    1
   102    12    11   ar
   103    13    11   ar
   104    51    50    1
   105    51    52    1
   106    57    58    2
   107    11    10    1
   108     3     4    2
   109    47    50    1
   110    47    48    1
   111    47    46    1
   112    54    53    1
   113    52    53    1
   114    48    49    2
   115    44    43    1
   116    10     7    1
   117    45    43    1
   118    43    42    2
   119     6     7    1
   120    22    20   ar
   121    34    33    1
   122     7     8    1
   123     9     8    2
   124    19    20    1
   125    19    18    1
   126     8    14   am
   127    42    41    1
   128    20    21   ar
   129    41    40    1
   130    14    15    1
   131    33    30    1
   132    15    18    1
   133    15    16    1
   134    28    27    1
   135    40    39    1
   136    23    16   am
   137    23    24    1
   138    30    31    1
   139    30    29    1
   140    16    17    2
   141    27    24    1
   142    32    31    2
   143    24    25    1
   144    39    36    1
   145    36    35    1
   146    36    37    1
   147    26    25    2
   148    38    37    2
