@<TRIPOS>MOLECULE
tmp/3tubA00.pdb
 208 196 0 0 0
SMALL
GASTEIGER

@<TRIPOS>ATOM
      1  N         19.7710  -12.9580   -2.0250 N.3    16  LEU16      -0.1231
      2  CA        18.6530  -12.2520   -2.6470 C.3    16  LEU16       0.1693
      3  C         18.5110  -12.7950   -4.0450 C.2    16  LEU16       0.2592
      4  O         17.4230  -12.9210   -4.5710 O.2    16  LEU16      -0.2718
      5  CB        18.9510  -10.7500   -2.7430 C.3    16  LEU16       0.0284
      6  CG        19.1120  -10.0140   -1.4200 C.3    16  LEU16       0.0019
      7  CD1       19.5920   -8.5690   -1.6470 C.3    16  LEU16       0.0001
      8  CD2       17.8180  -10.0000   -0.6670 C.3    16  LEU16       0.0001
      9  N         19.6310  -13.0740   -4.6610 N.am   17  GLY17      -0.1957
     10  CA        19.6550  -13.5550   -6.0320 C.3    17  GLY17       0.1869
     11  C         20.8850  -14.3860   -6.2950 C.2    17  GLY17       0.2309
     12  O         21.8380  -14.3800   -5.5090 O.2    17  GLY17      -0.2863
     13  N         24.0800  -12.4360   -4.8450 N.3    24  VAL24      -0.1245
     14  CA        23.8130  -11.1390   -4.2680 C.3    24  VAL24       0.1561
     15  C         23.1950  -11.3310   -2.9160 C.2    24  VAL24       0.2260
     16  O         22.1590  -12.0020   -2.7960 O.2    24  VAL24      -0.2867
     17  CB        22.9140  -10.2630   -5.1810 C.3    24  VAL24       0.0252
     18  CG1       22.7700   -8.8440   -4.6180 C.3    24  VAL24       0.0019
     19  CG2       23.4680  -10.2390   -6.5900 C.3    24  VAL24       0.0019
     20  N         23.7810   -3.9610   -0.9710 N.3    39  ALA39      -0.1245
     21  CA        23.6190   -5.1950   -1.7440 C.3    39  ALA39       0.1562
     22  C         25.0590   -5.5550   -2.1380 C.2    39  ALA39       0.2260
     23  O         25.8350   -4.6850   -2.5260 O.2    39  ALA39      -0.2867
     24  CB        22.7940   -4.9730   -3.0110 C.3    39  ALA39       0.0290
     25  N         27.4950   -8.2060   -4.4070 N.3    41  LYS41      -0.1245
     26  CA        27.6090   -9.2160   -5.4190 C.3    41  LYS41       0.1561
     27  C         28.8840   -9.9860   -5.0880 C.2    41  LYS41       0.2260
     28  O         29.9970   -9.4260   -5.1020 O.2    41  LYS41      -0.2867
     29  CB        27.6900   -8.5300   -6.7950 C.3    41  LYS41       0.0271
     30  CG        27.5750   -9.4390   -8.0110 C.3    41  LYS41       0.0035
     31  CD        27.9200   -8.6240   -9.2410 C.3    41  LYS41       0.0206
     32  CE        28.7120   -9.3920  -10.2760 C.3    41  LYS41       0.1093
     33  NZ        27.8460  -10.1340  -11.2240 N.3    41  LYS41      -0.1314
     34  N         33.4770   -4.3360  -14.2630 N.3    59  GLU59      -0.1245
     35  CA        32.0940   -3.9590  -13.9750 C.3    59  GLU59       0.1567
     36  C         32.0360   -2.8520  -12.9210 C.2    59  GLU59       0.2260
     37  O         31.1850   -1.9690  -12.9960 O.2    59  GLU59      -0.2867
     38  CB        31.3330   -5.2100  -13.4930 C.3    59  GLU59       0.0388
     39  CG        29.9630   -4.9370  -12.8920 C.3    59  GLU59       0.1160
     40  CD        29.2310   -6.1520  -12.3610 C.2    59  GLU59       0.3649
     41  OE1       29.7890   -7.2680  -12.4320 O.co2  59  GLU59      -0.2457
     42  OE2       28.0930   -5.9870  -11.8680 O.co2  59  GLU59      -0.2457
     43  N         32.9890    0.4490  -14.5400 N.3    62  VAL62      -0.1231
     44  CA        31.8830    1.0140  -15.2940 C.3    62  VAL62       0.1692
     45  C         30.9100    1.6650  -14.3050 C.2    62  VAL62       0.2591
     46  O         30.5760    2.8290  -14.4690 O.2    62  VAL62      -0.2718
     47  CB        31.1570   -0.0840  -16.1050 C.3    62  VAL62       0.0266
     48  CG1       29.8560    0.4320  -16.6840 C.3    62  VAL62       0.0020
     49  CG2       32.0510   -0.6820  -17.1900 C.3    62  VAL62       0.0020
     50  N         30.4530    0.9230  -13.2750 N.am   63  MET63      -0.1979
     51  CA        29.5190    1.4750  -12.3050 C.3    63  MET63       0.1605
     52  C         30.0280    2.8390  -11.8500 C.2    63  MET63       0.2287
     53  O         29.2560    3.7700  -11.6680 O.2    63  MET63      -0.2864
     54  CB        29.3810    0.5550  -11.0610 C.3    63  MET63       0.0413
     55  CG        28.8000   -0.8390  -11.3280 C.3    63  MET63       0.0598
     56  SD        27.7170   -1.4270   -9.9700 S.3    63  MET63      -0.1393
     57  CE        27.7230   -0.0280   -8.9600 C.3    63  MET63       0.0692
     58  N         30.0540    6.0500  -14.5780 N.3    66  LEU66      -0.1245
     59  CA        28.7030    5.9130  -15.1250 C.3    66  LEU66       0.1561
     60  C         27.6820    6.4030  -14.0770 C.2    66  LEU66       0.2260
     61  O         26.4910    6.4590  -14.3520 O.2    66  LEU66      -0.2867
     62  CB        28.4410    4.4380  -15.4500 C.3    66  LEU66       0.0270
     63  CG        27.3660    4.1370  -16.4870 C.3    66  LEU66       0.0019
     64  CD1       27.7790    4.6280  -17.8790 C.3    66  LEU66       0.0001
     65  CD2       27.0830    2.6500  -16.5450 C.3    66  LEU66       0.0001
     66  N         20.7520    5.2390  -11.5000 N.3    71  ILE71      -0.1231
     67  CA        21.5270    4.0190  -11.7820 C.3    71  ILE71       0.1692
     68  C         21.9120    3.4460  -10.4020 C.2    71  ILE71       0.2591
     69  O         22.0250    4.2140   -9.4540 O.2    71  ILE71      -0.2718
     70  CB        22.7710    4.3910  -12.7020 C.3    71  ILE71       0.0266
     71  CG1       22.4890    4.0720  -14.1750 C.3    71  ILE71       0.0019
     72  CG2       24.1600    3.8740  -12.2610 C.3    71  ILE71       0.0020
     73  CD1       21.5960    5.0790  -14.7960 C.3    71  ILE71       0.0001
     74  N         22.0330    2.1250  -10.2780 N.am   72  VAL72      -0.1980
     75  CA        22.5100    1.5050   -9.0430 C.3    72  VAL72       0.1595
     76  C         23.9900    1.8700   -8.8960 C.2    72  VAL72       0.2287
     77  O         24.7770    1.5730   -9.7900 O.2    72  VAL72      -0.2864
     78  CB        22.3540   -0.0300   -9.1060 C.3    72  VAL72       0.0276
     79  CG1       23.1520   -0.7080   -7.9840 C.3    72  VAL72       0.0022
     80  CG2       20.8720   -0.4170   -9.0580 C.3    72  VAL72       0.0022
     81  N         27.3090   -2.4530   -3.4510 N.3    87  MET87      -0.1230
     82  CA        26.5180   -1.4050   -4.0610 C.3    87  MET87       0.1702
     83  C         25.3800   -1.0020   -3.1900 C.2    87  MET87       0.2592
     84  O         25.1540   -1.6430   -2.1870 O.2    87  MET87      -0.2718
     85  CB        26.0320   -1.8250   -5.4610 C.3    87  MET87       0.0401
     86  CG        25.1660   -3.0730   -5.4880 C.3    87  MET87       0.0596
     87  SD        25.7580   -4.0690   -6.8910 S.3    87  MET87      -0.1393
     88  CE        27.0620   -2.9990   -7.3890 C.3    87  MET87       0.0692
     89  N         24.6840    0.0790   -3.5480 N.am   88  GLU88      -0.1966
     90  CA        23.5100    0.5750   -2.8360 C.3    88  GLU88       0.1733
     91  C         22.4700   -0.5150   -2.9010 C.2    88  GLU88       0.2616
     92  O         22.3270   -1.1530   -3.9330 O.2    88  GLU88      -0.2715
     93  CB        22.8660    1.7380   -3.6200 C.3    88  GLU88       0.0429
     94  CG        23.6440    3.0280   -3.7010 C.3    88  GLU88       0.1163
     95  CD        22.9820    3.9930   -4.6700 C.2    88  GLU88       0.3649
     96  OE1       22.6440    3.5800   -5.8090 O.co2  88  GLU88      -0.2457
     97  OE2       22.7730    5.1620   -4.2710 O.co2  88  GLU88      -0.2457
     98  N         21.6310   -0.6060   -1.8870 N.am   89  MET89      -0.1963
     99  CA        20.5520   -1.5680   -1.8410 C.3    89  MET89       0.1736
    100  C         19.2630   -0.9610   -2.4330 C.2    89  MET89       0.2616
    101  O         18.8520    0.1390   -2.0660 O.2    89  MET89      -0.2715
    102  CB        20.3470   -1.9660   -0.3620 C.3    89  MET89       0.0427
    103  CG        19.0710   -2.6870   -0.0880 C.3    89  MET89       0.0599
    104  SD        18.9370   -4.1920   -1.0770 S.3    89  MET89      -0.1393
    105  CE        19.8210   -5.3050   -0.0460 C.3    89  MET89       0.0692
    106  N         18.6230   -1.6750   -3.3510 N.am   90  ALA90      -0.1963
    107  CA        17.3700   -1.2130   -3.9220 C.3    90  ALA90       0.1728
    108  C         16.3600   -2.1410   -3.2590 C.2    90  ALA90       0.2616
    109  O         16.0410   -3.1950   -3.7910 O.2    90  ALA90      -0.2715
    110  CB        17.3830   -1.4100   -5.4390 C.3    90  ALA90       0.0334
    111  N         15.9440   -1.7810   -2.0390 N.am   91  GLU91      -0.1977
    112  CA        15.0940   -2.5640   -1.1340 C.3    91  GLU91       0.1602
    113  C         13.9680   -3.3330   -1.7630 C.2    91  GLU91       0.2287
    114  O         13.7880   -4.5150   -1.4470 O.2    91  GLU91      -0.2864
    115  CB        14.5020   -1.6660   -0.0080 C.3    91  GLU91       0.0415
    116  CG        15.5380   -0.8360    0.7260 C.3    91  GLU91       0.1163
    117  CD        16.3630   -1.5630    1.7730 C.2    91  GLU91       0.3649
    118  OE1       16.2540   -2.8070    1.8880 O.co2  91  GLU91      -0.2457
    119  OE2       17.0920   -0.8680    2.5160 O.co2  91  GLU91      -0.2457
    120  N         13.3790   -4.2190   -4.7240 N.3    93  GLY93      -0.1210
    121  CA        13.6880   -5.1290   -5.8140 C.3    93  GLY93       0.1940
    122  C         13.1590   -4.7600   -7.1950 C.2    93  GLY93       0.2453
    123  O         12.8530   -3.6000   -7.4830 O.2    93  GLY93      -0.2732
    124  N         13.1200   -5.7600   -8.0930 N.am   94  PRO94      -0.2728
    125  CA        12.7790   -5.4700   -9.5060 C.3    94  PRO94       0.1401
    126  C         11.3940   -4.9230   -9.7290 C.2    94  PRO94       0.2269
    127  O         10.4550   -5.3790   -9.0820 O.2    94  PRO94      -0.2865
    128  CB        13.0020   -6.8090  -10.2460 C.3    94  PRO94       0.0296
    129  CG        13.7690   -7.6920   -9.2660 C.3    94  PRO94       0.0237
    130  CD        13.4740   -7.1800   -7.8750 C.3    94  PRO94       0.0939
    131  N         23.1220    7.6600  -19.6280 N.3   124  LEU124     -0.1245
    132  CA        23.9990    6.6830  -20.2830 C.3   124  LEU124      0.1561
    133  C         24.1910    7.0770  -21.7210 C.2   124  LEU124      0.2260
    134  O         25.2500    6.8280  -22.2930 O.2   124  LEU124     -0.2867
    135  CB        23.3840    5.2700  -20.2590 C.3   124  LEU124      0.0270
    136  CG        23.0860    4.6790  -18.9070 C.3   124  LEU124      0.0019
    137  CD1       22.7160    3.1990  -19.0440 C.3   124  LEU124      0.0001
    138  CD2       24.2260    4.8890  -17.9650 C.3   124  LEU124      0.0001
    139  N         27.0910    5.2610  -23.6710 N.3   129  PHE129     -0.1241
    140  CA        26.9400    3.9130  -23.1460 C.3   129  PHE129      0.1605
    141  C         25.6470    3.2490  -23.6500 C.2   129  PHE129      0.2264
    142  O         24.5620    3.7740  -23.4310 O.2   129  PHE129     -0.2867
    143  CB        26.8920    3.9440  -21.6030 C.3   129  PHE129      0.0534
    144  CG        26.9570    2.5530  -21.0220 C.ar  129  PHE129     -0.0203
    145  CD1       28.1760    1.9330  -20.7940 C.ar  129  PHE129     -0.0042
    146  CD2       25.8030    1.8370  -20.7650 C.ar  129  PHE129     -0.0042
    147  CE1       28.2350    0.6350  -20.2840 C.ar  129  PHE129     -0.0003
    148  CE2       25.8670    0.5430  -20.2540 C.ar  129  PHE129     -0.0003
    149  CZ        27.0790   -0.0500  -20.0200 C.ar  129  PHE129     -0.0000
    150  N         23.2290    0.1860  -23.0430 N.3   131  HIS131     -0.1241
    151  CA        22.8120   -0.7940  -22.0560 C.3   131  HIS131      0.1621
    152  C         22.6200   -2.1900  -22.7050 C.2   131  HIS131      0.2264
    153  O         23.2400   -3.1680  -22.2750 O.2   131  HIS131     -0.2867
    154  CB        21.5080   -0.3200  -21.3790 C.3   131  HIS131      0.0745
    155  CG        21.1280   -1.1460  -20.1970 C.ar  131  HIS131      0.0817
    156  ND1       20.8610   -2.4970  -20.3240 N.ar  131  HIS131     -0.2268
    157  CD2       21.0340   -0.8000  -18.8920 C.ar  131  HIS131      0.1154
    158  CE1       20.5370   -2.9140  -19.1000 C.ar  131  HIS131      0.1986
    159  NE2       20.6420   -1.9330  -18.2060 N.ar  131  HIS131     -0.2212
    160  N         15.4240   -1.4750  -10.5530 N.3   140  LEU140     -0.1245
    161  CA        15.2500   -1.9250   -9.1800 C.3   140  LEU140      0.1561
    162  C         14.7130   -0.7560   -8.4270 C.2   140  LEU140      0.2260
    163  O         15.1140    0.3580   -8.7290 O.2   140  LEU140     -0.2867
    164  CB        16.6030   -2.4120   -8.6200 C.3   140  LEU140      0.0270
    165  CG        17.2750   -3.5230   -9.4930 C.3   140  LEU140      0.0019
    166  CD1       18.6370   -3.9230   -8.9780 C.3   140  LEU140      0.0001
    167  CD2       16.4010   -4.7440   -9.6110 C.3   140  LEU140      0.0001
    168  N         18.2930    2.1120  -12.5980 N.3   149  ILE149     -0.1231
    169  CA        18.5870    1.1290  -13.6170 C.3   149  ILE149      0.1692
    170  C         19.7640    0.2760  -13.1640 C.2   149  ILE149      0.2593
    171  O         20.7340    0.8010  -12.6570 O.2   149  ILE149     -0.2718
    172  CB        18.9870    1.8930  -14.9130 C.3   149  ILE149      0.0266
    173  CG1       17.8720    2.8700  -15.3460 C.3   149  ILE149      0.0019
    174  CG2       19.4530    0.9340  -16.0180 C.3   149  ILE149      0.0020
    175  CD1       18.2680    3.8700  -16.2710 C.3   149  ILE149      0.0001
    176  N         19.7220   -1.0160  -13.4230 N.am  150  SER150     -0.1938
    177  CA        20.8450   -1.8790  -13.1100 C.3   150  SER150      0.2055
    178  C         21.2150   -2.6310  -14.4140 C.2   150  SER150      0.2643
    179  O         20.4640   -2.5500  -15.3740 O.2   150  SER150     -0.2714
    180  CB        20.4460   -2.8810  -12.0350 C.3   150  SER150      0.2130
    181  OG        19.4730   -3.7730  -12.5480 O.3   150  SER150     -0.2179
    182  N         22.3420   -3.3660  -14.4480 N.am  151  ASP151     -0.1957
    183  CA        22.6520   -4.1710  -15.6390 C.3   151  ASP151      0.1840
    184  C         23.2640   -5.5030  -15.3040 C.2   151  ASP151      0.2622
    185  O         24.4140   -5.7320  -15.6450 O.2   151  ASP151     -0.2715
    186  CB        23.5280   -3.4300  -16.6680 C.3   151  ASP151      0.1450
    187  CG        23.7950   -4.2290  -17.9320 C.2   151  ASP151      0.3671
    188  OD1       24.3760   -3.6490  -18.8960 O.co2 151  ASP151     -0.2456
    189  OD2       23.3980   -5.4220  -17.9770 O.co2 151  ASP151     -0.2456
    190  N         22.4800   -6.3980  -14.7070 N.am  152  PHE152     -0.1974
    191  CA        22.8860   -7.7490  -14.3190 C.3   152  PHE152      0.1639
    192  C         23.7770   -8.4930  -15.3440 C.2   152  PHE152      0.2290
    193  O         24.8110   -9.0510  -14.9760 O.2   152  PHE152     -0.2864
    194  CB        21.6440   -8.5940  -13.9980 C.3   152  PHE152      0.0560
    195  CG        20.8930   -8.2430  -12.7260 C.ar  152  PHE152     -0.0200
    196  CD1       19.7010   -7.5350  -12.7750 C.ar  152  PHE152     -0.0042
    197  CD2       21.3520   -8.6690  -11.4870 C.ar  152  PHE152     -0.0042
    198  CE1       18.9780   -7.2680  -11.6130 C.ar  152  PHE152     -0.0003
    199  CE2       20.6360   -8.3880  -10.3240 C.ar  152  PHE152     -0.0003
    200  CZ        19.4580   -7.6850  -10.3920 C.ar  152  PHE152     -0.0000
    201  N         25.6150   -7.2700  -17.8360 N.3   154  LEU154     -0.1245
    202  CA        26.6030   -6.3850  -18.4590 C.3   154  LEU154      0.1561
    203  C         27.7140   -7.1880  -19.1150 C.2   154  LEU154      0.2260
    204  O         28.3870   -7.9540  -18.4380 O.2   154  LEU154     -0.2867
    205  CB        27.1870   -5.4210  -17.4110 C.3   154  LEU154      0.0270
    206  CG        27.9800   -4.2250  -17.9410 C.3   154  LEU154      0.0019
    207  CD1       29.3670   -4.1620  -17.3090 C.3   154  LEU154      0.0001
    208  CD2       28.0490   -4.2270  -19.4570 C.3   154  LEU154      0.0001
@<TRIPOS>BOND
     1   139   140    1
     2   141   142    2
     3   141   140    1
     4   140   143    1
     5   150   151    1
     6   152   153    2
     7   152   151    1
     8   134   133    2
     9   151   154    1
    10   133   132    1
    11   143   144    1
    12   154   155    1
    13   144   145   ar
    14   144   146   ar
    15   145   147   ar
    16   146   148   ar
    17   156   155   ar
    18   156   158   ar
    19   147   149   ar
    20   132   135    1
    21   132   131    1
    22   135   136    1
    23   148   149   ar
    24   155   157   ar
    25   208   206    1
    26   203   202    1
    27   203   204    2
    28   158   159   ar
    29   137   136    1
    30   136   138    1
    31   188   187   ar
    32   157   159   ar
    33   202   201    1
    34   202   205    1
    35   189   187   ar
    36   206   205    1
    37   206   207    1
    38   187   186    1
    39    64    63    1
    40    49    47    1
    41    48    47    1
    42   186   183    1
    43    65    63    1
    44    63    62    1
    45   175   173    1
    46    47    44    1
    47   174   172    1
    48   185   184    2
    49   183   184    1
    50   183   182    1
    51    62    59    1
    52   179   178    2
    53   173   172    1
    54   192   193    2
    55   192   191    1
    56   184   190   am
    57    44    43    1
    58    44    45    1
    59    59    58    1
    60    59    60    1
    61   172   169    1
    62    73    71    1
    63   190   191    1
    64    46    45    2
    65   182   178   am
    66   178   177    1
    67    61    60    2
    68   191   194    1
    69    45    50   am
    70    34    35    1
    71    71    70    1
    72   194   195    1
    73    35    38    1
    74    35    36    1
    75   169   170    1
    76   169   168    1
    77    38    39    1
    78   176   170   am
    79   176   177    1
    80    50    51    1
    81   170   171    2
    82   177   180    1
    83    37    36    2
    84    39    40    1
    85   196   195   ar
    86   196   198   ar
    87   195   197   ar
    88    70    72    1
    89    70    67    1
    90   181   180    1
    91    41    40   ar
    92    40    42   ar
    93    51    52    1
    94    51    54    1
    95    52    53    2
    96    67    66    1
    97    67    68    1
    98   198   200   ar
    99   197   199   ar
   100    55    54    1
   101    55    56    1
   102    33    32    1
   103   160   161    1
   104    68    74   am
   105    68    69    2
   106   200   199   ar
   107    74    75    1
   108    32    31    1
   109   128   125    1
   110   128   129    1
   111    56    57    1
   112    77    76    2
   113   126   125    1
   114   126   127    2
   115   167   165    1
   116   125   124    1
   117   165   166    1
   118   165   164    1
   119   129   130    1
   120    31    30    1
   121   161   164    1
   122   161   162    1
   123    78    80    1
   124    78    75    1
   125    78    79    1
   126    75    76    1
   127   163   162    2
   128   124   130    1
   129   124   122   am
   130    30    29    1
   131   123   122    2
   132    88    87    1
   133   122   121    1
   134    87    86    1
   135    29    26    1
   136    19    17    1
   137    11    10    1
   138    11    12    2
   139    10     9    1
   140   121   120    1
   141    96    95   ar
   142    86    85    1
   143    85    82    1
   144   110   107    1
   145    26    27    1
   146    26    25    1
   147    17    18    1
   148    17    14    1
   149    28    27    2
   150    13    14    1
   151    95    97   ar
   152    95    94    1
   153     9     3   am
   154     4     3    2
   155    14    15    1
   156    82    81    1
   157    82    83    1
   158     3     2    1
   159    92    91    2
   160   107   106    1
   161   107   108    1
   162   109   108    2
   163    94    93    1
   164    93    90    1
   165    89    83   am
   166    89    90    1
   167   106   100   am
   168   108   111   am
   169    83    84    2
   170    24    21    1
   171    15    16    2
   172    91    90    1
   173    91    98   am
   174     5     2    1
   175     5     6    1
   176     2     1    1
   177    23    22    2
   178   100   101    2
   179   100    99    1
   180    22    21    1
   181   111   112    1
   182    98    99    1
   183    99   102    1
   184   113   114    2
   185   113   112    1
   186    21    20    1
   187     7     6    1
   188     6     8    1
   189   112   115    1
   190   104   103    1
   191   104   105    1
   192   102   103    1
   193   115   116    1
   194   116   117    1
   195   117   118   ar
   196   117   119   ar
