@<TRIPOS>MOLECULE
tmp/3tucA00.pdb
 193 180 0 0 0
SMALL
GASTEIGER

@<TRIPOS>ATOM
      1  N         19.9250  -13.2490   -1.6380 N.3    20  LEU20      -0.1231
      2  CA        18.8270  -12.5150   -2.2930 C.3    20  LEU20       0.1693
      3  C         18.4750  -13.1530   -3.6380 C.2    20  LEU20       0.2592
      4  O         17.3120  -13.1140   -4.0320 O.2    20  LEU20      -0.2718
      5  CB        19.1710  -11.0350   -2.5410 C.3    20  LEU20       0.0284
      6  CG        19.3450  -10.0840   -1.3720 C.3    20  LEU20       0.0019
      7  CD1       19.8990   -8.7380   -1.8630 C.3    20  LEU20       0.0001
      8  CD2       18.0370   -9.8610   -0.6420 C.3    20  LEU20       0.0001
      9  N         19.4930  -13.6980   -4.3260 N.am   21  GLY21      -0.1957
     10  CA        19.3850  -14.3480   -5.6290 C.3    21  GLY21       0.1869
     11  C         20.6910  -14.9600   -6.1020 C.2    21  GLY21       0.2309
     12  O         21.7590  -14.4550   -5.7580 O.2    21  GLY21      -0.2863
     13  N         23.8450  -12.9290   -5.0740 N.3    28  VAL28      -0.1245
     14  CA        23.7010  -11.5910   -4.4780 C.3    28  VAL28       0.1561
     15  C         23.1910  -11.7660   -3.0350 C.2    28  VAL28       0.2260
     16  O         22.1230  -12.3550   -2.8210 O.2    28  VAL28      -0.2867
     17  CB        22.8190  -10.5710   -5.2560 C.3    28  VAL28       0.0252
     18  CG1       22.8370   -9.2090   -4.5540 C.3    28  VAL28       0.0019
     19  CG2       23.2510  -10.4310   -6.7270 C.3    28  VAL28       0.0019
     20  N         23.9220   -4.3810   -1.1080 N.3    43  ALA43      -0.1245
     21  CA        23.6510   -5.6320   -1.7980 C.3    43  ALA43       0.1562
     22  C         25.0310   -6.0310   -2.3180 C.2    43  ALA43       0.2260
     23  O         25.6840   -5.2340   -3.0010 O.2    43  ALA43      -0.2867
     24  CB        22.6980   -5.4260   -2.9600 C.3    43  ALA43       0.0290
     25  N         27.3120   -8.5830   -4.5170 N.3    45  LYS45      -0.1245
     26  CA        27.3630   -9.5870   -5.5740 C.3    45  LYS45       0.1561
     27  C         28.6460  -10.3680   -5.2920 C.2    45  LYS45       0.2260
     28  O         29.6900   -9.7720   -5.0760 O.2    45  LYS45      -0.2867
     29  CB        27.3900   -8.9100   -6.9480 C.3    45  LYS45       0.0271
     30  CG        27.3210   -9.8310   -8.1630 C.3    45  LYS45       0.0035
     31  CD        27.5100   -8.9210   -9.3940 C.3    45  LYS45       0.0206
     32  CE        27.2310   -9.5510  -10.7220 C.3    45  LYS45       0.1093
     33  NZ        27.0110   -8.5240  -11.7750 N.3    45  LYS45      -0.1314
     34  N         37.6050   -7.3530  -13.6110 N.3    60  LEU60      -0.1245
     35  CA        36.9030   -6.7660  -12.4550 C.3    60  LEU60       0.1561
     36  C         37.4880   -5.4350  -12.0240 C.2    60  LEU60       0.2260
     37  O         36.7380   -4.5180  -11.6730 O.2    60  LEU60      -0.2867
     38  CB        36.9160   -7.7290  -11.2500 C.3    60  LEU60       0.0270
     39  CG        35.9870   -8.9420  -11.2630 C.3    60  LEU60       0.0019
     40  CD1       36.0080   -9.6270   -9.8910 C.3    60  LEU60       0.0001
     41  CD2       34.5350   -8.5510  -11.6020 C.3    60  LEU60       0.0001
     42  N         36.7270   -2.6820  -14.5170 N.3    63  GLU63      -0.1231
     43  CA        35.3230   -2.3220  -14.3250 C.3    63  GLU63       0.1699
     44  C         35.1280   -1.4580  -13.0990 C.2    63  GLU63       0.2592
     45  O         34.4460   -0.4490  -13.2010 O.2    63  GLU63      -0.2718
     46  CB        34.4160   -3.5520  -14.2630 C.3    63  GLU63       0.0402
     47  CG        34.2530   -4.2720  -15.5830 C.3    63  GLU63       0.1161
     48  CD        33.3160   -5.4580  -15.4950 C.2    63  GLU63       0.3649
     49  OE1       33.8090   -6.6070  -15.4620 O.co2  63  GLU63      -0.2457
     50  OE2       32.0860   -5.2360  -15.4340 O.co2  63  GLU63      -0.2457
     51  N         35.7350   -1.8400  -11.9510 N.am   64  ALA64      -0.1980
     52  CA        35.6330   -1.1020  -10.6770 C.3    64  ALA64       0.1597
     53  C         36.1360    0.3290  -10.8180 C.2    64  ALA64       0.2287
     54  O         35.5460    1.2510  -10.2560 O.2    64  ALA64      -0.2864
     55  CB        36.4030   -1.8270   -9.5750 C.3    64  ALA64       0.0319
     56  N         33.3690    2.1510  -12.6060 N.3    67  MET67      -0.1245
     57  CA        32.2610    2.2220  -11.6570 C.3    67  MET67       0.1570
     58  C         32.4420    3.3110  -10.6210 C.2    67  MET67       0.2261
     59  O         31.4580    3.9260  -10.2050 O.2    67  MET67      -0.2867
     60  CB        32.0330    0.8460  -10.9710 C.3    67  MET67       0.0387
     61  CG        31.4010   -0.2150  -11.8850 C.3    67  MET67       0.0595
     62  SD        29.7970    0.2670  -12.5860 S.3    67  MET67      -0.1393
     63  CE        28.7000   -0.1800  -11.2500 C.3    67  MET67       0.0692
     64  N         22.3590    1.7420   -9.9800 N.3    76  VAL76      -0.1245
     65  CA        22.7880    1.0170   -8.8000 C.3    76  VAL76       0.1561
     66  C         24.2540    1.3120   -8.7870 C.2    76  VAL76       0.2260
     67  O         24.9590    0.9470   -9.7280 O.2    76  VAL76      -0.2867
     68  CB        22.4690   -0.5070   -8.9130 C.3    76  VAL76       0.0252
     69  CG1       23.1210   -1.3040   -7.7930 C.3    76  VAL76       0.0019
     70  CG2       20.9580   -0.7430   -8.9220 C.3    76  VAL76       0.0019
     71  N         28.2910    1.4140   -7.3400 N.3    78  MET78      -0.1245
     72  CA        29.2700    0.6240   -6.6210 C.3    78  MET78       0.1570
     73  C         29.7000    1.3640   -5.3480 C.2    78  MET78       0.2261
     74  O         30.0130    2.5500   -5.4000 O.2    78  MET78      -0.2867
     75  CB        30.4840    0.3570   -7.5180 C.3    78  MET78       0.0387
     76  CG        31.6040   -0.4250   -6.8150 C.3    78  MET78       0.0595
     77  SD        33.2250   -0.3550   -7.6210 S.3    78  MET78      -0.1393
     78  CE        33.7440    1.3240   -7.1840 C.3    78  MET78       0.0692
     79  N         34.7310   -2.7370   -3.7160 N.3    81  ILE81      -0.1245
     80  CA        35.0480   -4.1210   -4.0170 C.3    81  ILE81       0.1561
     81  C         35.9750   -4.6630   -2.9350 C.2    81  ILE81       0.2260
     82  O         36.7520   -3.9160   -2.3470 O.2    81  ILE81      -0.2867
     83  CB        35.7250   -4.1620   -5.4340 C.3    81  ILE81       0.0252
     84  CG1       35.5780   -5.5190   -6.0960 C.3    81  ILE81       0.0019
     85  CG2       37.2440   -3.6980   -5.4530 C.3    81  ILE81       0.0019
     86  CD1       35.2700   -5.4460   -7.5870 C.3    81  ILE81       0.0001
     87  N         31.4690   -7.5550   -4.8340 N.3    89  LEU89      -0.1245
     88  CA        31.1220   -6.2910   -5.4720 C.3    89  LEU89       0.1561
     89  C         30.0280   -5.6920   -4.5760 C.2    89  LEU89       0.2260
     90  O         28.8890   -6.1770   -4.5300 O.2    89  LEU89      -0.2867
     91  CB        30.5890   -6.5790   -6.9070 C.3    89  LEU89       0.0270
     92  CG        31.5730   -6.9950   -8.0290 C.3    89  LEU89       0.0019
     93  CD1       32.4850   -8.1390   -7.6420 C.3    89  LEU89       0.0001
     94  CD2       30.8410   -7.3900   -9.2800 C.3    89  LEU89       0.0001
     95  N         27.4900   -3.1800   -3.7030 N.3    91  MET91      -0.1230
     96  CA        26.6370   -2.2070   -4.3720 C.3    91  MET91       0.1702
     97  C         25.6170   -1.6400   -3.3960 C.2    91  MET91       0.2592
     98  O         25.3450   -2.2480   -2.3480 O.2    91  MET91      -0.2718
     99  CB        25.8830   -2.8850   -5.5280 C.3    91  MET91       0.0401
    100  CG        26.7270   -3.8590   -6.3550 C.3    91  MET91       0.0596
    101  SD        28.0900   -3.0810   -7.2720 S.3    91  MET91      -0.1393
    102  CE        27.1440   -2.0450   -8.4740 C.3    91  MET91       0.0692
    103  N         24.9840   -0.5140   -3.7930 N.am   92  GLU92      -0.1966
    104  CA        23.8650    0.0890   -3.0710 C.3    92  GLU92       0.1733
    105  C         22.7390   -0.9120   -3.0190 C.2    92  GLU92       0.2616
    106  O         22.5440   -1.6520   -3.9830 O.2    92  GLU92      -0.2715
    107  CB        23.3330    1.3230   -3.8330 C.3    92  GLU92       0.0429
    108  CG        24.3040    2.4860   -3.9140 C.3    92  GLU92       0.1163
    109  CD        23.7140    3.7010   -4.6000 C.2    92  GLU92       0.3649
    110  OE1       23.3320    3.5990   -5.7900 O.co2  92  GLU92      -0.2457
    111  OE2       23.6630    4.7710   -3.9550 O.co2  92  GLU92      -0.2457
    112  N         21.9790   -0.9180   -1.9160 N.am   93  MET93      -0.1963
    113  CA        20.7990   -1.7620   -1.7530 C.3    93  MET93       0.1736
    114  C         19.5620   -1.0440   -2.3080 C.2    93  MET93       0.2616
    115  O         19.3170    0.0800   -1.9370 O.2    93  MET93      -0.2715
    116  CB        20.5550   -2.0600   -0.2530 C.3    93  MET93       0.0427
    117  CG        19.2690   -2.8320    0.0270 C.3    93  MET93       0.0599
    118  SD        19.1740   -4.4250   -0.8360 S.3    93  MET93      -0.1393
    119  CE        20.0110   -5.4670    0.3050 C.3    93  MET93       0.0692
    120  N         18.7380   -1.7320   -3.1090 N.am   94  ALA94      -0.1963
    121  CA        17.4790   -1.1860   -3.5950 C.3    94  ALA94       0.1728
    122  C         16.4470   -2.1180   -2.9810 C.2    94  ALA94       0.2616
    123  O         16.0220   -3.1170   -3.5770 O.2    94  ALA94      -0.2715
    124  CB        17.4370   -1.2010   -5.1150 C.3    94  ALA94       0.0334
    125  N         16.1700   -1.8340   -1.6970 N.am   95  GLU95      -0.1963
    126  CA        15.3210   -2.5950   -0.7740 C.3    95  GLU95       0.1733
    127  C         14.0390   -3.1910   -1.3930 C.2    95  GLU95       0.2616
    128  O         13.7660   -4.3860   -1.2100 O.2    95  GLU95      -0.2715
    129  CB        14.9670   -1.7380    0.4740 C.3    95  GLU95       0.0429
    130  CG        16.1400   -1.0170    1.1390 C.3    95  GLU95       0.1163
    131  CD        16.8730   -1.7170    2.2790 C.2    95  GLU95       0.3649
    132  OE1       16.5040   -2.8630    2.6360 O.co2  95  GLU95      -0.2457
    133  OE2       17.8510   -1.1230    2.7930 O.co2  95  GLU95      -0.2457
    134  N         13.2810   -2.3870   -2.1520 N.am   96  LEU96      -0.1963
    135  CA        12.0060   -2.8720   -2.7130 C.3    96  LEU96       0.1728
    136  C         12.1190   -3.8900   -3.8590 C.2    96  LEU96       0.2617
    137  O         11.1420   -4.5440   -4.1820 O.2    96  LEU96      -0.2715
    138  CB        10.9980   -1.7360   -2.9960 C.3    96  LEU96       0.0311
    139  CG        10.7640   -0.6380   -1.9180 C.3    96  LEU96       0.0022
    140  CD1        9.6110    0.2420   -2.2860 C.3    96  LEU96       0.0001
    141  CD2       10.5120   -1.2110   -0.5170 C.3    96  LEU96       0.0001
    142  N         13.3170   -4.0490   -4.4240 N.am   97  GLY97      -0.1941
    143  CA        13.5710   -5.0180   -5.4870 C.3    97  GLY97       0.1998
    144  C         13.0570   -4.6340   -6.8660 C.2    97  GLY97       0.2480
    145  O         12.7680   -3.4620   -7.1120 O.2    97  GLY97      -0.2729
    146  N         12.9400   -5.6170   -7.7920 N.am   98  PRO98      -0.2726
    147  CA        12.5300   -5.3060   -9.1740 C.3    98  PRO98       0.1402
    148  C         11.1690   -4.6490   -9.3740 C.2    98  PRO98       0.2269
    149  O         10.1660   -5.0750   -8.8190 O.2    98  PRO98      -0.2865
    150  CB        12.6140   -6.6620   -9.8990 C.3    98  PRO98       0.0296
    151  CG        13.5150   -7.4790   -9.0580 C.3    98  PRO98       0.0237
    152  CD        13.2750   -7.0490   -7.6490 C.3    98  PRO98       0.0939
    153  N         15.4590   -1.5160  -10.1500 N.3   144  LEU144     -0.1245
    154  CA        15.2920   -1.8760   -8.7470 C.3   144  LEU144      0.1561
    155  C         14.8450   -0.6580   -7.9540 C.2   144  LEU144      0.2260
    156  O         15.3360    0.4370   -8.1800 O.2   144  LEU144     -0.2867
    157  CB        16.6000   -2.4670   -8.1710 C.3   144  LEU144      0.0270
    158  CG        17.2170   -3.6840   -8.8780 C.3   144  LEU144      0.0019
    159  CD1       18.5320   -4.0370   -8.2580 C.3   144  LEU144      0.0001
    160  CD2       16.3210   -4.8990   -8.8030 C.3   144  LEU144      0.0001
    161  N         19.8120   -1.3850  -12.8650 N.3   154  SER154     -0.1202
    162  CA        20.8520   -2.3550  -12.5400 C.3   154  SER154      0.2020
    163  C         21.3010   -3.1450  -13.7490 C.2   154  SER154      0.2619
    164  O         20.6140   -3.1800  -14.7810 O.2   154  SER154     -0.2717
    165  CB        20.3800   -3.3320  -11.4660 C.3   154  SER154      0.2103
    166  OG        19.3780   -4.2050  -11.9650 O.3   154  SER154     -0.2182
    167  N         22.4530   -3.8220  -13.5860 N.am  155  ASP155     -0.1959
    168  CA        23.0630   -4.7470  -14.5340 C.3   155  ASP155      0.1840
    169  C         23.2830   -4.2170  -15.9280 C.2   155  ASP155      0.2622
    170  O         23.0870   -4.9450  -16.8910 O.2   155  ASP155     -0.2715
    171  CB        22.3180   -6.0920  -14.5510 C.3   155  ASP155      0.1450
    172  CG        22.6910   -7.0160  -13.4230 C.2   155  ASP155      0.3671
    173  OD1       23.7730   -6.8190  -12.8240 O.co2 155  ASP155     -0.2456
    174  OD2       21.9240   -7.9570  -13.1580 O.co2 155  ASP155     -0.2456
    175  N         23.7210   -2.9640  -16.0360 N.am  156  PHE156     -0.1974
    176  CA        24.0140   -2.3690  -17.3350 C.3   156  PHE156      0.1639
    177  C         25.3230   -2.9920  -17.8650 C.2   156  PHE156      0.2290
    178  O         26.2040   -3.3110  -17.0630 O.2   156  PHE156     -0.2864
    179  CB        24.0510   -0.8300  -17.2420 C.3   156  PHE156      0.0560
    180  CG        25.4000   -0.2250  -16.9350 C.ar  156  PHE156     -0.0200
    181  CD1       26.3270    0.0040  -17.9530 C.ar  156  PHE156     -0.0042
    182  CD2       25.7480    0.1090  -15.6300 C.ar  156  PHE156     -0.0042
    183  CE1       27.5820    0.5330  -17.6700 C.ar  156  PHE156     -0.0003
    184  CE2       26.9990    0.6450  -15.3450 C.ar  156  PHE156     -0.0003
    185  CZ        27.9160    0.8420  -16.3680 C.ar  156  PHE156     -0.0000
    186  N         28.3160   -2.1940  -19.5750 N.3   158  LEU158     -0.1245
    187  CA        29.6840   -1.7390  -19.2600 C.3   158  LEU158      0.1561
    188  C         30.7400   -2.1090  -20.3250 C.2   158  LEU158      0.2260
    189  O         31.3760   -3.1660  -20.2730 O.2   158  LEU158     -0.2867
    190  CB        30.1130   -2.1080  -17.8050 C.3   158  LEU158      0.0270
    191  CG        31.4030   -1.4850  -17.2400 C.3   158  LEU158      0.0019
    192  CD1       31.5000   -0.0080  -17.5620 C.3   158  LEU158      0.0001
    193  CD2       31.4800   -1.6680  -15.7420 C.3   158  LEU158      0.0001
@<TRIPOS>BOND
     1   188   189    2
     2   188   187    1
     3   186   187    1
     4   187   190    1
     5   181   183   ar
     6   181   180   ar
     7   177   176    1
     8   177   178    2
     9   190   191    1
    10   183   185   ar
    11   192   191    1
    12   176   179    1
    13   176   175    1
    14   179   180    1
    15   191   193    1
    16   180   182   ar
    17   170   169    2
    18   185   184   ar
    19   175   169   am
    20   169   168    1
    21   182   184   ar
    22    47    48    1
    23    47    46    1
    24    48    49   ar
    25    48    50   ar
    26   164   163    2
    27   171   168    1
    28   171   172    1
    29   168   167    1
    30    42    43    1
    31    43    46    1
    32    43    44    1
    33   163   167   am
    34   163   162    1
    35    34    35    1
    36   172   174   ar
    37   172   173   ar
    38    45    44    2
    39    44    51   am
    40   161   162    1
    41    56    57    1
    42    62    61    1
    43    62    63    1
    44   162   165    1
    45    35    36    1
    46    35    38    1
    47    36    37    2
    48   166   165    1
    49    51    52    1
    50    61    60    1
    51    33    32    1
    52    57    60    1
    53    57    58    1
    54    41    39    1
    55    39    38    1
    56    39    40    1
    57    53    52    1
    58    53    54    2
    59    32    31    1
    60    52    55    1
    61    58    59    2
    62   153   154    1
    63    64    65    1
    64   150   147    1
    65   150   151    1
    66    67    66    2
    67    31    30    1
    68   148   147    1
    69   148   149    2
    70    94    92    1
    71   147   146    1
    72   151   152    1
    73    70    68    1
    74    68    65    1
    75    68    69    1
    76   158   160    1
    77   158   159    1
    78   158   157    1
    79    65    66    1
    80   154   157    1
    81   154   155    1
    82   102   101    1
    83   156   155    2
    84    30    29    1
    85    92    93    1
    86    92    91    1
    87   146   152    1
    88   146   144   am
    89    77    78    1
    90    77    76    1
    91    86    84    1
    92    75    76    1
    93    75    72    1
    94    71    72    1
    95   101   100    1
    96   145   144    2
    97    29    26    1
    98    91    88    1
    99   144   143    1
   100    19    17    1
   101    72    73    1
   102   100    99    1
   103    11    12    2
   104    11    10    1
   105    84    83    1
   106   110   109   ar
   107    10     9    1
   108    26    27    1
   109    26    25    1
   110    99    96    1
   111   143   142    1
   112    88    87    1
   113    88    89    1
   114    85    83    1
   115    83    80    1
   116    74    73    2
   117    27    28    2
   118    17    18    1
   119    17    14    1
   120   124   121    1
   121    13    14    1
   122   109   111   ar
   123   109   108    1
   124    89    90    2
   125    14    15    1
   126   142   136   am
   127    96    95    1
   128    96    97    1
   129     9     3   am
   130   137   136    2
   131     4     3    2
   132    80    79    1
   133    80    81    1
   134   106   105    2
   135   108   107    1
   136   136   135    1
   137   107   104    1
   138   103    97   am
   139   103   104    1
   140     3     2    1
   141   121   120    1
   142   121   122    1
   143   123   122    2
   144    97    98    2
   145   120   114   am
   146   104   105    1
   147    15    16    2
   148   105   112   am
   149    23    22    2
   150   138   135    1
   151   138   139    1
   152   122   125   am
   153    24    21    1
   154    81    82    2
   155   135   134    1
   156     5     2    1
   157     5     6    1
   158    22    21    1
   159   114   115    2
   160   114   113    1
   161     2     1    1
   162   140   139    1
   163   134   127   am
   164   139   141    1
   165   112   113    1
   166     7     6    1
   167    21    20    1
   168   113   116    1
   169   125   126    1
   170   127   128    2
   171   127   126    1
   172     6     8    1
   173   118   117    1
   174   118   119    1
   175   126   129    1
   176   116   117    1
   177   129   130    1
   178   130   131    1
   179   131   132   ar
   180   131   133   ar
