@<TRIPOS>MOLECULE
tmp/3tudA00.pdb
 216 205 0 0 0
SMALL
GASTEIGER

@<TRIPOS>ATOM
      1  N        -20.3880  -11.9470    1.6530 N.3    15  LEU15      -0.1231
      2  CA       -19.4750  -11.0270    2.3620 C.3    15  LEU15       0.1693
      3  C        -19.4320  -11.4120    3.8470 C.2    15  LEU15       0.2592
      4  O        -18.4440  -11.1390    4.5350 O.2    15  LEU15      -0.2718
      5  CB       -19.9460   -9.5630    2.2750 C.3    15  LEU15       0.0284
      6  CG       -19.9160   -8.8570    0.9400 C.3    15  LEU15       0.0019
      7  CD1      -20.6890   -7.5620    1.0180 C.3    15  LEU15       0.0001
      8  CD2      -18.4950   -8.5710    0.4900 C.3    15  LEU15       0.0001
      9  N        -20.5450  -11.9760    4.3220 N.am   16  GLY16      -0.1957
     10  CA       -20.7610  -12.4070    5.6960 C.3    16  GLY16       0.1869
     11  C        -21.6920  -13.5970    5.7950 C.2    16  GLY16       0.2309
     12  O        -22.5460  -13.8110    4.9280 O.2    16  GLY16      -0.2863
     13  N        -24.8770  -12.1260    4.2160 N.3    23  VAL23      -0.1245
     14  CA       -24.5820  -10.8430    3.6130 C.3    23  VAL23       0.1561
     15  C        -23.9810  -11.0770    2.2190 C.2    23  VAL23       0.2260
     16  O        -23.0820  -11.8960    2.0510 O.2    23  VAL23      -0.2867
     17  CB       -23.7670   -9.8810    4.5190 C.3    23  VAL23       0.0252
     18  CG1      -23.4450   -8.5680    3.7950 C.3    23  VAL23       0.0019
     19  CG2      -24.5060   -9.6080    5.8310 C.3    23  VAL23       0.0019
     20  N        -24.3290   -3.6250    0.3310 N.3    38  ALA38      -0.1245
     21  CA       -24.1760   -4.8760    1.0730 C.3    38  ALA38       0.1562
     22  C        -25.5930   -5.1750    1.5490 C.2    38  ALA38       0.2260
     23  O        -26.3090   -4.2580    1.9970 O.2    38  ALA38      -0.2867
     24  CB       -23.2260   -4.7000    2.2620 C.3    38  ALA38       0.0290
     25  N        -28.1810   -7.8330    3.7230 N.3    40  LYS40      -0.1245
     26  CA       -28.4490   -8.8400    4.7350 C.3    40  LYS40       0.1561
     27  C        -29.7550   -9.4940    4.3110 C.2    40  LYS40       0.2260
     28  O        -30.7920   -8.8260    4.2230 O.2    40  LYS40      -0.2867
     29  CB       -28.5820   -8.1650    6.1160 C.3    40  LYS40       0.0271
     30  CG       -28.6540   -9.1030    7.3260 C.3    40  LYS40       0.0035
     31  CD       -28.5160   -8.2660    8.5990 C.3    40  LYS40       0.0206
     32  CE       -28.8910   -8.9950    9.8590 C.3    40  LYS40       0.1093
     33  NZ       -28.9680   -8.0600   11.0130 N.3    40  LYS40      -0.1314
     34  N        -34.4100   -2.9440   13.6130 N.3    58  GLU58      -0.1196
     35  CA       -33.0180   -2.5900   13.2910 C.3    58  GLU58       0.1783
     36  C        -33.0340   -1.4930   12.2200 C.2    58  GLU58       0.2306
     37  O        -32.2340   -0.5560   12.2920 O.2    58  GLU58      -0.2863
     38  CB       -32.2310   -3.8320   12.7850 C.2    58  GLU58       0.0071
     39  CG       -30.7390   -3.6150   12.5050 C.2    58  GLU58       0.0834
     40  CD       -29.9320   -4.7910   11.9600 C.2    58  GLU58       0.3877
     41  OE1      -30.4710   -5.9210   11.8870 O.co2  58  GLU58      -0.2406
     42  OE2      -28.7540   -4.5750   11.5880 O.co2  58  GLU58      -0.2406
     43  N        -34.1240    1.7030   13.9100 N.3    61  VAL61      -0.1231
     44  CA       -32.9550    2.1630   14.6950 C.3    61  VAL61       0.1692
     45  C        -31.9460    2.8590   13.7620 C.2    61  VAL61       0.2591
     46  O        -31.5200    3.9820   14.0480 O.2    61  VAL61      -0.2718
     47  CB       -32.2900    0.9860   15.4680 C.3    61  VAL61       0.0266
     48  CG1      -30.8550    1.3090   15.8750 C.3    61  VAL61       0.0020
     49  CG2      -33.1130    0.5910   16.6870 C.3    61  VAL61       0.0020
     50  N        -31.5860    2.1760   12.6430 N.am   62  MET62      -0.1979
     51  CA       -30.6520    2.6500   11.6330 C.3    62  MET62       0.1605
     52  C        -31.1060    3.9490   10.9870 C.2    62  MET62       0.2287
     53  O        -30.2650    4.7810   10.6670 O.2    62  MET62      -0.2864
     54  CB       -30.4030    1.5880   10.5440 C.3    62  MET62       0.0413
     55  CG       -29.5530    0.3820   10.9870 C.3    62  MET62       0.0598
     56  SD       -28.1360    0.6940   12.0850 S.3    62  MET62      -0.1393
     57  CE       -27.1020    1.7180   11.0270 C.3    62  MET62       0.0692
     58  N        -30.2130    6.7950   13.3840 N.3    65  LEU65      -0.1245
     59  CA       -28.7630    7.0200   13.3970 C.3    65  LEU65       0.1561
     60  C        -28.3180    7.4870   12.0040 C.2    65  LEU65       0.2260
     61  O        -28.3410    6.7150   11.0530 O.2    65  LEU65      -0.2867
     62  CB       -28.0040    5.7410   13.8100 C.3    65  LEU65       0.0270
     63  CG       -28.4790    5.0080   15.0700 C.3    65  LEU65       0.0019
     64  CD1      -27.8760    3.6160   15.1540 C.3    65  LEU65       0.0001
     65  CD2      -28.2000    5.8170   16.3470 C.3    65  LEU65       0.0001
     66  N        -20.7720    5.8630   10.4120 N.3    70  ILE70      -0.1231
     67  CA       -21.5360    4.6340   10.6870 C.3    70  ILE70       0.1692
     68  C        -21.9880    4.0110    9.3480 C.2    70  ILE70       0.2591
     69  O        -22.2790    4.7480    8.4170 O.2    70  ILE70      -0.2718
     70  CB       -22.7270    5.0870   11.6020 C.3    70  ILE70       0.0266
     71  CG1      -22.3420    5.1000   13.0900 C.3    70  ILE70       0.0019
     72  CG2      -24.1500    4.5210   11.3140 C.3    70  ILE70       0.0020
     73  CD1      -22.2300    6.5410   13.6020 C.3    70  ILE70       0.0001
     74  N        -22.0270    2.6740    9.2460 N.am   71  VAL71      -0.1980
     75  CA       -22.5350    1.9950    8.0510 C.3    71  VAL71       0.1595
     76  C        -24.0390    2.4060    7.9330 C.2    71  VAL71       0.2287
     77  O        -24.8200    2.0270    8.7980 O.2    71  VAL71      -0.2864
     78  CB       -22.3190    0.4420    8.1310 C.3    71  VAL71       0.0276
     79  CG1      -23.1270   -0.2990    7.0640 C.3    71  VAL71       0.0022
     80  CG2      -20.8430    0.0990    7.9880 C.3    71  VAL71       0.0022
     81  N        -32.2620   -6.3420    4.1880 N.3    84  LEU84      -0.1245
     82  CA       -31.8530   -5.0400    4.7100 C.3    84  LEU84       0.1561
     83  C        -30.6580   -4.5810    3.8450 C.2    84  LEU84       0.2260
     84  O        -29.6300   -5.2660    3.7750 O.2    84  LEU84      -0.2867
     85  CB       -31.5360   -5.0920    6.2170 C.3    84  LEU84       0.0270
     86  CG       -31.0950   -3.7810    6.9480 C.3    84  LEU84       0.0019
     87  CD1      -32.0010   -2.5880    6.6220 C.3    84  LEU84       0.0001
     88  CD2      -31.0330   -3.9850    8.4530 C.3    84  LEU84       0.0001
     89  N        -27.7470   -1.9160    2.8700 N.3    86  MET86      -0.1230
     90  CA       -26.7640   -0.9910    3.4420 C.3    86  MET86       0.1702
     91  C        -25.7110   -0.6320    2.4390 C.2    86  MET86       0.2595
     92  O        -25.4320   -1.4040    1.5130 O.2    86  MET86      -0.2718
     93  CB       -26.0570   -1.6210    4.6490 C.3    86  MET86       0.0401
     94  CG       -27.0070   -2.1790    5.7120 C.3    86  MET86       0.0596
     95  SD       -28.0490   -0.9460    6.5330 S.3    86  MET86      -0.1393
     96  CE       -26.8730   -0.1570    7.5840 C.3    86  MET86       0.0692
     97  N        -25.0850    0.5300    2.6560 N.am   87  GLU87      -0.1920
     98  CA       -23.9520    0.9890    1.8750 C.3    87  GLU87       0.1949
     99  C        -22.7540    0.0360    2.0820 C.2    87  GLU87       0.2659
    100  O        -22.6250   -0.5960    3.1340 O.2    87  GLU87      -0.2711
    101  CB       -23.5970    2.4520    2.1930 C.2    87  GLU87       0.0111
    102  CG       -23.2720    2.7590    3.6380 C.2    87  GLU87       0.0838
    103  CD       -23.0560    4.2300    3.9660 C.2    87  GLU87       0.3877
    104  OE1      -22.7380    4.5100    5.1420 O.co2  87  GLU87      -0.2406
    105  OE2      -23.1630    5.0960    3.0640 O.co2  87  GLU87      -0.2406
    106  N        -21.9600   -0.1450    1.0060 N.am   88  MET88      -0.1960
    107  CA       -20.7920   -1.0130    0.9500 C.3    88  MET88       0.1737
    108  C        -19.5590   -0.2350    1.4000 C.2    88  MET88       0.2616
    109  O        -19.3700    0.9140    0.9890 O.2    88  MET88      -0.2715
    110  CB       -20.5990   -1.5240   -0.5000 C.3    88  MET88       0.0427
    111  CG       -19.4810   -2.5440   -0.6720 C.3    88  MET88       0.0599
    112  SD       -19.7270   -4.0690    0.2740 S.3    88  MET88      -0.1393
    113  CE       -18.2450   -4.8070    0.0150 C.3    88  MET88       0.0692
    114  N        -18.7480   -0.8630    2.2710 N.am   89  ALA89      -0.1963
    115  CA       -17.4510   -0.3760    2.7250 C.3    89  ALA89       0.1728
    116  C        -16.5600   -1.4060    2.0620 C.2    89  ALA89       0.2616
    117  O        -16.4430   -2.5680    2.5060 O.2    89  ALA89      -0.2715
    118  CB       -17.3440   -0.4320    4.2410 C.3    89  ALA89       0.0334
    119  N        -16.0850   -1.0140    0.8670 N.am   90  GLU90      -0.1963
    120  CA       -15.3430   -1.8580   -0.0690 C.3    90  GLU90       0.1733
    121  C        -14.0470   -2.5000    0.4290 C.2    90  GLU90       0.2616
    122  O        -13.7220   -3.5910   -0.0350 O.2    90  GLU90      -0.2715
    123  CB       -15.1720   -1.1450   -1.4190 C.3    90  GLU90       0.0429
    124  CG       -16.4490   -0.4930   -1.9310 C.3    90  GLU90       0.1163
    125  CD       -17.0170   -0.9710   -3.2510 C.2    90  GLU90       0.3649
    126  OE1      -17.1220   -2.2050   -3.4630 O.co2  90  GLU90      -0.2457
    127  OE2      -17.4240   -0.0950   -4.0480 O.co2  90  GLU90      -0.2457
    128  N        -13.3310   -1.8860    1.3960 N.am   91  LEU91      -0.1963
    129  CA       -12.0770   -2.4900    1.8740 C.3    91  LEU91       0.1728
    130  C        -12.2060   -3.5150    2.9760 C.2    91  LEU91       0.2617
    131  O        -11.1990   -4.1100    3.3680 O.2    91  LEU91      -0.2715
    132  CB       -11.0170   -1.4390    2.2320 C.3    91  LEU91       0.0311
    133  CG       -10.6390   -0.4010    1.1720 C.3    91  LEU91       0.0022
    134  CD1       -9.6820    0.5950    1.7510 C.3    91  LEU91       0.0001
    135  CD2      -10.0630   -1.0470   -0.0780 C.3    91  LEU91       0.0001
    136  N        -13.4200   -3.6970    3.4990 N.am   92  GLY92      -0.1941
    137  CA       -13.6740   -4.6540    4.5730 C.3    92  GLY92       0.1998
    138  C        -13.2350   -4.1990    5.9520 C.2    92  GLY92       0.2480
    139  O        -12.9930   -3.0020    6.1710 O.2    92  GLY92      -0.2729
    140  N        -13.1250   -5.1530    6.9070 N.am   93  PRO93      -0.2726
    141  CA       -12.7480   -4.7830    8.2850 C.3    93  PRO93       0.1402
    142  C        -11.3430   -4.2080    8.4930 C.2    93  PRO93       0.2269
    143  O        -10.3870   -4.6510    7.8540 O.2    93  PRO93      -0.2865
    144  CB       -12.9770   -6.0760    9.0710 C.3    93  PRO93       0.0296
    145  CG       -12.7760   -7.1700    8.0700 C.3    93  PRO93       0.0237
    146  CD       -13.3900   -6.6060    6.7960 C.3    93  PRO93       0.0939
    147  N        -23.2210    8.2190   18.4180 N.3   123  LEU123     -0.1245
    148  CA       -24.0200    7.1570   19.0610 C.3   123  LEU123      0.1561
    149  C        -24.2650    7.4230   20.5490 C.2   123  LEU123      0.2260
    150  O        -25.3370    7.0850   21.0530 O.2   123  LEU123     -0.2867
    151  CB       -23.3530    5.7750   18.9070 C.3   123  LEU123      0.0270
    152  CG       -23.1890    5.1920   17.4960 C.3   123  LEU123      0.0019
    153  CD1      -22.4200    3.9040   17.5540 C.3   123  LEU123      0.0001
    154  CD2      -24.5440    4.9540   16.8090 C.3   123  LEU123      0.0001
    155  N        -27.2070    5.4750   22.3380 N.3   128  PHE128     -0.1241
    156  CA       -27.0990    4.1480   21.7440 C.3   128  PHE128      0.1605
    157  C        -25.8040    3.5010   22.1950 C.2   128  PHE128      0.2264
    158  O        -24.7220    4.0740   22.0020 O.2   128  PHE128     -0.2867
    159  CB       -27.1960    4.2140   20.2050 C.3   128  PHE128      0.0534
    160  CG       -27.2810    2.8690   19.5170 C.ar  128  PHE128     -0.0203
    161  CD1      -28.5080    2.2600   19.2940 C.ar  128  PHE128     -0.0042
    162  CD2      -26.1320    2.2160   19.0790 C.ar  128  PHE128     -0.0042
    163  CE1      -28.5830    1.0190   18.6430 C.ar  128  PHE128     -0.0003
    164  CE2      -26.2090    0.9640   18.4560 C.ar  128  PHE128     -0.0003
    165  CZ       -27.4330    0.3830   18.2290 C.ar  128  PHE128     -0.0000
    166  N        -23.2580    0.4600   21.7260 N.3   130  HIS130     -0.1241
    167  CA       -22.7880   -0.5180   20.7370 C.3   130  HIS130      0.1621
    168  C        -22.6380   -1.9260   21.3160 C.2   130  HIS130      0.2264
    169  O        -23.2670   -2.8420   20.7880 O.2   130  HIS130     -0.2867
    170  CB       -21.4770   -0.0520   20.0740 C.3   130  HIS130      0.0745
    171  CG       -21.1500   -0.7780   18.8100 C.ar  130  HIS130      0.0817
    172  ND1      -20.9150   -2.1550   18.7970 N.ar  130  HIS130     -0.2268
    173  CD2      -20.9940   -0.2970   17.5570 C.ar  130  HIS130      0.1154
    174  CE1      -20.6500   -2.4660   17.5370 C.ar  130  HIS130      0.1986
    175  NE2      -20.6610   -1.3820   16.7530 N.ar  130  HIS130     -0.2212
    176  N        -15.2530   -0.9390    9.3690 N.3   139  LEU139     -0.1245
    177  CA       -15.1100   -1.2310    7.9510 C.3   139  LEU139      0.1561
    178  C        -14.6330   -0.0030    7.2330 C.2   139  LEU139      0.2260
    179  O        -15.1120    1.0970    7.5130 O.2   139  LEU139     -0.2867
    180  CB       -16.4710   -1.7100    7.3560 C.3   139  LEU139      0.0270
    181  CG       -17.2480   -2.8030    8.1050 C.3   139  LEU139      0.0019
    182  CD1      -18.5970   -3.0850    7.4550 C.3   139  LEU139      0.0001
    183  CD2      -16.4290   -4.0780    8.2230 C.3   139  LEU139      0.0001
    184  N        -18.3450    2.7120   11.3260 N.3   148  ILE148     -0.1231
    185  CA       -18.7110    1.7850   12.3900 C.3   148  ILE148      0.1692
    186  C        -19.8740    0.9050   11.9400 C.2   148  ILE148      0.2593
    187  O        -20.8900    1.4160   11.4770 O.2   148  ILE148     -0.2718
    188  CB       -19.0400    2.5230   13.7330 C.3   148  ILE148      0.0266
    189  CG1      -17.8600    3.3760   14.2130 C.3   148  ILE148      0.0019
    190  CG2      -19.4700    1.5250   14.8200 C.3   148  ILE148      0.0020
    191  CD1      -18.2760    4.7190   14.8250 C.3   148  ILE148      0.0001
    192  N        -19.7200   -0.4030   12.0870 N.am  149  SER149     -0.1938
    193  CA       -20.7560   -1.3790   11.7890 C.3   149  SER149      0.2055
    194  C        -21.0370   -2.2260   13.0420 C.2   149  SER149      0.2643
    195  O        -20.4020   -2.0400   14.0820 O.2   149  SER149     -0.2714
    196  CB       -20.3440   -2.2720   10.6200 C.3   149  SER149      0.2130
    197  OG       -19.3610   -3.2200   11.0050 O.3   149  SER149     -0.2179
    198  N        -21.9790   -3.1500   12.9320 N.am  150  ASP150     -0.1957
    199  CA       -22.3930   -4.0490   14.0020 C.3   150  ASP150      0.1840
    200  C        -22.9820   -5.2950   13.3510 C.2   150  ASP150      0.2622
    201  O        -24.1440   -5.2820   12.9390 O.2   150  ASP150     -0.2715
    202  CB       -23.4300   -3.3550   14.9280 C.3   150  ASP150      0.1450
    203  CG       -23.7630   -4.0820   16.2290 C.2   150  ASP150      0.3671
    204  OD1      -24.4960   -3.4960   17.0670 O.co2 150  ASP150     -0.2456
    205  OD2      -23.2830   -5.2350   16.4170 O.co2 150  ASP150     -0.2456
    206  N        -22.1670   -6.3460   13.2080 N.am  151  PHE151     -0.1974
    207  CA       -22.6020   -7.6070   12.5980 C.3   151  PHE151      0.1639
    208  C        -23.3640   -8.4240   13.6460 C.2   151  PHE151      0.2290
    209  O        -23.7050   -9.5820   13.4170 O.2   151  PHE151     -0.2864
    210  CB       -21.4050   -8.4210   12.0380 C.3   151  PHE151      0.0560
    211  CG       -20.4800   -7.7980   11.0070 C.ar  151  PHE151     -0.0200
    212  CD1      -20.7510   -6.5480   10.4600 C.ar  151  PHE151     -0.0042
    213  CD2      -19.3350   -8.4660   10.5870 C.ar  151  PHE151     -0.0042
    214  CE1      -19.8850   -5.9750    9.5300 C.ar  151  PHE151     -0.0003
    215  CE2      -18.4760   -7.8940    9.6480 C.ar  151  PHE151     -0.0003
    216  CZ       -18.7550   -6.6530    9.1290 C.ar  151  PHE151     -0.0000
@<TRIPOS>BOND
     1   127   125   ar
     2   126   125   ar
     3   125   124    1
     4   124   123    1
     5   123   120    1
     6   111   110    1
     7   111   112    1
     8   110   107    1
     9   135   133    1
    10   120   121    1
    11   120   119    1
    12   122   121    2
    13   113   112    1
    14    20    21    1
    15   121   128   am
    16     8     6    1
    17   119   116   am
    18     6     7    1
    19     6     5    1
    20   107   106    1
    21   107   108    1
    22   109   108    2
    23   106    99   am
    24    21    22    1
    25    21    24    1
    26   133   134    1
    27   133   132    1
    28   128   129    1
    29   108   114   am
    30    92    91    2
    31    22    23    2
    32     1     2    1
    33   129   132    1
    34   129   130    1
    35    98    99    1
    36    98   101    1
    37    98    97    1
    38    16    15    2
    39   116   117    2
    40   116   115    1
    41    99   100    2
    42   101   102    2
    43    15    14    1
    44   114   115    1
    45     5     2    1
    46     2     3    1
    47    91    97   am
    48    91    90    1
    49   115   118    1
    50    89    90    1
    51   130   131    2
    52   130   136   am
    53   105   103   ar
    54    90    93    1
    55   136   137    1
    56    14    13    1
    57    14    17    1
    58   102   103    1
    59    25    26    1
    60    84    83    2
    61    18    17    1
    62    83    82    1
    63     3     9   am
    64     3     4    2
    65   103   104   ar
    66    81    82    1
    67    28    27    2
    68    27    26    1
    69     9    10    1
    70    17    19    1
    71   137   138    1
    72    93    94    1
    73    82    85    1
    74    26    29    1
    75    12    11    2
    76    10    11    1
    77    94    95    1
    78   138   139    2
    79   138   140   am
    80    29    30    1
    81    85    86    1
    82    95    96    1
    83    87    86    1
    84   146   140    1
    85   146   145    1
    86   140   141    1
    87    86    88    1
    88    79    78    1
    89   178   179    2
    90   178   177    1
    91    30    31    1
    92   180   177    1
    93   180   181    1
    94   182   181    1
    95   143   142    2
    96    76    75    1
    97    76    77    2
    98   177   176    1
    99    80    78    1
   100    75    78    1
   101    75    74    1
   102   145   144    1
   103   181   183    1
   104   141   142    1
   105   141   144    1
   106    69    68    2
   107    31    32    1
   108   216   214   ar
   109   216   215   ar
   110    74    68   am
   111    68    67    1
   112   214   212   ar
   113   215   213   ar
   114    32    33    1
   115    66    67    1
   116   212   211   ar
   117    54    55    1
   118    54    51    1
   119   213   211   ar
   120   196   197    1
   121   196   193    1
   122    53    52    2
   123    67    70    1
   124    55    56    1
   125    52    51    1
   126   211   210    1
   127    57    56    1
   128    61    60    2
   129    72    70    1
   130   184   185    1
   131   187   186    2
   132    42    40   ar
   133    70    71    1
   134    51    50    1
   135   193   192    1
   136   193   194    1
   137    41    40   ar
   138   186   192   am
   139   186   185    1
   140    40    39    1
   141    60    59    1
   142   210   207    1
   143    36    37    2
   144    36    35    1
   145   185   188    1
   146    39    38    2
   147   207   206    1
   148   207   208    1
   149    50    45   am
   150    38    35    1
   151   198   194   am
   152   198   199    1
   153   201   200    2
   154   194   195    2
   155    71    73    1
   156   206   200   am
   157    35    34    1
   158   200   199    1
   159    58    59    1
   160    59    62    1
   161   209   208    2
   162   188   189    1
   163   188   190    1
   164    45    46    2
   165    45    44    1
   166    62    63    1
   167    43    44    1
   168   199   202    1
   169   189   191    1
   170    44    47    1
   171   202   203    1
   172    63    64    1
   173    63    65    1
   174    47    48    1
   175    47    49    1
   176   203   205   ar
   177   203   204   ar
   178   175   174   ar
   179   175   173   ar
   180   154   152    1
   181   152   153    1
   182   152   151    1
   183   174   172   ar
   184   173   171   ar
   185   165   164   ar
   186   165   163   ar
   187   147   148    1
   188   164   162   ar
   189   163   161   ar
   190   172   171   ar
   191   171   170    1
   192   151   148    1
   193   148   149    1
   194   162   160   ar
   195   161   160   ar
   196   160   159    1
   197   170   167    1
   198   159   156    1
   199   149   150    2
   200   167   168    1
   201   167   166    1
   202   169   168    2
   203   156   157    1
   204   156   155    1
   205   158   157    2
