@<TRIPOS>MOLECULE
tmp/3tuhA00.pdb
 150 137 0 0 0
SMALL
GASTEIGER

@<TRIPOS>ATOM
      1  N         20.2160    3.0370    5.3750 N.3    33  LEU33      -0.1245
      2  CA        19.3380    1.9210    5.7480 C.3    33  LEU33       0.1561
      3  C         18.9370    1.1030    4.5170 C.2    33  LEU33       0.2260
      4  O         18.9150   -0.1330    4.5600 O.2    33  LEU33      -0.2867
      5  CB        18.1080    2.4280    6.5160 C.3    33  LEU33       0.0270
      6  CG        18.4330    3.0410    7.8880 C.3    33  LEU33       0.0019
      7  CD1       17.1870    3.5760    8.5670 C.3    33  LEU33       0.0001
      8  CD2       19.1800    2.0720    8.8090 C.3    33  LEU33       0.0001
      9  N         21.8800   -1.0360    3.5940 N.3    36  ASN36      -0.1225
     10  CA        21.9240   -2.2170    4.4680 C.3    36  ASN36       0.1785
     11  C         20.9290   -3.2890    4.0250 C.2    36  ASN36       0.2597
     12  O         21.2640   -4.4840    3.9840 O.2    36  ASN36      -0.2718
     13  CB        21.6610   -1.8420    5.9220 C.3    36  ASN36       0.1169
     14  CG        22.8490   -1.1420    6.5690 C.2    36  ASN36       0.2627
     15  OD1       23.9130   -1.0010    5.9620 O.2    36  ASN36      -0.2716
     16  ND2       22.6700   -0.7040    7.8040 N.am   36  ASN36      -0.0877
     17  N         19.7230   -2.8510    3.6760 N.am   37  SER37      -0.1952
     18  CA        18.6850   -3.7650    3.1660 C.3    37  SER37       0.1924
     19  C         19.1690   -4.4710    1.8910 C.2    37  SER37       0.2314
     20  O         19.0050   -5.6960    1.7390 O.2    37  SER37      -0.2863
     21  CB        17.3780   -3.0130    2.8980 C.3    37  SER37       0.2116
     22  OG        16.7570   -2.6080    4.1070 O.3    37  SER37      -0.2180
     23  N         22.2570   -4.9830    0.9730 N.3    39  ASP39      -0.1225
     24  CA        23.3130   -5.9200    1.3790 C.3    39  ASP39       0.1805
     25  C         22.6990   -7.2340    1.9150 C.2    39  ASP39       0.2597
     26  O         23.1370   -8.3290    1.5530 O.2    39  ASP39      -0.2718
     27  CB        24.2170   -5.2910    2.4440 C.3    39  ASP39       0.1424
     28  CG        25.1390   -4.1970    1.8850 C.2    39  ASP39       0.3668
     29  OD1       25.1750   -3.9690    0.6470 O.co2  39  ASP39      -0.2456
     30  OD2       25.8250   -3.5630    2.7080 O.co2  39  ASP39      -0.2456
     31  N         21.6680   -7.1220    2.7450 N.am   40  ALA40      -0.1979
     32  CA        21.0060   -8.3130    3.3120 C.3    40  ALA40       0.1597
     33  C         20.2900   -9.1380    2.2360 C.2    40  ALA40       0.2287
     34  O         20.2480  -10.3710    2.3150 O.2    40  ALA40      -0.2864
     35  CB        20.0430   -7.9200    4.4260 C.3    40  ALA40       0.0319
     36  N         22.8250  -11.0850    0.4600 N.3    43  LYS43      -0.1245
     37  CA        23.2190  -12.2360    1.2820 C.3    43  LYS43       0.1561
     38  C         22.2830  -13.4320    1.0910 C.2    43  LYS43       0.2260
     39  O         22.7440  -14.5570    0.8800 O.2    43  LYS43      -0.2867
     40  CB        23.3010  -11.8510    2.7550 C.3    43  LYS43       0.0271
     41  CG        24.4880  -10.9310    3.0780 C.3    43  LYS43       0.0035
     42  CD        24.4980  -10.5660    4.5520 C.3    43  LYS43       0.0206
     43  CE        25.6280   -9.5960    4.8510 C.3    43  LYS43       0.1093
     44  NZ        25.6950   -9.2370    6.2910 N.3    43  LYS43      -0.1314
     45  N         11.4580    0.8370    7.6030 N.3    76  ILE76      -0.1245
     46  CA        12.1220    0.2800    6.4220 C.3    76  ILE76       0.1561
     47  C         12.1110   -1.2560    6.5660 C.2    76  ILE76       0.2260
     48  O         12.6690   -1.7910    7.5230 O.2    76  ILE76      -0.2867
     49  CB        13.5760    0.8060    6.2390 C.3    76  ILE76       0.0252
     50  CG1       13.6160    2.3470    6.0560 C.3    76  ILE76       0.0019
     51  CG2       14.2370    0.1180    5.0390 C.3    76  ILE76       0.0019
     52  CD1       13.6410    3.1500    7.3620 C.3    76  ILE76       0.0001
     53  N         12.7400   -5.1220    4.7630 N.3    78  ASP78      -0.1239
     54  CA        13.3100   -5.8970    3.6670 C.3    78  ASP78       0.1674
     55  C         13.1040   -7.3910    3.8920 C.2    78  ASP78       0.2266
     56  O         12.8220   -7.8260    5.0140 O.2    78  ASP78      -0.2867
     57  CB        14.7870   -5.5390    3.4530 C.3    78  ASP78       0.1410
     58  CG        15.6810   -5.9810    4.6160 C.2    78  ASP78       0.3668
     59  OD1       15.8060   -7.2130    4.8390 O.co2  78  ASP78      -0.2456
     60  OD2       16.2740   -5.0920    5.2810 O.co2  78  ASP78      -0.2456
     61  N         18.4060  -11.5960    4.3210 N.3    81  ILE81      -0.1231
     62  CA        18.7680  -12.7950    5.0860 C.3    81  ILE81       0.1692
     63  C         18.3010  -12.7610    6.5530 C.2    81  ILE81       0.2593
     64  O         18.1250  -13.8050    7.1760 O.2    81  ILE81      -0.2718
     65  CB        20.2990  -13.0930    4.9600 C.3    81  ILE81       0.0266
     66  CG1       20.6020  -14.5760    5.2750 C.3    81  ILE81       0.0019
     67  CG2       21.1240  -12.0950    5.7620 C.3    81  ILE81       0.0020
     68  CD1       21.9220  -15.0580    4.6780 C.3    81  ILE81       0.0001
     69  N         18.0630  -11.5600    7.0790 N.am   82  GLY82      -0.1942
     70  CA        17.7240  -11.3900    8.4840 C.3    82  GLY82       0.2014
     71  C         18.9520  -11.6140    9.3570 C.2    82  GLY82       0.2638
     72  O         20.0730  -11.7550    8.8530 O.2    82  GLY82      -0.2714
     73  N         18.7390  -11.6510   10.6660 N.am   83  MET83      -0.1976
     74  CA        19.8330  -11.8480   11.6200 C.3    83  MET83       0.1605
     75  C         19.4020  -12.8070   12.7240 C.2    83  MET83       0.2287
     76  O         18.3070  -12.6770   13.2640 O.2    83  MET83      -0.2864
     77  CB        20.2570  -10.5100   12.2390 C.3    83  MET83       0.0413
     78  CG        20.9150   -9.5390   11.2540 C.3    83  MET83       0.0598
     79  SD        21.0990   -7.8740   11.9660 S.3    83  MET83      -0.1393
     80  CE        19.4160   -7.2730   11.7870 C.3    83  MET83       0.0692
     81  N         26.0910   -7.3360   15.6740 N.3    91  ASN91      -0.1225
     82  CA        26.0520   -6.3080   14.6360 C.3    91  ASN91       0.1785
     83  C         25.7400   -4.9330   15.1760 C.2    91  ASN91       0.2597
     84  O         26.2550   -3.9350   14.6700 O.2    91  ASN91      -0.2718
     85  CB        25.0190   -6.6360   13.5550 C.3    91  ASN91       0.1169
     86  CG        25.4400   -7.7730   12.6590 C.2    91  ASN91       0.2627
     87  OD1       26.6100   -8.1600   12.6180 O.2    91  ASN91      -0.2716
     88  ND2       24.4780   -8.3230   11.9330 N.am   91  ASN91      -0.0877
     89  N         24.8700   -4.8780   16.1760 N.am   92  LEU92      -0.1980
     90  CA        24.4050   -3.5850   16.6800 C.3    92  LEU92       0.1596
     91  C         25.1050   -3.1650   17.9630 C.2    92  LEU92       0.2287
     92  O         25.2440   -1.9620   18.2410 O.2    92  LEU92      -0.2864
     93  CB        22.8790   -3.5610   16.8150 C.3    92  LEU92       0.0297
     94  CG        22.1400   -3.8520   15.4890 C.3    92  LEU92       0.0022
     95  CD1       20.6360   -3.6730   15.6380 C.3    92  LEU92       0.0001
     96  CD2       22.6560   -3.0070   14.3330 C.3    92  LEU92       0.0001
     97  N         32.1440   -5.0230   15.5930 N.3    96  ALA96      -0.1231
     98  CA        31.8350   -6.0740   14.6090 C.3    96  ALA96       0.1694
     99  C         32.7900   -5.9750   13.4050 C.2    96  ALA96       0.2591
    100  O         34.0080   -5.9860   13.6100 O.2    96  ALA96      -0.2718
    101  CB        30.3660   -5.9960   14.1850 C.3    96  ALA96       0.0304
    102  N         32.2550   -5.8220   12.1840 N.am   97  LYS97      -0.1980
    103  CA        33.0780   -5.8150   10.9530 C.3    97  LYS97       0.1596
    104  C         33.4700   -4.3960   10.4850 C.2    97  LYS97       0.2287
    105  O         34.1020   -4.2270    9.4370 O.2    97  LYS97      -0.2864
    106  CB        32.3580   -6.5490    9.8020 C.3    97  LYS97       0.0298
    107  CG        31.7570   -7.9030   10.1720 C.3    97  LYS97       0.0038
    108  CD        31.0860   -8.5680    8.9540 C.3    97  LYS97       0.0206
    109  CE        30.5340   -9.9550    9.2900 C.3    97  LYS97       0.1093
    110  NZ        29.7300   -9.9750   10.5310 N.3    97  LYS97      -0.1314
    111  N         31.2610    1.3480    7.4150 N.3   120  GLY120     -0.1225
    112  CA        30.4670    0.1730    7.7710 C.3   120  GLY120      0.1811
    113  C         29.5390    0.3380    8.9630 C.2   120  GLY120      0.2280
    114  O         29.0790   -0.6580    9.5250 O.2   120  GLY120     -0.2866
    115  N         26.7670    2.7680    8.8260 N.3   122  GLY122     -0.1210
    116  CA        25.6810    3.6000    8.3120 C.3   122  GLY122      0.1956
    117  C         24.3860    3.4970    9.1120 C.2   122  GLY122      0.2611
    118  O         23.6530    4.4820    9.2520 O.2   122  GLY122     -0.2717
    119  N         24.1060    2.3140    9.6610 N.am  123  PHE123     -0.1976
    120  CA        22.9200    2.1360   10.5150 C.3   123  PHE123      0.1639
    121  C         22.7520    3.2600   11.5590 C.2   123  PHE123      0.2290
    122  O         21.6460    3.7640   11.7490 O.2   123  PHE123     -0.2864
    123  CB        22.9260    0.7710   11.2380 C.3   123  PHE123      0.0560
    124  CG        21.9060    0.6730   12.3430 C.ar  123  PHE123     -0.0200
    125  CD1       20.5480    0.5690   12.0400 C.ar  123  PHE123     -0.0042
    126  CD2       22.2980    0.7340   13.6890 C.ar  123  PHE123     -0.0042
    127  CE1       19.5850    0.4830   13.0550 C.ar  123  PHE123     -0.0003
    128  CE2       21.3420    0.6720   14.7250 C.ar  123  PHE123     -0.0003
    129  CZ        19.9760    0.5430   14.4050 C.ar  123  PHE123     -0.0000
    130  N         14.5970   -2.6410   15.8760 N.3   135  VAL135     -0.1245
    131  CA        14.9680   -3.5010   14.7610 C.3   135  VAL135      0.1561
    132  C         14.3700   -4.8780   15.0400 C.2   135  VAL135      0.2260
    133  O         14.7080   -5.5010   16.0450 O.2   135  VAL135     -0.2867
    134  CB        16.5190   -3.5940   14.5790 C.3   135  VAL135      0.0252
    135  CG1       16.8860   -4.6200   13.4880 C.3   135  VAL135      0.0019
    136  CG2       17.1440   -2.2000   14.2870 C.3   135  VAL135      0.0019
    137  N         14.2890   -8.0810    7.7600 N.3   169  THR169     -0.1218
    138  CA        14.5280   -7.1030    8.8070 C.3   169  THR169      0.1862
    139  C         13.6110   -5.9090    8.6010 C.2   169  THR169      0.2287
    140  O         13.3830   -5.4770    7.4680 O.2   169  THR169     -0.2866
    141  CB        16.0160   -6.6680    8.8330 C.3   169  THR169      0.1770
    142  OG1       16.8250   -7.8180    9.1240 O.3   169  THR169     -0.2211
    143  CG2       16.2920   -5.6020    9.9120 C.3   169  THR169      0.0375
    144  N         13.3070   -2.0300   10.2310 N.3   171  VAL171     -0.1245
    145  CA        13.9090   -0.9900   11.0560 C.3   171  VAL171      0.1561
    146  C         12.8400    0.0650   11.2760 C.2   171  VAL171      0.2260
    147  O         12.3690    0.6680   10.3090 O.2   171  VAL171     -0.2867
    148  CB        15.1730   -0.3740   10.3870 C.3   171  VAL171      0.0252
    149  CG1       15.7320    0.7800   11.2250 C.3   171  VAL171      0.0019
    150  CG2       16.2500   -1.4470   10.1730 C.3   171  VAL171      0.0019
@<TRIPOS>BOND
     1    36    37    1
     2    29    28   ar
     3    39    38    2
     4    23    24    1
     5    38    37    1
     6    37    40    1
     7    24    25    1
     8    24    27    1
     9    26    25    2
    10    20    19    2
    11    28    27    1
    12    28    30   ar
    13    19    18    1
    14    25    31   am
    15    33    34    2
    16    33    32    1
    17    31    32    1
    18    40    41    1
    19    21    18    1
    20    21    22    1
    21    41    42    1
    22    18    17    1
    23    32    35    1
    24    57    54    1
    25    57    58    1
    26     9    10    1
    27    54    55    1
    28    54    53    1
    29    17    11   am
    30    55    56    2
    31    12    11    2
    32    11    10    1
    33    61    62    1
    34    10    13    1
    35     3     4    2
    36     3     2    1
    37    42    43    1
    38    58    59   ar
    39    58    60   ar
    40    68    66    1
    41    43    44    1
    42    65    62    1
    43    65    66    1
    44    65    67    1
    45    51    49    1
    46    62    63    1
    47     1     2    1
    48     2     5    1
    49    13    14    1
    50    15    14    2
    51    50    49    1
    52    50    52    1
    53    49    46    1
    54    46    47    1
    55    46    45    1
    56     5     6    1
    57    63    69   am
    58    63    64    2
    59    47    48    2
    60    14    16   am
    61    69    70    1
    62   111   112    1
    63   140   139    2
    64   137   138    1
    65   112   113    1
    66     6     7    1
    67     6     8    1
    68   116   115    1
    69   116   117    1
    70    70    71    1
    71   139   138    1
    72   138   141    1
    73   141   142    1
    74   141   143    1
    75    72    71    2
    76   108   109    1
    77   108   107    1
    78   113   114    2
    79   117   118    2
    80   117   119   am
    81   109   110    1
    82    71    73   am
    83   105   104    2
    84   119   120    1
    85   106   107    1
    86   106   103    1
    87   150   148    1
    88   144   145    1
    89   147   146    2
    90   148   145    1
    91   148   149    1
    92   104   103    1
    93   120   123    1
    94   120   121    1
    95    73    74    1
    96   103   102    1
    97   145   146    1
    98   123   124    1
    99    78    79    1
   100    78    77    1
   101   121   122    2
   102    74    77    1
   103    74    75    1
   104    80    79    1
   105    88    86   am
   106   125   124   ar
   107   125   127   ar
   108   102    99   am
   109   124   126   ar
   110    87    86    2
   111    86    85    1
   112    75    76    2
   113   127   129   ar
   114    99   100    2
   115    99    98    1
   116   135   134    1
   117    85    82    1
   118   126   128   ar
   119   101    98    1
   120   136   134    1
   121    96    94    1
   122   129   128   ar
   123   134   131    1
   124    98    97    1
   125    82    83    1
   126    82    81    1
   127    84    83    2
   128   131   132    1
   129   131   130    1
   130   132   133    2
   131    83    89   am
   132    94    95    1
   133    94    93    1
   134    89    90    1
   135    90    93    1
   136    90    91    1
   137    91    92    2
