@<TRIPOS>MOLECULE
tmp/3tuiC00.pdb
 102 98 0 0 0
SMALL
GASTEIGER

@<TRIPOS>ATOM
      1  N          6.1990   13.7340   37.0690 N.3    12  PHE12      -0.1227
      2  CA         6.8700   12.8680   38.0200 C.3    12  PHE12       0.1736
      3  C          8.0760   12.2750   37.3370 C.2    12  PHE12       0.2595
      4  O          8.0280   11.9900   36.1370 O.2    12  PHE12      -0.2718
      5  CB         5.9590   11.7240   38.4880 C.3    12  PHE12       0.0547
      6  CG         4.9750   12.1100   39.5580 C.ar   12  PHE12      -0.0202
      7  CD1        5.4120   12.4620   40.8200 C.ar   12  PHE12      -0.0042
      8  CD2        3.6120   12.1010   39.3070 C.ar   12  PHE12      -0.0042
      9  CE1        4.5130   12.8090   41.8140 C.ar   12  PHE12      -0.0003
     10  CE2        2.7110   12.4470   40.3000 C.ar   12  PHE12      -0.0003
     11  CZ         3.1680   12.8020   41.5560 C.ar   12  PHE12      -0.0000
     12  N          9.1550   12.0790   38.0880 N.am   13  HIS13      -0.1961
     13  CA        10.1790   11.1400   37.6470 C.3    13  HIS13       0.1787
     14  C         10.2380    9.9760   38.6470 C.2    13  HIS13       0.2620
     15  O         10.8120   10.1030   39.7260 O.2    13  HIS13      -0.2715
     16  CB        11.5270   11.8660   37.5260 C.3    13  HIS13       0.0785
     17  CG        11.4450   13.1680   36.7770 C.ar   13  HIS13       0.0821
     18  ND1       11.3890   13.2330   35.3990 N.ar   13  HIS13      -0.2267
     19  CD2       11.3750   14.4480   37.2160 C.ar   13  HIS13       0.1154
     20  CE1       11.3090   14.4970   35.0220 C.ar   13  HIS13       0.1986
     21  NE2       11.2960   15.2560   36.1030 N.ar   13  HIS13      -0.2212
     22  N          9.6390    8.8490   38.2790 N.am   14  GLN14      -0.1977
     23  CA         9.7510    7.6070   39.0400 C.3    14  GLN14       0.1601
     24  C         10.9970    6.7760   38.7280 C.2    14  GLN14       0.2287
     25  O         11.7600    6.4070   39.6220 O.2    14  GLN14      -0.2864
     26  CB         8.4960    6.7380   38.8310 C.3    14  GLN14       0.0394
     27  CG         8.4440    5.4790   39.7030 C.3    14  GLN14       0.0908
     28  CD         7.2190    4.6080   39.4200 C.2    14  GLN14       0.2608
     29  OE1        6.7250    4.5520   38.2880 O.2    14  GLN14      -0.2717
     30  NE2        6.7470    3.9020   40.4410 N.am   14  GLN14      -0.0878
     31  N          6.8950   10.1880   33.5310 N.3    19  ILE19      -0.1245
     32  CA         5.4680   10.2150   33.2370 C.3    19  ILE19       0.1561
     33  C          4.8980   11.6050   33.4750 C.2    19  ILE19       0.2260
     34  O          5.2720   12.2600   34.4500 O.2    19  ILE19      -0.2867
     35  CB         4.6860    9.2250   34.1180 C.3    19  ILE19       0.0252
     36  CG1        5.3540    7.8490   34.1440 C.3    19  ILE19       0.0019
     37  CG2        3.2460    9.1080   33.6410 C.3    19  ILE19       0.0019
     38  CD1        4.9280    6.9910   35.3370 C.3    19  ILE19       0.0001
     39  N          1.7540   13.5040   34.6720 N.3    21  ALA21      -0.1245
     40  CA         0.5440   13.2060   35.4130 C.3    21  ALA21       0.1562
     41  C         -0.6070   14.0770   34.9520 C.2    21  ALA21       0.2260
     42  O         -1.7240   13.5940   34.7590 O.2    21  ALA21      -0.2867
     43  CB         0.7780   13.3620   36.9070 C.3    21  ALA21       0.0290
     44  N         -8.5860    4.7490   35.4750 N.3    41  SER41      -0.1202
     45  CA        -7.5870    4.6950   36.5210 C.3    41  SER41       0.2020
     46  C         -6.2230    4.9980   35.8930 C.2    41  SER41       0.2619
     47  O         -5.7930    4.3340   34.9490 O.2    41  SER41      -0.2717
     48  CB        -7.6080    3.3540   37.2500 C.3    41  SER41       0.2103
     49  OG        -6.7070    3.3860   38.3410 O.3    41  SER41      -0.2182
     50  N         -5.5510    6.0160   36.4190 N.am   42  GLY42      -0.1942
     51  CA        -4.3070    6.4770   35.8340 C.3    42  GLY42       0.2014
     52  C         -4.4240    7.7410   34.9940 C.2    42  GLY42       0.2639
     53  O         -3.4970    8.0950   34.2530 O.2    42  GLY42      -0.2714
     54  N         -5.5540    8.4340   35.1050 N.am   43  ALA43      -0.1963
     55  CA        -5.7630    9.6540   34.3240 C.3    43  ALA43       0.1728
     56  C         -5.1750   10.8860   35.0090 C.2    43  ALA43       0.2617
     57  O         -5.0060   11.9330   34.3870 O.2    43  ALA43      -0.2715
     58  CB        -7.2430    9.8500   34.0220 C.3    43  ALA43       0.0334
     59  N         -4.8390   10.7420   36.2870 N.am   44  GLY44      -0.1940
     60  CA        -4.4320   11.8780   37.1020 C.3    44  GLY44       0.2014
     61  C         -5.4780   12.4350   38.0630 C.2    44  GLY44       0.2639
     62  O         -5.3490   13.5700   38.5150 O.2    44  GLY44      -0.2714
     63  N         -6.5260   11.6620   38.3500 N.am   45  LYS45      -0.1963
     64  CA        -7.5560   12.0870   39.3140 C.3    45  LYS45       0.1728
     65  C         -6.9060   12.3660   40.6750 C.2    45  LYS45       0.2617
     66  O         -7.0780   13.4330   41.2860 O.2    45  LYS45      -0.2715
     67  CB        -8.6650   11.0210   39.4800 C.3    45  LYS45       0.0311
     68  CG        -9.4540   10.6800   38.2360 C.3    45  LYS45       0.0038
     69  CD       -10.2980    9.3880   38.4330 C.3    45  LYS45       0.0206
     70  CE        -9.4290    8.0840   38.4020 C.3    45  LYS45       0.1093
     71  NZ       -10.1160    6.7410   38.6530 N.3    45  LYS45      -0.1314
     72  N         -6.1380   11.3890   41.1250 N.am   46  SER46      -0.1936
     73  CA        -5.6660   11.3680   42.4900 C.3    46  SER46       0.2055
     74  C         -4.6880   12.5100   42.6740 C.2    46  SER46       0.2643
     75  O         -4.7600   13.2350   43.6490 O.2    46  SER46      -0.2714
     76  CB        -5.0590   10.0000   42.7880 C.3    46  SER46       0.2130
     77  OG        -6.0490    8.9980   42.5790 O.3    46  SER46      -0.2179
     78  N         -3.8040   12.6870   41.7010 N.am   47  THR47      -0.1950
     79  CA        -2.9370   13.8630   41.6120 C.3    47  THR47       0.1897
     80  C         -3.7180   15.1810   41.5940 C.2    47  THR47       0.2313
     81  O         -3.4950   16.0700   42.4180 O.2    47  THR47      -0.2863
     82  CB        -2.0680   13.7880   40.3330 C.3    47  THR47       0.1794
     83  OG1       -1.3000   12.5740   40.3330 O.3    47  THR47      -0.2208
     84  CG2       -1.1160   14.9710   40.2660 C.3    47  THR47       0.0378
     85  N          0.0980   17.4940   46.9060 N.3    56  GLU56      -0.1245
     86  CA         1.0430   17.4250   45.8010 C.3    56  GLU56       0.1567
     87  C          1.4440   18.8270   45.3340 C.2    56  GLU56       0.2260
     88  O          0.6580   19.7740   45.4610 O.2    56  GLU56      -0.2867
     89  CB         0.4570   16.6310   44.6390 C.3    56  GLU56       0.0388
     90  CG         1.5290   16.1290   43.7330 C.3    56  GLU56       0.1160
     91  CD         2.3210   15.0310   44.4080 C.2    56  GLU56       0.3649
     92  OE1        1.6830   14.0620   44.8850 O.co2  56  GLU56      -0.2457
     93  OE2        3.5720   15.1570   44.4910 O.co2  56  GLU56      -0.2457
     94  N        -12.0990    9.4430   45.6290 N.3   167  GLN167     -0.1245
     95  CA       -12.7750    8.1610   45.4300 C.3   167  GLN167      0.1566
     96  C        -13.6130    7.7590   46.6330 C.2   167  GLN167      0.2260
     97  O        -13.7250    6.5740   46.9320 O.2   167  GLN167     -0.2867
     98  CB       -11.7560    7.0710   45.1320 C.3   167  GLN167      0.0367
     99  CG       -10.8840    7.4000   43.9490 C.3   167  GLN167      0.0905
    100  CD       -11.4190    6.7320   42.7150 C.2   167  GLN167      0.2608
    101  OE1      -12.5590    6.2420   42.7070 O.2   167  GLN167     -0.2717
    102  NE2      -10.6100    6.6990   41.6560 N.am  167  GLN167     -0.0878
@<TRIPOS>BOND
     1    32    33    1
     2    32    31    1
     3    32    35    1
     4    33    34    2
     5    37    35    1
     6    58    55    1
     7    35    36    1
     8    36    38    1
     9    53    52    2
    10    55    56    1
    11    55    54    1
    12    57    56    2
    13    39    40    1
    14    42    41    2
    15    47    46    2
    16    41    40    1
    17    52    54   am
    18    52    51    1
    19    56    59   am
    20    20    18   ar
    21    20    21   ar
    22    18    17   ar
    23    40    43    1
    24    44    45    1
    25    51    50    1
    26    46    50   am
    27    46    45    1
    28    21    19   ar
    29     4     3    2
    30    59    60    1
    31    45    48    1
    32    17    19   ar
    33    17    16    1
    34     1     2    1
    35    60    61    1
    36    48    49    1
    37     3     2    1
    38     3    12   am
    39    16    13    1
    40    13    12    1
    41    13    14    1
    42     2     5    1
    43    61    63   am
    44    61    62    2
    45    68    69    1
    46    68    67    1
    47    22    14   am
    48    22    23    1
    49    29    28    2
    50    63    64    1
    51    70    69    1
    52    70    71    1
    53     5     6    1
    54    14    15    2
    55    24    23    1
    56    24    25    2
    57    26    23    1
    58    26    27    1
    59     8     6   ar
    60     8    10   ar
    61    64    67    1
    62    64    65    1
    63    28    27    1
    64    28    30   am
    65     6     7   ar
    66    84    82    1
    67    10    11   ar
    68    82    83    1
    69    82    79    1
    70    65    72   am
    71    65    66    2
    72     7     9   ar
    73    72    73    1
    74    11     9   ar
    75    80    79    1
    76    80    81    2
    77    79    78    1
    78   102   100   am
    79    78    74   am
    80    73    74    1
    81    73    76    1
    82    77    76    1
    83    74    75    2
    84   101   100    2
    85   100    99    1
    86    90    91    1
    87    90    89    1
    88    99    98    1
    89    91    93   ar
    90    91    92   ar
    91    89    86    1
    92    98    95    1
    93    87    88    2
    94    87    86    1
    95    95    94    1
    96    95    96    1
    97    86    85    1
    98    96    97    2
