@<TRIPOS>MOLECULE
tmp/3turA01.pdb
 114 111 0 0 0
SMALL
GASTEIGER

@<TRIPOS>ATOM
      1  N        -11.2540  -18.6110   25.7240 N.3   154  MET154     -0.1245
      2  CA       -10.4960  -17.6720   26.6670 C.3   154  MET154      0.1570
      3  C        -11.5700  -16.9270   27.4580 C.2   154  MET154      0.2261
      4  O        -12.4320  -16.2550   26.8470 O.2   154  MET154     -0.2867
      5  CB        -9.6850  -16.6500   25.8410 C.3   154  MET154      0.0387
      6  CG        -8.6390  -17.3030   24.9200 C.3   154  MET154      0.0595
      7  SD        -7.6270  -16.1010   24.0470 S.3   154  MET154     -0.1393
      8  CE        -8.8020  -15.0330   23.2410 C.3   154  MET154      0.0692
      9  N         -8.7240  -14.3740   34.7850 N.3   159  TYR159     -0.1241
     10  CA        -7.7490  -13.3310   35.1050 C.3   159  TYR159      0.1605
     11  C         -8.3500  -12.2410   36.0330 C.2   159  TYR159      0.2264
     12  O         -7.8010  -11.1730   36.1150 O.2   159  TYR159     -0.2867
     13  CB        -7.0800  -12.8070   33.7820 C.3   159  TYR159      0.0534
     14  CG        -6.6970  -13.9340   32.7890 C.ar  159  TYR159     -0.0201
     15  CD1       -5.4950  -14.7020   32.9680 C.ar  159  TYR159     -0.0009
     16  CD2       -7.5010  -14.2830   31.6970 C.ar  159  TYR159     -0.0009
     17  CE1       -5.1400  -15.7800   32.0900 C.ar  159  TYR159      0.0417
     18  CE2       -7.1350  -15.3920   30.7980 C.ar  159  TYR159      0.0417
     19  CZ        -5.9360  -16.1480   31.0380 C.ar  159  TYR159      0.1957
     20  OH        -5.5370  -17.2280   30.1990 O.3   159  TYR159     -0.2866
     21  N        -14.7270  -10.9580   28.6470 N.3   169  TYR169     -0.1241
     22  CA       -14.9590  -11.7150   27.3730 C.3   169  TYR169      0.1605
     23  C        -15.0070  -13.2080   27.7200 C.2   169  TYR169      0.2264
     24  O        -14.5370  -13.6480   28.7880 O.2   169  TYR169     -0.2867
     25  CB       -13.8280  -11.4460   26.3470 C.3   169  TYR169      0.0534
     26  CG       -12.4610  -11.6680   26.8800 C.ar  169  TYR169     -0.0201
     27  CD1      -11.8830  -12.9570   26.8720 C.ar  169  TYR169     -0.0009
     28  CD2      -11.7030  -10.6090   27.3610 C.ar  169  TYR169     -0.0009
     29  CE1      -10.5690  -13.1670   27.3860 C.ar  169  TYR169      0.0417
     30  CE2      -10.3430  -10.8230   27.9410 C.ar  169  TYR169      0.0417
     31  CZ        -9.8360  -12.1050   27.8900 C.ar  169  TYR169      0.1957
     32  OH        -8.5880  -12.2570   28.4520 O.3   169  TYR169     -0.2866
     33  N        -14.5410  -16.1490   25.0130 N.3   171  THR171     -0.1218
     34  CA       -14.3430  -16.1170   23.5620 C.3   171  THR171      0.1862
     35  C        -13.8100  -17.4520   23.0590 C.2   171  THR171      0.2287
     36  O        -12.7090  -17.8210   23.4270 O.2   171  THR171     -0.2866
     37  CB       -13.2940  -14.9850   23.1640 C.3   171  THR171      0.1770
     38  OG1      -13.7830  -13.7370   23.6780 O.3   171  THR171     -0.2211
     39  CG2      -13.0930  -14.8440   21.6440 C.3   171  THR171      0.0375
     40  N         -0.5170  -14.5630   31.8280 N.3   182  SER182     -0.1202
     41  CA        -1.4610  -13.4610   32.0220 C.3   182  SER182      0.2020
     42  C         -2.5750  -13.4740   30.9730 C.2   182  SER182      0.2619
     43  O         -3.5600  -12.7110   31.0950 O.2   182  SER182     -0.2717
     44  CB        -0.7470  -12.1560   31.9550 C.3   182  SER182      0.2103
     45  OG        -0.2390  -11.7650   30.7020 O.3   182  SER182     -0.2182
     46  N         -2.4580  -14.3570   29.9840 N.am  183  GLY183     -0.1942
     47  CA        -3.5810  -14.6530   29.0690 C.3   183  GLY183      0.2014
     48  C         -3.3970  -14.0710   27.7030 C.2   183  GLY183      0.2638
     49  O         -4.4090  -13.8830   26.9720 O.2   183  GLY183     -0.2714
     50  N         -2.1510  -13.7240   27.3110 N.am  184  VAL184     -0.1977
     51  CA        -1.9030  -13.3380   25.9250 C.3   184  VAL184      0.1596
     52  C         -1.6980  -14.5610   25.0870 C.2   184  VAL184      0.2287
     53  O         -0.9120  -15.4140   25.4660 O.2   184  VAL184     -0.2864
     54  CB        -0.6580  -12.4000   25.7530 C.3   184  VAL184      0.0276
     55  CG1       -0.3640  -11.9700   24.2780 C.3   184  VAL184      0.0022
     56  CG2       -0.9680  -11.1520   26.5870 C.3   184  VAL184      0.0022
     57  N         -3.6970  -15.8900   18.0710 N.3   187  HIS187     -0.1241
     58  CA        -4.7450  -16.8030   17.7370 C.3   187  HIS187      0.1621
     59  C         -5.4510  -16.3410   16.4960 C.2   187  HIS187      0.2264
     60  O         -5.3270  -15.1920   16.0670 O.2   187  HIS187     -0.2867
     61  CB        -5.7650  -17.0180   18.8940 C.3   187  HIS187      0.0745
     62  CG        -6.4780  -15.7200   19.2350 C.ar  187  HIS187      0.0817
     63  ND1       -7.5910  -15.2610   18.5420 N.ar  187  HIS187     -0.2268
     64  CD2       -6.1740  -14.7530   20.1420 C.ar  187  HIS187      0.1154
     65  CE1       -7.9640  -14.0910   19.0540 C.ar  187  HIS187      0.1986
     66  NE2       -7.1390  -13.7700   20.0350 N.ar  187  HIS187     -0.2212
     67  N        -12.8060  -12.1390   13.1440 N.3   191  TRP191     -0.1241
     68  CA       -13.6010  -10.8860   13.4080 C.3   191  TRP191      0.1605
     69  C        -12.7350   -9.6460   13.3260 C.2   191  TRP191      0.2264
     70  O        -13.2640   -8.5630   13.4490 O.2   191  TRP191     -0.2867
     71  CB       -14.3500  -11.0170   14.7440 C.3   191  TRP191      0.0550
     72  CG       -13.3050  -10.9730   15.9290 C.ar  191  TRP191      0.0003
     73  CD1      -12.7340   -9.8570   16.4480 C.ar  191  TRP191      0.0946
     74  CD2      -12.7660  -12.0820   16.6100 C.ar  191  TRP191      0.0152
     75  NE1      -11.8430  -10.2170   17.4900 N.ar  191  TRP191     -0.2442
     76  CE2      -11.8920  -11.5860   17.6110 C.ar  191  TRP191      0.0810
     77  CE3      -12.9710  -13.4620   16.4990 C.ar  191  TRP191      0.0012
     78  CZ2      -11.1550  -12.4330   18.4520 C.ar  191  TRP191      0.0191
     79  CZ3      -12.2360  -14.3410   17.4200 C.ar  191  TRP191      0.0001
     80  CH2      -11.4000  -13.8050   18.3640 C.ar  191  TRP191      0.0015
     81  N         -7.9770   -5.6590   20.2860 N.3   202  SER202     -0.1202
     82  CA        -8.1630   -6.7970   21.1660 C.3   202  SER202      0.2020
     83  C         -8.0870   -6.4600   22.6400 C.2   202  SER202      0.2619
     84  O         -7.9280   -5.3320   22.9610 O.2   202  SER202     -0.2717
     85  CB        -7.1400   -7.9290   20.7640 C.3   202  SER202      0.2103
     86  OG        -5.8830   -7.6160   21.4610 O.3   202  SER202     -0.2182
     87  N         -8.2620   -7.4570   23.5600 N.am  203  HIS203     -0.1961
     88  CA        -8.0550   -7.1690   24.9740 C.3   203  HIS203      0.1787
     89  C         -6.5960   -7.3910   25.3480 C.2   203  HIS203      0.2621
     90  O         -6.2690   -7.3640   26.5270 O.2   203  HIS203     -0.2715
     91  CB        -8.9650   -8.0720   25.8110 C.3   203  HIS203      0.0785
     92  CG       -10.3910   -7.8140   25.5700 C.ar  203  HIS203      0.0821
     93  ND1      -11.1180   -8.4350   24.5800 N.ar  203  HIS203     -0.2267
     94  CD2      -11.2790   -7.0840   26.3070 C.ar  203  HIS203      0.1154
     95  CE1      -12.3830   -8.0140   24.6690 C.ar  203  HIS203      0.1986
     96  NE2      -12.4820   -7.1600   25.6850 N.ar  203  HIS203     -0.2212
     97  N         -5.7440   -7.7110   24.3670 N.am  204  GLY204     -0.1940
     98  CA        -4.3260   -7.9160   24.7070 C.3   204  GLY204      0.2014
     99  C         -3.7320   -9.0080   23.8240 C.2   204  GLY204      0.2639
    100  O         -2.5540   -9.0550   23.6380 O.2   204  GLY204     -0.2714
    101  N         -4.5740   -9.9280   23.3580 N.am  205  CYS205     -0.1967
    102  CA        -4.0320  -10.9280   22.4750 C.3   205  CYS205      0.1712
    103  C         -3.5160  -10.4030   21.1360 C.2   205  CYS205      0.2296
    104  O         -3.8840   -9.3150   20.6730 O.2   205  CYS205     -0.2864
    105  CB        -5.1000  -11.9790   22.1670 C.3   205  CYS205      0.0983
    106  SG        -5.4220  -13.0880   23.6150 S.3   205  CYS205     -0.0798
    107  N         -4.1570  -10.8140   17.6400 N.3   207  ASN207     -0.1240
    108  CA        -5.0840  -11.3790   16.6500 C.3   207  ASN207      0.1653
    109  C         -4.4100  -11.3750   15.3060 C.2   207  ASN207      0.2266
    110  O         -3.8500  -10.3700   14.8260 O.2   207  ASN207     -0.2867
    111  CB        -6.2260  -10.3710   16.4300 C.3   207  ASN207      0.1155
    112  CG        -7.2590  -10.3030   17.5450 C.2   207  ASN207      0.2627
    113  OD1       -8.2740   -9.5870   17.3290 O.2   207  ASN207     -0.2716
    114  ND2       -6.9870  -10.8230   18.7740 N.am  207  ASN207     -0.0877
@<TRIPOS>BOND
     1    67    68    1
     2    69    68    1
     3    69    70    2
     4    68    71    1
     5    71    72    1
     6   110   109    2
     7   109   108    1
     8    72    73   ar
     9    72    74   ar
    10    60    59    2
    11   111   108    1
    12   111   112    1
    13    73    75   ar
    14    59    58    1
    15    77    74   ar
    16    77    79   ar
    17    74    76   ar
    18   108   107    1
    19   113   112    2
    20    79    80   ar
    21    75    76   ar
    22   112   114   am
    23    76    78   ar
    24    58    57    1
    25    58    61    1
    26    80    78   ar
    27    63    65   ar
    28    63    62   ar
    29    61    62    1
    30    65    66   ar
    31    62    64   ar
    32    66    64   ar
    33    81    82    1
    34   104   103    2
    35    85    82    1
    36    85    86    1
    37   103   102    1
    38    82    83    1
    39    39    37    1
    40   105   102    1
    41   105   106    1
    42   102   101    1
    43    83    84    2
    44    83    87   am
    45    35    36    2
    46    35    34    1
    47    37    34    1
    48    37    38    1
    49     8     7    1
    50   101    99   am
    51    87    88    1
    52    34    33    1
    53   100    99    2
    54    99    98    1
    55     7     6    1
    56    55    54    1
    57    97    98    1
    58    97    89   am
    59    93    95   ar
    60    93    92   ar
    61    95    96   ar
    62     6     5    1
    63    88    89    1
    64    88    91    1
    65    52    53    2
    66    52    51    1
    67    89    90    2
    68    92    91    1
    69    92    94   ar
    70    96    94   ar
    71     1     2    1
    72    54    51    1
    73    54    56    1
    74     5     2    1
    75    51    50    1
    76    25    26    1
    77    25    22    1
    78     2     3    1
    79     4     3    2
    80    27    26   ar
    81    27    29   ar
    82    26    28   ar
    83    49    48    2
    84    50    48   am
    85    28    30   ar
    86    22    23    1
    87    22    21    1
    88    29    31   ar
    89    48    47    1
    90    23    24    2
    91    31    30   ar
    92    31    32    1
    93    47    46    1
    94    46    42   am
    95    20    19    1
    96    45    44    1
    97    18    19   ar
    98    18    16   ar
    99    42    43    2
   100    42    41    1
   101    19    17   ar
   102    16    14   ar
   103    40    41    1
   104    44    41    1
   105    17    15   ar
   106    14    15   ar
   107    14    13    1
   108    13    10    1
   109     9    10    1
   110    10    11    1
   111    11    12    2
