@<TRIPOS>MOLECULE
tmp/3tusA03.pdb
 80 79 0 0 0
SMALL
GASTEIGER

@<TRIPOS>ATOM
      1  N         18.4730   16.2510   10.6610 N.3    89  THR89      -0.1203
      2  CA        18.0210   14.8780   10.4160 C.3    89  THR89       0.1994
      3  C         16.6130   14.8880    9.7830 C.2    89  THR89       0.2618
      4  O         15.8580   15.8580    9.9040 O.2    89  THR89      -0.2717
      5  CB        17.9840   14.0770   11.7470 C.3    89  THR89       0.1784
      6  OG1       17.0780   14.6970   12.6750 O.3    89  THR89      -0.2211
      7  CG2       19.3800   14.0260   12.3500 C.3    89  THR89       0.0376
      8  N         16.2370   13.7990    9.1330 N.am   90  GLU90      -0.1965
      9  CA        14.9390   13.7510    8.4740 C.3    90  GLU90       0.1733
     10  C         13.8240   12.9870    9.1640 C.2    90  GLU90       0.2616
     11  O         12.6570   13.3950    9.1010 O.2    90  GLU90      -0.2715
     12  CB        15.1150   13.1750    7.0480 C.3    90  GLU90       0.0429
     13  CG        16.1130   13.9540    6.1680 C.3    90  GLU90       0.1163
     14  CD        15.8730   13.8480    4.6640 C.2    90  GLU90       0.3649
     15  OE1       14.7910   13.3870    4.2480 O.co2  90  GLU90      -0.2457
     16  OE2       16.7740   14.2570    3.8950 O.co2  90  GLU90      -0.2457
     17  N         14.2040   11.9260    9.8690 N.am   91  GLY91      -0.1955
     18  CA        13.2270   11.0800   10.5190 C.3    91  GLY91       0.1869
     19  C         13.0980    9.9410    9.4930 C.2    91  GLY91       0.2309
     20  O         13.1100   10.1930    8.2770 O.2    91  GLY91      -0.2863
     21  N          6.3790    8.7280   10.8860 N.3   250  VAL250     -0.1231
     22  CA         7.7620    9.1290   10.6010 C.3   250  VAL250      0.1692
     23  C          8.3900    8.9950   12.0020 C.2   250  VAL250      0.2592
     24  O          7.7970    9.3490   13.0360 O.2   250  VAL250     -0.2718
     25  CB         7.9450   10.5860   10.1020 C.3   250  VAL250      0.0266
     26  CG1        9.4320   10.9610   10.2040 C.3   250  VAL250      0.0020
     27  CG2        7.5170   10.6730    8.6340 C.3   250  VAL250      0.0020
     28  N          9.6150    8.4870   12.0120 N.am  251  ALA251     -0.1966
     29  CA        10.3710    8.1930   13.2180 C.3   251  ALA251      0.1713
     30  C         11.6230    8.9970   13.4410 C.2   251  ALA251      0.2458
     31  O         12.3690    9.2620   12.5050 O.2   251  ALA251     -0.2730
     32  CB        10.7200    6.7130   13.1930 C.3   251  ALA251      0.0333
     33  N         11.8780    9.3900   14.6960 N.am  252  PRO252     -0.2716
     34  CA        13.0700   10.1700   15.0320 C.3   252  PRO252      0.1536
     35  C         14.2900    9.2980   14.7880 C.2   252  PRO252      0.2598
     36  O         14.3260    8.1290   15.1830 O.2   252  PRO252     -0.2715
     37  CB        12.8810   10.4840   16.5150 C.3   252  PRO252      0.0310
     38  CG        11.8790    9.4420   16.9650 C.3   252  PRO252      0.0237
     39  CD        10.9360    9.3840   15.8200 C.3   252  PRO252      0.0939
     40  N         15.3030    9.8450   14.1460 N.am  253  ASN253     -0.1973
     41  CA        16.4820    9.0510   13.9080 C.3   253  ASN253      0.1688
     42  C         17.0740    8.5700   15.2020 C.2   253  ASN253      0.2292
     43  O         16.9940    9.2390   16.2380 O.2   253  ASN253     -0.2864
     44  CB        17.5810    9.8650   13.2230 C.3   253  ASN253      0.1181
     45  CG        17.2680   10.1990   11.7850 C.2   253  ASN253      0.2629
     46  OD1       16.7510    9.3700   11.0500 O.2   253  ASN253     -0.2716
     47  ND2       17.5940   11.4100   11.3720 N.am  253  ASN253     -0.0877
     48  N         11.8870   17.0570   23.3180 N.3   318  GLU318     -0.1231
     49  CA        11.9650   17.8910   22.1330 C.3   318  GLU318      0.1699
     50  C         12.5590   17.0700   20.9910 C.2   318  GLU318      0.2592
     51  O         12.1190   17.2160   19.8510 O.2   318  GLU318     -0.2718
     52  CB        12.8520   19.1010   22.3850 C.3   318  GLU318      0.0402
     53  CG        12.2600   20.0810   23.3420 C.3   318  GLU318      0.1161
     54  CD        13.3010   21.0110   23.8770 C.2   318  GLU318      0.3649
     55  OE1       14.3330   20.5000   24.3670 O.co2 318  GLU318     -0.2457
     56  OE2       13.0810   22.2340   23.8090 O.co2 318  GLU318     -0.2457
     57  N         13.5530   16.2200   21.2810 N.am  319  TYR319     -0.1962
     58  CA        14.1630   15.4110   20.2220 C.3   319  TYR319      0.1771
     59  C         13.1820   14.3460   19.7400 C.2   319  TYR319      0.2619
     60  O         13.0340   14.1720   18.5390 O.2   319  TYR319     -0.2715
     61  CB        15.4590   14.7160   20.6660 C.3   319  TYR319      0.0574
     62  CG        16.0770   13.8980   19.5430 C.ar  319  TYR319     -0.0198
     63  CD1       16.9210   14.4850   18.5990 C.ar  319  TYR319     -0.0009
     64  CD2       15.7440   12.5510   19.3790 C.ar  319  TYR319     -0.0009
     65  CE1       17.4100   13.7530   17.5200 C.ar  319  TYR319      0.0417
     66  CE2       16.2290   11.8110   18.3060 C.ar  319  TYR319      0.0417
     67  CZ        17.0600   12.4200   17.3810 C.ar  319  TYR319      0.1957
     68  OH        17.5630   11.6990   16.3270 O.3   319  TYR319     -0.2866
     69  N         12.5120   13.6400   20.6540 N.am  320  LEU320     -0.1963
     70  CA        11.5440   12.6200   20.2390 C.3   320  LEU320      0.1728
     71  C         10.2640   13.2650   19.6790 C.2   320  LEU320      0.2616
     72  O          9.5330   12.6320   18.9100 O.2   320  LEU320     -0.2715
     73  CB        11.1920   11.6620   21.4010 C.3   320  LEU320      0.0311
     74  CG        12.2720   10.6390   21.8420 C.3   320  LEU320      0.0022
     75  CD1       11.6370    9.6510   22.8290 C.3   320  LEU320      0.0001
     76  CD2       12.8480    9.8890   20.6200 C.3   320  LEU320      0.0001
     77  N         10.0020   14.5210   20.0510 N.am  321  GLY321     -0.1955
     78  CA         8.8250   15.2210   19.5540 C.3   321  GLY321      0.1869
     79  C          7.5750   14.9370   20.3570 C.2   321  GLY321      0.2309
     80  O          7.3790   13.8010   20.7920 O.2   321  GLY321     -0.2863
@<TRIPOS>BOND
     1    16    14   ar
     2    15    14   ar
     3    14    13    1
     4    13    12    1
     5    12     9    1
     6    20    19    2
     7     9     8    1
     8     9    10    1
     9    27    25    1
    10    11    10    2
    11     8     3   am
    12    10    17   am
    13    19    18    1
    14     3     4    2
    15     3     2    1
    16    17    18    1
    17    25    26    1
    18    25    22    1
    19     2     1    1
    20     2     5    1
    21    22    21    1
    22    22    23    1
    23    46    45    2
    24    47    45   am
    25     5     7    1
    26     5     6    1
    27    45    44    1
    28    23    28   am
    29    23    24    2
    30    28    29    1
    31    31    30    2
    32    32    29    1
    33    29    30    1
    34    44    41    1
    35    30    33   am
    36    41    40    1
    37    41    42    1
    38    40    35   am
    39    33    34    1
    40    33    39    1
    41    35    34    1
    42    35    36    2
    43    34    37    1
    44    42    43    2
    45    39    38    1
    46    68    67    1
    47    37    38    1
    48    67    65   ar
    49    67    66   ar
    50    65    63   ar
    51    66    64   ar
    52    60    59    2
    53    63    62   ar
    54    72    71    2
    55    64    62   ar
    56    62    61    1
    57    78    77    1
    58    78    79    1
    59    71    77   am
    60    71    70    1
    61    59    58    1
    62    59    69   am
    63    51    50    2
    64    58    61    1
    65    58    57    1
    66    70    69    1
    67    70    73    1
    68    79    80    2
    69    76    74    1
    70    50    57   am
    71    50    49    1
    72    73    74    1
    73    74    75    1
    74    49    52    1
    75    49    48    1
    76    52    53    1
    77    53    54    1
    78    56    54   ar
    79    54    55   ar
