@<TRIPOS>MOLECULE
tmp/3tuvA01.pdb
 104 98 0 0 0
SMALL
GASTEIGER

@<TRIPOS>ATOM
      1  N        -31.9430   20.6860   25.6250 N.3   388  ARG388     -0.1245
      2  CA       -31.5480   19.2940   25.7700 C.3   388  ARG388      0.1563
      3  C        -32.1220   18.7700   27.0820 C.2   388  ARG388      0.2260
      4  O        -31.9680   19.4240   28.1180 O.2   388  ARG388     -0.2867
      5  CB       -30.0260   19.1890   25.8080 C.3   388  ARG388      0.0307
      6  CG       -29.3520   19.1230   24.4530 C.3   388  ARG388      0.0489
      7  CD       -29.0950   17.6780   24.0580 C.3   388  ARG388      0.2205
      8  NE       -27.8950   17.5170   23.2370 N.pl3 388  ARG388     -0.0865
      9  CZ       -27.3150   16.3440   22.9760 C.cat 388  ARG388      0.5346
     10  NH1      -27.8180   15.2140   23.4690 N.pl3 388  ARG388      0.1354
     11  NH2      -26.2270   16.2990   22.2160 N.pl3 388  ARG388      0.1354
     12  N        -26.5700   38.0930   18.7380 N.3   576  SER576     -0.1217
     13  CA       -25.1500   37.8540   18.9580 C.3   576  SER576      0.1889
     14  C        -24.3900   37.6240   17.6560 C.2   576  SER576      0.2288
     15  O        -24.9550   37.1390   16.6720 O.2   576  SER576     -0.2866
     16  CB       -24.9600   36.6530   19.8840 C.3   576  SER576      0.2089
     17  OG       -25.2420   35.4400   19.2040 O.3   576  SER576     -0.2183
     18  N        -26.1310   35.2390   14.9310 N.3   591  LYS591     -0.1245
     19  CA       -27.2750   34.4240   15.3390 C.3   591  LYS591      0.1561
     20  C        -28.1660   35.1440   16.3490 C.2   591  LYS591      0.2260
     21  O        -27.7100   36.0200   17.0870 O.2   591  LYS591     -0.2867
     22  CB       -26.8210   33.0550   15.8640 C.3   591  LYS591      0.0271
     23  CG       -25.6580   33.1060   16.8290 C.3   591  LYS591      0.0035
     24  CD       -25.0730   31.7200   17.0670 C.3   591  LYS591      0.0206
     25  CE       -23.6760   31.8020   17.6920 C.3   591  LYS591      0.1093
     26  NZ       -22.6760   32.4800   16.7990 N.3   591  LYS591     -0.1314
     27  N        -28.2470    7.7990   19.4450 N.3   851  ARG851     -0.1245
     28  CA       -27.3510    8.9450   19.6050 C.3   851  ARG851      0.1563
     29  C        -27.1820    9.7410   18.3160 C.2   851  ARG851      0.2260
     30  O        -27.1740   10.9750   18.3390 O.2   851  ARG851     -0.2867
     31  CB       -25.9770    8.4940   20.1020 C.3   851  ARG851      0.0307
     32  CG       -25.9510    8.0840   21.5570 C.3   851  ARG851      0.0489
     33  CD       -24.5400    7.7890   22.0240 C.3   851  ARG851      0.2205
     34  NE       -24.4490    7.9020   23.4770 N.pl3 851  ARG851     -0.0865
     35  CZ       -24.3850    6.8760   24.3220 C.cat 851  ARG851      0.5346
     36  NH1      -24.3060    7.1070   25.6220 N.pl3 851  ARG851      0.1354
     37  NH2      -24.3900    5.6230   23.8760 N.pl3 851  ARG851      0.1354
     38  N        -30.6880   11.2040   17.1980 N.3   854  ASP854     -0.1225
     39  CA       -31.1160   12.2400   18.1400 C.3   854  ASP854      0.1805
     40  C        -31.1770   13.6060   17.4510 C.2   854  ASP854      0.2598
     41  O        -30.1460   14.2240   17.1840 O.2   854  ASP854     -0.2718
     42  CB       -30.1610   12.2750   19.3430 C.3   854  ASP854      0.1424
     43  CG       -30.6520   13.1740   20.4780 C.2   854  ASP854      0.3668
     44  OD1      -31.8130   13.6450   20.4450 O.co2 854  ASP854     -0.2456
     45  OD2      -29.8570   13.4040   21.4180 O.co2 854  ASP854     -0.2456
     46  N        -32.3980   14.0470   17.1530 N.am  855  LYS855     -0.1966
     47  CA       -32.6510   15.2710   16.3830 C.3   855  LYS855      0.1713
     48  C        -32.2880   16.5470   17.1500 C.2   855  LYS855      0.2458
     49  O        -32.4420   16.5950   18.3700 O.2   855  LYS855     -0.2730
     50  CB       -34.1320   15.3410   15.9760 C.3   855  LYS855      0.0311
     51  CG       -34.5670   14.3710   14.8800 C.3   855  LYS855      0.0038
     52  CD       -34.3080   14.9330   13.4770 C.3   855  LYS855      0.0206
     53  CE       -35.3100   14.3780   12.4640 C.3   855  LYS855      0.1093
     54  NZ       -35.3370   15.1690   11.1960 N.3   855  LYS855     -0.1314
     55  N        -31.8150   17.5890   16.4340 N.am  856  PRO856     -0.2716
     56  CA       -31.6070   18.8970   17.0670 C.3   856  PRO856      0.1536
     57  C        -32.9140   19.4560   17.6230 C.2   856  PRO856      0.2598
     58  O        -33.9710   19.2780   17.0110 O.2   856  PRO856     -0.2715
     59  CB       -31.1040   19.7750   15.9120 C.3   856  PRO856      0.0310
     60  CG       -30.5520   18.8160   14.9130 C.3   856  PRO856      0.0237
     61  CD       -31.4360   17.6100   15.0090 C.3   856  PRO856      0.0939
     62  N        -32.8330   20.1100   18.7800 N.am  857  LYS857     -0.1964
     63  CA       -34.0050   20.6840   19.4410 C.3   857  LYS857      0.1728
     64  C        -34.1570   22.1660   19.1020 C.2   857  LYS857      0.2616
     65  O        -35.2400   22.7320   19.2480 O.2   857  LYS857     -0.2715
     66  CB       -33.9210   20.5180   20.9670 C.3   857  LYS857      0.0311
     67  CG       -33.4470   19.1540   21.4770 C.3   857  LYS857      0.0038
     68  CD       -34.4570   18.0500   21.1950 C.3   857  LYS857      0.0206
     69  CE       -33.9650   16.7090   21.7260 C.3   857  LYS857      0.1093
     70  NZ       -32.8010   16.1700   20.9660 N.3   857  LYS857     -0.1314
     71  N        -33.0660   22.7820   18.6500 N.am  858  LYS858     -0.1977
     72  CA       -33.0410   24.2160   18.3450 C.3   858  LYS858      0.1596
     73  C        -32.3880   24.5360   16.9940 C.2   858  LYS858      0.2287
     74  O        -31.7770   23.6620   16.3600 O.2   858  LYS858     -0.2864
     75  CB       -32.3540   24.9920   19.4740 C.3   858  LYS858      0.0298
     76  CG       -30.9780   24.4750   19.8610 C.3   858  LYS858      0.0038
     77  CD       -30.4030   25.2860   21.0030 C.3   858  LYS858      0.0206
     78  CE       -29.0980   24.7010   21.4950 C.3   858  LYS858      0.1093
     79  NZ       -28.4210   25.6180   22.4590 N.3   858  LYS858     -0.1314
     80  N        -29.8160   26.8310   16.0760 N.3   860  SER860     -0.1202
     81  CA       -28.3570   26.9210   16.0390 C.3   860  SER860      0.2020
     82  C        -27.6810   25.5480   16.0350 C.2   860  SER860      0.2618
     83  O        -26.6460   25.3710   15.3970 O.2   860  SER860     -0.2717
     84  CB       -27.8350   27.7870   17.1910 C.3   860  SER860      0.2103
     85  OG       -28.3870   27.3800   18.4280 O.3   860  SER860     -0.2182
     86  N        -28.2830   24.5870   16.7360 N.am  861  ALA861     -0.1979
     87  CA       -27.7910   23.2080   16.7810 C.3   861  ALA861      0.1597
     88  C        -27.9170   22.5030   15.4310 C.2   861  ALA861      0.2287
     89  O        -27.0190   21.7610   15.0320 O.2   861  ALA861     -0.2864
     90  CB       -28.5220   22.4230   17.8530 C.3   861  ALA861      0.0319
     91  N        -25.3770   24.3930   13.1220 N.3   864  ALA864     -0.1231
     92  CA       -23.9860   23.9800   13.3210 C.3   864  ALA864      0.1694
     93  C        -23.7320   22.6310   12.6610 C.2   864  ALA864      0.2591
     94  O        -22.6570   22.3940   12.1070 O.2   864  ALA864     -0.2718
     95  CB       -23.6440   23.9250   14.8050 C.3   864  ALA864      0.0304
     96  N        -24.7390   21.7630   12.7290 N.am  865  LYS865     -0.1980
     97  CA       -24.7530   20.4800   12.0390 C.3   865  LYS865      0.1596
     98  C        -24.5310   20.6590   10.5310 C.2   865  LYS865      0.2287
     99  O        -23.6770   19.9940    9.9410 O.2   865  LYS865     -0.2864
    100  CB       -26.0880   19.7840   12.3110 C.3   865  LYS865      0.0298
    101  CG       -26.1590   18.3260   11.9090 C.3   865  LYS865      0.0038
    102  CD       -27.6000   17.8370   11.9790 C.3   865  LYS865      0.0206
    103  CE       -27.6920   16.3390   11.7570 C.3   865  LYS865      0.1093
    104  NZ       -27.2040   15.5910   12.9500 N.3   865  LYS865     -0.1314
@<TRIPOS>BOND
     1    99    98    2
     2    98    97    1
     3    54    53    1
     4   103   102    1
     5   103   104    1
     6   101   102    1
     7   101   100    1
     8    97   100    1
     9    97    96    1
    10    94    93    2
    11    53    52    1
    12    93    96   am
    13    93    92    1
    14    91    92    1
    15    92    95    1
    16    52    51    1
    17    51    50    1
    18    60    61    1
    19    60    59    1
    20    18    19    1
    21    61    55    1
    22    89    88    2
    23    19    22    1
    24    19    20    1
    25    83    82    2
    26    88    87    1
    27    22    23    1
    28    59    56    1
    29    50    47    1
    30    82    81    1
    31    82    86   am
    32    81    80    1
    33    81    84    1
    34    20    21    2
    35    74    73    2
    36    47    48    1
    37    47    46    1
    38    55    56    1
    39    55    48   am
    40    15    14    2
    41    86    87    1
    42    87    90    1
    43    26    25    1
    44    23    24    1
    45    73    72    1
    46    58    57    2
    47    24    25    1
    48    56    57    1
    49    48    49    2
    50    46    40   am
    51    41    40    2
    52    84    85    1
    53    38    39    1
    54    40    39    1
    55    57    62   am
    56    14    13    1
    57    39    42    1
    58    29    30    2
    59    29    28    1
    60    72    71    1
    61    72    75    1
    62    71    64   am
    63    12    13    1
    64    62    63    1
    65    13    16    1
    66    64    65    2
    67    64    63    1
    68    17    16    1
    69    42    43    1
    70    63    66    1
    71    27    28    1
    72    75    76    1
    73    28    31    1
    74    76    77    1
    75    31    32    1
    76    44    43   ar
    77    43    45   ar
    78    70    69    1
    79    66    67    1
    80    77    78    1
    81    68    67    1
    82    68    69    1
    83    78    79    1
    84    32    33    1
    85    33    34    1
    86    11     9    1
    87     9     8    2
    88     9    10    1
    89     8     7    1
    90    34    35    2
    91    37    35    1
    92     7     6    1
    93    35    36    1
    94     6     5    1
    95     1     2    1
    96     2     5    1
    97     2     3    1
    98     3     4    2
