@<TRIPOS>MOLECULE
tmp/3tuzC00.pdb
 102 100 0 0 0
SMALL
GASTEIGER

@<TRIPOS>ATOM
      1  N        -32.3800   10.5150   24.1260 N.3   274  PHE274     -0.1241
      2  CA       -33.4530   11.4800   24.3720 C.3   274  PHE274      0.1605
      3  C        -32.9740   12.5370   25.3480 C.2   274  PHE274      0.2264
      4  O        -32.4320   12.2050   26.3940 O.2   274  PHE274     -0.2867
      5  CB       -34.6740   10.7810   24.9720 C.3   274  PHE274      0.0534
      6  CG       -35.2800    9.7480   24.0680 C.ar  274  PHE274     -0.0203
      7  CD1      -36.4930    9.9920   23.4280 C.ar  274  PHE274     -0.0042
      8  CD2      -34.6210    8.5460   23.8210 C.ar  274  PHE274     -0.0042
      9  CE1      -37.0500    9.0460   22.5730 C.ar  274  PHE274     -0.0003
     10  CE2      -35.1670    7.5990   22.9680 C.ar  274  PHE274     -0.0003
     11  CZ       -36.3810    7.8420   22.3440 C.ar  274  PHE274     -0.0000
     12  N        -37.9560   12.7140   26.5190 N.3   279  VAL279     -0.1231
     13  CA       -37.7810   11.4980   27.2730 C.3   279  VAL279      0.1692
     14  C        -39.1010   10.8050   27.6010 C.2   279  VAL279      0.2592
     15  O        -39.1810    9.5810   27.5870 O.2   279  VAL279     -0.2718
     16  CB       -36.9940   11.7770   28.5380 C.3   279  VAL279      0.0266
     17  CG1      -36.9740   10.5290   29.4130 C.3   279  VAL279      0.0020
     18  CG2      -35.6020   12.1560   28.1480 C.3   279  VAL279      0.0020
     19  N        -40.1050   11.5910   27.9860 N.am  280  ASP280     -0.1960
     20  CA       -41.4050   11.0680   28.4210 C.3   280  ASP280      0.1840
     21  C        -42.4310   10.9870   27.3060 C.2   280  ASP280      0.2622
     22  O        -43.5050   10.3870   27.4470 O.2   280  ASP280     -0.2715
     23  CB       -41.9850   11.8890   29.5730 C.3   280  ASP280      0.1450
     24  CG       -41.1800   11.7720   30.8240 C.2   280  ASP280      0.3671
     25  OD1      -40.6460   10.6710   31.0550 O.co2 280  ASP280     -0.2456
     26  OD2      -41.1060   12.7600   31.5850 O.co2 280  ASP280     -0.2456
     27  N        -42.1060   11.6090   26.1910 N.am  281  ALA281     -0.1964
     28  CA       -42.9910   11.5630   25.0450 C.3   281  ALA281      0.1713
     29  C        -42.9630   10.1820   24.3870 C.2   281  ALA281      0.2458
     30  O        -41.8970    9.6820   24.0630 O.2   281  ALA281     -0.2730
     31  CB       -42.6080   12.6500   24.0550 C.3   281  ALA281      0.0333
     32  N        -44.1410    9.5520   24.2100 N.am  282  PRO282     -0.2716
     33  CA       -44.1890    8.2370   23.5670 C.3   282  PRO282      0.1536
     34  C        -43.8850    8.3260   22.0860 C.2   282  PRO282      0.2598
     35  O        -44.7590    8.0430   21.2870 O.2   282  PRO282     -0.2715
     36  CB       -45.6420    7.7870   23.7920 C.3   282  PRO282      0.0310
     37  CG       -46.4190    9.0240   23.9120 C.3   282  PRO282      0.0237
     38  CD       -45.4910   10.0480   24.5440 C.3   282  PRO282      0.0939
     39  N        -42.6500    8.6520   21.7320 N.am  283  LEU283     -0.1964
     40  CA       -42.2800    8.8870   20.3380 C.3   283  LEU283      0.1728
     41  C        -42.0930    7.6240   19.4850 C.2   283  LEU283      0.2616
     42  O        -42.2230    7.6760   18.2600 O.2   283  LEU283     -0.2715
     43  CB       -41.0150    9.7340   20.2580 C.3   283  LEU283      0.0311
     44  CG       -41.0080   11.0650   21.0200 C.3   283  LEU283      0.0022
     45  CD1      -39.6160   11.6910   20.9310 C.3   283  LEU283      0.0001
     46  CD2      -42.0590   12.0520   20.5130 C.3   283  LEU283      0.0001
     47  N        -41.7560    6.5040   20.1230 N.am  284  LEU284     -0.1963
     48  CA       -41.5890    5.2340   19.4180 C.3   284  LEU284      0.1728
     49  C        -42.9120    4.6110   18.9780 C.2   284  LEU284      0.2616
     50  O        -42.9460    3.9330   17.9480 O.2   284  LEU284     -0.2715
     51  CB       -40.8220    4.2590   20.2840 C.3   284  LEU284      0.0311
     52  CG       -39.3510    4.6110   20.3390 C.3   284  LEU284      0.0022
     53  CD1      -38.5440    3.4890   20.9040 C.3   284  LEU284      0.0001
     54  CD2      -38.9010    4.9490   18.9580 C.3   284  LEU284      0.0001
     55  N        -43.9880    4.8330   19.7520 N.am  285  SER285     -0.1950
     56  CA       -45.3520    4.4420   19.3430 C.3   285  SER285      0.1924
     57  C        -45.8650    5.3270   18.2120 C.2   285  SER285      0.2314
     58  O        -46.4260    4.8390   17.2230 O.2   285  SER285     -0.2863
     59  CB       -46.3690    4.4710   20.5040 C.3   285  SER285      0.2116
     60  OG       -46.1670    3.4310   21.4420 O.3   285  SER285     -0.2180
     61  N        -33.4350   -0.2010   26.8570 N.3   300  ALA300     -0.1231
     62  CA       -33.6320    1.2200   27.0140 C.3   300  ALA300      0.1694
     63  C        -33.8150    1.5170   28.4890 C.2   300  ALA300      0.2592
     64  O        -34.3480    0.7130   29.2390 O.2   300  ALA300     -0.2718
     65  CB       -34.8360    1.7040   26.2000 C.3   300  ALA300      0.0304
     66  N        -33.3560    2.6940   28.8840 N.am  301  GLN301     -0.1966
     67  CA       -33.4520    3.1880   30.2520 C.3   301  GLN301      0.1733
     68  C        -33.4510    4.7140   30.3040 C.2   301  GLN301      0.2616
     69  O        -32.8820    5.3770   29.4560 O.2   301  GLN301     -0.2715
     70  CB       -32.3010    2.6440   31.0880 C.3   301  GLN301      0.0408
     71  CG       -32.3510    3.0390   32.5360 C.3   301  GLN301      0.0908
     72  CD       -33.5210    2.4560   33.2660 C.2   301  GLN301      0.2608
     73  OE1      -33.6340    1.2510   33.4070 O.2   301  GLN301     -0.2717
     74  NE2      -34.4230    3.3110   33.7090 N.am  301  GLN301     -0.0878
     75  N        -34.1210    5.2700   31.3000 N.am  302  MET302     -0.1977
     76  CA       -34.1220    6.7130   31.5190 C.3   302  MET302      0.1605
     77  C        -33.6740    7.0310   32.9450 C.2   302  MET302      0.2287
     78  O        -33.8390    6.1980   33.8270 O.2   302  MET302     -0.2864
     79  CB       -35.5110    7.3180   31.2590 C.3   302  MET302      0.0413
     80  CG       -36.6750    6.6910   32.0720 C.3   302  MET302      0.0598
     81  SD       -38.1730    7.6940   32.1300 S.3   302  MET302     -0.1393
     82  CE       -38.7890    7.5440   30.4660 C.3   302  MET302      0.0692
     83  N        -32.2530    9.9120   28.8970 N.3   311  GLY311     -0.1210
     84  CA       -32.4390    8.4990   28.6710 C.3   311  GLY311      0.1956
     85  C        -31.8240    8.0830   27.3640 C.2   311  GLY311      0.2612
     86  O        -31.4980    8.9120   26.5320 O.2   311  GLY311     -0.2717
     87  N        -31.5750    6.7890   27.2360 N.am  312  ILE312     -0.1965
     88  CA       -31.0280    6.2160   26.0170 C.3   312  ILE312      0.1727
     89  C        -31.7560    4.9290   25.6090 C.2   312  ILE312      0.2616
     90  O        -32.2930    4.2200   26.4540 O.2   312  ILE312     -0.2715
     91  CB       -29.5180    5.9740   26.1390 C.3   312  ILE312      0.0290
     92  CG1      -28.7930    7.3050   26.3690 C.3   312  ILE312      0.0022
     93  CG2      -28.9580    5.3810   24.8710 C.3   312  ILE312      0.0023
     94  CD1      -27.4830    7.2210   27.1360 C.3   312  ILE312      0.0001
     95  N        -31.8590    4.7040   24.2940 N.am  313  MET313     -0.1977
     96  CA       -32.4560    3.4890   23.6930 C.3   313  MET313      0.1605
     97  C        -31.5370    2.7970   22.6940 C.2   313  MET313      0.2287
     98  O        -30.8090    3.4590   21.9600 O.2   313  MET313     -0.2864
     99  CB       -33.7290    3.8040   22.9290 C.3   313  MET313      0.0413
    100  CG       -34.9570    3.8930   23.7120 C.3   313  MET313      0.0598
    101  SD       -36.2080    3.1370   22.6760 S.3   313  MET313     -0.1393
    102  CE       -37.4680    2.8490   23.9410 C.3   313  MET313      0.0692
@<TRIPOS>BOND
     1    58    57    2
     2    50    49    2
     3    57    56    1
     4    42    41    2
     5    54    52    1
     6    49    48    1
     7    49    55   am
     8    56    55    1
     9    56    59    1
    10    48    47    1
    11    48    51    1
    12    41    47   am
    13    41    40    1
    14    43    40    1
    15    43    44    1
    16    51    52    1
    17    40    39    1
    18    52    53    1
    19    59    60    1
    20    46    44    1
    21    45    44    1
    22    35    34    2
    23    39    34   am
    24    98    97    2
    25    34    33    1
    26    11     9   ar
    27    11    10   ar
    28     9     7   ar
    29   101   100    1
    30   101   102    1
    31    97    96    1
    32    99    96    1
    33    99   100    1
    34    10     8   ar
    35     7     6   ar
    36    33    36    1
    37    33    32    1
    38    96    95    1
    39    36    37    1
    40     8     6   ar
    41    37    38    1
    42    31    28    1
    43    30    29    2
    44     6     5    1
    45     1     2    1
    46    32    29   am
    47    32    38    1
    48    95    89   am
    49     2     5    1
    50     2     3    1
    51    29    28    1
    52    93    91    1
    53    28    27    1
    54     3     4    2
    55    89    88    1
    56    89    90    2
    57    88    91    1
    58    88    87    1
    59    91    92    1
    60    27    21   am
    61    65    62    1
    62    92    94    1
    63    12    13    1
    64    86    85    2
    65    61    62    1
    66    62    63    1
    67    87    85   am
    68    13    14    1
    69    13    16    1
    70    21    22    2
    71    21    20    1
    72    85    84    1
    73    15    14    2
    74    14    19   am
    75    19    20    1
    76    18    16    1
    77    20    23    1
    78    63    66   am
    79    63    64    2
    80    16    17    1
    81    84    83    1
    82    66    67    1
    83    69    68    2
    84    23    24    1
    85    67    68    1
    86    67    70    1
    87    68    75   am
    88    82    81    1
    89    24    25   ar
    90    24    26   ar
    91    70    71    1
    92    79    76    1
    93    79    80    1
    94    75    76    1
    95    76    77    1
    96    80    81    1
    97    71    72    1
    98    77    78    2
    99    72    73    2
   100    72    74   am
