@<TRIPOS>MOLECULE
tmp/3tv3B00.pdb
 113 118 0 0 0
SMALL
GASTEIGER

@<TRIPOS>ATOM
      1  N        -16.9200   -6.1710   28.0930 N.3    48  TRP48      -0.1241
      2  CA       -16.2970   -5.1720   28.9570 C.3    48  TRP48       0.1605
      3  C        -14.9890   -5.6970   29.5060 C.2    48  TRP48       0.2264
      4  O        -14.9280   -6.8260   29.9770 O.2    48  TRP48      -0.2867
      5  CB       -17.2370   -4.8810   30.1130 C.3    48  TRP48       0.0550
      6  CG       -16.7820   -3.8820   31.1270 C.ar   48  TRP48       0.0003
      7  CD1      -16.3850   -2.5920   30.9130 C.ar   48  TRP48       0.0946
      8  CD2      -16.7570   -4.0780   32.5410 C.ar   48  TRP48       0.0152
      9  NE1      -16.0920   -1.9830   32.1120 N.ar   48  TRP48      -0.2442
     10  CE2      -16.3230   -2.8730   33.1240 C.ar   48  TRP48       0.0810
     11  CE3      -17.0570   -5.1610   33.3740 C.ar   48  TRP48       0.0012
     12  CZ2      -16.1850   -2.7210   34.4940 C.ar   48  TRP48       0.0191
     13  CZ3      -16.9200   -5.0070   34.7240 C.ar   48  TRP48       0.0001
     14  CH2      -16.4820   -3.7960   35.2780 C.ar   48  TRP48       0.0015
     15  N        -12.1980    8.2380   51.0510 N.3    59  TRP59      -0.1227
     16  CA       -11.7760    6.9230   51.5540 C.3    59  TRP59       0.1737
     17  C        -10.9320    6.0840   50.5730 C.2    59  TRP59       0.2595
     18  O        -10.6800    4.8970   50.8190 O.2    59  TRP59      -0.2718
     19  CB       -12.9890    6.1060   52.0290 C.3    59  TRP59       0.0564
     20  CG       -13.9950    5.7670   50.9570 C.ar   59  TRP59       0.0003
     21  CD1      -14.0190    4.6460   50.1740 C.ar   59  TRP59       0.0946
     22  CD2      -15.1330    6.5470   50.5720 C.ar   59  TRP59       0.0152
     23  NE1      -15.0950    4.6860   49.3220 N.ar   59  TRP59      -0.2442
     24  CE2      -15.7940    5.8430   49.5430 C.ar   59  TRP59       0.0810
     25  CE3      -15.6520    7.7750   50.9910 C.ar   59  TRP59       0.0012
     26  CZ2      -16.9490    6.3240   48.9340 C.ar   59  TRP59       0.0191
     27  CZ3      -16.8020    8.2530   50.3770 C.ar   59  TRP59       0.0001
     28  CH2      -17.4350    7.5270   49.3590 C.ar   59  TRP59       0.0015
     29  N        -10.4830    6.6810   49.4760 N.am   60  ASN60      -0.1974
     30  CA        -9.6370    5.9580   48.5290 C.3    60  ASN60       0.1688
     31  C         -8.7570    6.9240   47.7440 C.2    60  ASN60       0.2292
     32  O         -8.6710    8.1050   48.0870 O.2    60  ASN60      -0.2864
     33  CB       -10.4930    5.1100   47.5890 C.3    60  ASN60       0.1181
     34  CG       -11.5030    5.9370   46.8160 C.2    60  ASN60       0.2629
     35  OD1      -11.2180    7.0610   46.3800 O.2    60  ASN60      -0.2716
     36  ND2      -12.7030    5.3930   46.6610 N.am   60  ASN60      -0.0877
     37  N         -9.0730    6.8760   44.2570 N.3    62  GLY62      -0.1210
     38  CA        -9.6430    6.6740   42.9380 C.3    62  GLY62       0.1956
     39  C        -10.4590    5.4010   42.9310 C.2    62  GLY62       0.2612
     40  O        -10.7420    4.8280   43.9920 O.2    62  GLY62      -0.2717
     41  N        -10.8170    4.9590   41.7320 N.am   63  TRP63      -0.1962
     42  CA       -11.7330    3.8500   41.5330 C.3    63  TRP63       0.1771
     43  C        -11.2370    3.0150   40.3540 C.2    63  TRP63       0.2620
     44  O        -10.8500    3.5640   39.3230 O.2    63  TRP63      -0.2715
     45  CB       -13.1260    4.3840   41.1740 C.3    63  TRP63       0.0590
     46  CG       -13.7030    5.3600   42.1480 C.ar   63  TRP63       0.0006
     47  CD1      -13.5630    6.7170   42.1410 C.ar   63  TRP63       0.0946
     48  CD2      -14.4970    5.0420   43.2900 C.ar   63  TRP63       0.0152
     49  NE1      -14.2210    7.2620   43.2190 N.ar   63  TRP63      -0.2442
     50  CE2      -14.8190    6.2540   43.9270 C.ar   63  TRP63       0.0810
     51  CE3      -14.9920    3.8470   43.8220 C.ar   63  TRP63       0.0012
     52  CZ2      -15.6040    6.3050   45.0720 C.ar   63  TRP63       0.0191
     53  CZ3      -15.7660    3.9030   44.9610 C.ar   63  TRP63       0.0001
     54  CH2      -16.0620    5.1190   45.5740 C.ar   63  TRP63       0.0015
     55  N        -11.2500    1.6930   40.5010 N.am   64  THR64      -0.1937
     56  CA       -10.8990    0.8000   39.4010 C.3    64  THR64       0.2028
     57  C        -11.8530   -0.3740   39.3950 C.2    64  THR64       0.2642
     58  O        -12.0040   -1.0660   40.3990 O.2    64  THR64      -0.2714
     59  CB        -9.4680    0.2540   39.5150 C.3    64  THR64       0.1808
     60  OG1       -8.5520    1.3220   39.7920 O.3    64  THR64      -0.2208
     61  CG2       -9.0700   -0.4610   38.2360 C.3    64  THR64       0.0379
     62  N        -12.4940   -0.5930   38.2540 N.am   65  TYR65      -0.1959
     63  CA       -13.4440   -1.6750   38.1120 C.3    65  TYR65       0.1771
     64  C        -12.9790   -2.6030   36.9910 C.2    65  TYR65       0.2619
     65  O        -12.6200   -2.1300   35.9070 O.2    65  TYR65      -0.2715
     66  CB       -14.8150   -1.1090   37.7660 C.3    65  TYR65       0.0574
     67  CG       -15.4160   -0.1130   38.7500 C.ar   65  TYR65      -0.0198
     68  CD1      -15.2710   -0.2620   40.1290 C.ar   65  TYR65      -0.0009
     69  CD2      -16.1650    0.9570   38.2940 C.ar   65  TYR65      -0.0009
     70  CE1      -15.8660    0.6320   41.0050 C.ar   65  TYR65       0.0417
     71  CE2      -16.7560    1.8510   39.1660 C.ar   65  TYR65       0.0417
     72  CZ       -16.6080    1.6840   40.5180 C.ar   65  TYR65       0.1957
     73  OH       -17.2220    2.5690   41.3800 O.3    65  TYR65      -0.2866
     74  N        -12.9830   -3.9090   37.2530 N.am   66  HIS66      -0.1973
     75  CA       -12.5490   -4.9130   36.2770 C.3    66  HIS66       0.1656
     76  C        -13.6410   -5.9300   35.9860 C.2    66  HIS66       0.2291
     77  O        -14.3870   -6.3240   36.8840 O.2    66  HIS66      -0.2864
     78  CB       -11.3540   -5.7380   36.7730 C.3    66  HIS66       0.0771
     79  CG       -10.2360   -4.9400   37.3630 C.ar   66  HIS66       0.0820
     80  ND1      -10.0860   -4.7630   38.7200 N.ar   66  HIS66      -0.2267
     81  CD2       -9.1860   -4.3140   36.7780 C.ar   66  HIS66       0.1154
     82  CE1       -8.9990   -4.0440   38.9480 C.ar   66  HIS66       0.1986
     83  NE2       -8.4360   -3.7630   37.7870 N.ar   66  HIS66      -0.2212
     84  N        -14.8810   -9.3020   36.2280 N.3    68  PRO68      -0.2116
     85  CA       -14.4100  -10.2910   37.2070 C.3    68  PRO68       0.1372
     86  C        -13.6490  -11.4670   36.5960 C.2    68  PRO68       0.2244
     87  O        -12.7590  -11.9980   37.2460 O.2    68  PRO68      -0.2868
     88  CB       -15.7070  -10.7600   37.8760 C.3    68  PRO68       0.0268
     89  CG       -16.5950   -9.5610   37.7970 C.3    68  PRO68       0.0207
     90  CD       -16.3040   -8.9740   36.4370 C.3    68  PRO68       0.0892
     91  N         -9.9720  -10.1650   36.0090 N.3    71  LYS71      -0.1245
     92  CA        -9.2970   -9.4570   37.0920 C.3    71  LYS71       0.1561
     93  C         -7.9190  -10.0270   37.4110 C.2    71  LYS71       0.2260
     94  O         -6.9760   -9.2720   37.5970 O.2    71  LYS71      -0.2867
     95  CB       -10.1570   -9.4440   38.3580 C.3    71  LYS71       0.0271
     96  CG        -9.5010   -8.7200   39.5320 C.3    71  LYS71       0.0035
     97  CD       -10.3500   -8.7500   40.7870 C.3    71  LYS71       0.0206
     98  CE        -9.6740   -8.0000   41.9320 C.3    71  LYS71       0.1093
     99  NZ       -10.6570   -7.6740   42.9720 N.3    71  LYS71      -0.1314
    100  N        -20.9750    4.8880   45.3190 N.3   115  TRP115     -0.1241
    101  CA       -19.8500    4.7380   44.4020 C.3   115  TRP115      0.1605
    102  C        -20.2640    5.2010   43.0130 C.2   115  TRP115      0.2264
    103  O        -21.4470    5.1670   42.6800 O.2   115  TRP115     -0.2867
    104  CB       -19.3900    3.2770   44.3370 C.3   115  TRP115      0.0550
    105  CG       -20.4890    2.3030   44.0300 C.ar  115  TRP115      0.0003
    106  CD1      -21.0410    2.0480   42.8030 C.ar  115  TRP115      0.0946
    107  CD2      -21.1660    1.4470   44.9590 C.ar  115  TRP115      0.0152
    108  NE1      -22.0270    1.0930   42.9150 N.ar  115  TRP115     -0.2442
    109  CE2      -22.1180    0.7050   44.2270 C.ar  115  TRP115      0.0810
    110  CE3      -21.0600    1.2340   46.3380 C.ar  115  TRP115      0.0012
    111  CZ2      -22.9570   -0.2330   44.8290 C.ar  115  TRP115      0.0191
    112  CZ3      -21.8920    0.3040   46.9330 C.ar  115  TRP115      0.0001
    113  CH2      -22.8310   -0.4190   46.1790 C.ar  115  TRP115      0.0015
@<TRIPOS>BOND
     1     1     2    1
     2     2     3    1
     3     2     5    1
     4     3     4    2
     5     5     6    1
     6     7     6   ar
     7     7     9   ar
     8     6     8   ar
     9     9    10   ar
    10     8    10   ar
    11     8    11   ar
    12    10    12   ar
    13    11    13   ar
    14    12    14   ar
    15    13    14   ar
    16    65    64    2
    17    76    75    1
    18    76    77    2
    19    91    92    1
    20    84    90    1
    21    84    85    1
    22    75    78    1
    23    75    74    1
    24    90    89    1
    25    86    85    1
    26    86    87    2
    27    78    79    1
    28    81    79   ar
    29    81    83   ar
    30    64    74   am
    31    64    63    1
    32    92    93    1
    33    92    95    1
    34    85    88    1
    35    79    80   ar
    36    93    94    2
    37    66    63    1
    38    66    67    1
    39    83    82   ar
    40    89    88    1
    41    63    62    1
    42    61    59    1
    43    62    57   am
    44    69    67   ar
    45    69    71   ar
    46    95    96    1
    47    80    82   ar
    48    67    68   ar
    49    71    72   ar
    50    44    43    2
    51    57    56    1
    52    57    58    2
    53    56    59    1
    54    56    55    1
    55    59    60    1
    56    96    97    1
    57    68    70   ar
    58    43    55   am
    59    43    42    1
    60    72    70   ar
    61    72    73    1
    62    97    98    1
    63    45    42    1
    64    45    46    1
    65    42    41    1
    66    41    39   am
    67    98    99    1
    68    47    46   ar
    69    47    49   ar
    70    46    48   ar
    71   103   102    2
    72   106   108   ar
    73   106   105   ar
    74   108   109   ar
    75    39    38    1
    76    39    40    2
    77    38    37    1
    78   102   101    1
    79    49    50   ar
    80    48    51   ar
    81    48    50   ar
    82    51    53   ar
    83    50    52   ar
    84   105   104    1
    85   105   107   ar
    86   109   111   ar
    87   109   107   ar
    88   104   101    1
    89   101   100    1
    90   111   113   ar
    91   107   110   ar
    92    53    54   ar
    93    52    54   ar
    94   113   112   ar
    95   110   112   ar
    96    35    34    2
    97    36    34   am
    98    34    33    1
    99    33    30    1
   100    31    32    2
   101    31    30    1
   102    30    29    1
   103    26    28   ar
   104    26    24   ar
   105    23    24   ar
   106    23    21   ar
   107    28    27   ar
   108    29    17   am
   109    24    22   ar
   110    21    20   ar
   111    27    25   ar
   112    22    20   ar
   113    22    25   ar
   114    17    18    2
   115    17    16    1
   116    20    19    1
   117    15    16    1
   118    16    19    1
