@<TRIPOS>MOLECULE
tmp/3tv4A00.pdb
 164 157 0 0 0
SMALL
GASTEIGER

@<TRIPOS>ATOM
      1  N         11.7850  -20.7600    5.3630 N.3    16  ILE16      -0.1245
      2  CA        12.2250  -20.0750    4.1450 C.3    16  ILE16       0.1561
      3  C         11.1430  -19.6980    3.1130 C.2    16  ILE16       0.2260
      4  O         10.9680  -18.5190    2.8170 O.2    16  ILE16      -0.2867
      5  CB        13.4540  -20.7560    3.4480 C.3    16  ILE16       0.0252
      6  CG1       13.8550  -22.0650    4.1430 C.3    16  ILE16       0.0019
      7  CG2       14.6390  -19.7840    3.3760 C.3    16  ILE16       0.0019
      8  CD1       14.8260  -21.9150    5.3180 C.3    16  ILE16       0.0001
      9  N          8.8440  -24.1830    2.4860 N.3    22  VAL22      -0.1245
     10  CA        10.1990  -24.7370    2.5850 C.3    22  VAL22       0.1561
     11  C         10.8990  -24.4160    3.9170 C.2    22  VAL22       0.2260
     12  O         10.9950  -23.2530    4.3210 O.2    22  VAL22      -0.2867
     13  CB        11.0940  -24.2620    1.4050 C.3    22  VAL22       0.0252
     14  CG1       12.3320  -25.1150    1.3020 C.3    22  VAL22       0.0019
     15  CG2       10.3440  -24.3030    0.0830 C.3    22  VAL22       0.0019
     16  N         17.3330  -29.5300    3.0150 N.3    32  ALA32      -0.1231
     17  CA        16.1400  -28.7660    2.7240 C.3    32  ALA32       0.1694
     18  C         14.9450  -29.6860    2.8510 C.2    32  ALA32       0.2592
     19  O         14.9830  -30.8350    2.4080 O.2    32  ALA32      -0.2718
     20  CB        16.2090  -28.1960    1.3490 C.3    32  ALA32       0.0304
     21  N         13.8950  -29.1750    3.4850 N.am   33  VAL33      -0.1966
     22  CA        12.6220  -29.8740    3.5820 C.3    33  VAL33       0.1727
     23  C         11.4930  -28.9870    3.0730 C.2    33  VAL33       0.2616
     24  O         11.3000  -27.8650    3.5470 O.2    33  VAL33      -0.2715
     25  CB        12.2800  -30.2680    5.0210 C.3    33  VAL33       0.0290
     26  CG1       11.2710  -31.4060    5.0150 C.3    33  VAL33       0.0023
     27  CG2       13.5210  -30.6550    5.7840 C.3    33  VAL33       0.0023
     28  N         10.7480  -29.4940    2.1040 N.am   34  LYS34      -0.1977
     29  CA         9.5320  -28.8320    1.6820 C.3    34  LYS34       0.1596
     30  C          8.3410  -29.6330    2.2090 C.2    34  LYS34       0.2287
     31  O          7.9350  -30.6380    1.6200 O.2    34  LYS34      -0.2864
     32  CB         9.4950  -28.6670    0.1570 C.3    34  LYS34       0.0298
     33  CG         8.4520  -27.6680   -0.3420 C.3    34  LYS34       0.0038
     34  CD         8.7960  -27.0870   -1.7050 C.3    34  LYS34       0.0206
     35  CE         8.3960  -28.0000   -2.8380 C.3    34  LYS34       0.1093
     36  NZ         8.9560  -27.4700   -4.0930 N.3    34  LYS34      -0.1314
     37  N         10.6650  -38.6110   -8.7400 N.3    56  LEU56      -0.1245
     38  CA        11.9220  -38.0660   -8.2380 C.3    56  LEU56       0.1561
     39  C         13.0220  -39.1280   -8.1790 C.2    56  LEU56       0.2260
     40  O         14.0740  -38.9490   -8.7800 O.2    56  LEU56      -0.2867
     41  CB        11.7290  -37.4200   -6.8670 C.3    56  LEU56       0.0270
     42  CG        10.5490  -36.4620   -6.7280 C.3    56  LEU56       0.0019
     43  CD1       10.5260  -35.9270   -5.3250 C.3    56  LEU56       0.0001
     44  CD2       10.6190  -35.3300   -7.7370 C.3    56  LEU56       0.0001
     45  N         15.7310  -39.8610  -10.6790 N.3    59  THR59      -0.1218
     46  CA        16.6470  -38.7680  -10.9810 C.3    59  THR59       0.1862
     47  C         17.9670  -38.8510  -10.2370 C.2    59  THR59       0.2287
     48  O         18.0090  -38.8560   -9.0020 O.2    59  THR59      -0.2866
     49  CB        16.0150  -37.3970  -10.6570 C.3    59  THR59       0.1770
     50  OG1       15.7380  -37.3130   -9.2480 O.3    59  THR59      -0.2211
     51  CG2       14.7360  -37.1850  -11.4610 C.3    59  THR59       0.0375
     52  N         18.6520  -31.0540   -8.5080 N.3    65  LEU65      -0.1245
     53  CA        18.5520  -31.0520   -7.0540 C.3    65  LEU65       0.1561
     54  C         18.4620  -32.4880   -6.5280 C.2    65  LEU65       0.2260
     55  O         17.7200  -33.3170   -7.0590 O.2    65  LEU65      -0.2867
     56  CB        17.3520  -30.2210   -6.5950 C.3    65  LEU65       0.0270
     57  CG        17.2760  -29.9560   -5.0930 C.3    65  LEU65       0.0019
     58  CD1       18.3990  -29.0270   -4.6550 C.3    65  LEU65       0.0001
     59  CD2       15.9650  -29.3620   -4.7160 C.3    65  LEU65       0.0001
     60  N         17.3210  -35.4080   -4.7400 N.3    67  PHE67      -0.1241
     61  CA        16.2230  -35.9480   -3.9630 C.3    67  PHE67       0.1605
     62  C         16.7720  -36.9000   -2.9200 C.2    67  PHE67       0.2264
     63  O         17.3350  -37.9350   -3.2530 O.2    67  PHE67      -0.2867
     64  CB        15.1730  -36.6470   -4.8340 C.3    67  PHE67       0.0534
     65  CG        14.2370  -37.5140   -4.0430 C.ar   67  PHE67      -0.0203
     66  CD1       13.5470  -36.9920   -2.9360 C.ar   67  PHE67      -0.0042
     67  CD2       14.0690  -38.8540   -4.3640 C.ar   67  PHE67      -0.0042
     68  CE1       12.6980  -37.7800   -2.1770 C.ar   67  PHE67      -0.0003
     69  CE2       13.2200  -39.6590   -3.5990 C.ar   67  PHE67      -0.0003
     70  CZ        12.5370  -39.1140   -2.4980 C.ar   67  PHE67      -0.0000
     71  N          9.0320  -33.4250    1.1790 N.3    78  ILE78      -0.1245
     72  CA        10.1570  -33.8480    0.3490 C.3    78  ILE78       0.1561
     73  C         11.4260  -33.1700    0.8350 C.2    78  ILE78       0.2260
     74  O         11.4930  -31.9410    0.9250 O.2    78  ILE78      -0.2867
     75  CB         9.9260  -33.5880   -1.1430 C.3    78  ILE78       0.0252
     76  CG1        9.1520  -34.7580   -1.7380 C.3    78  ILE78       0.0019
     77  CG2       11.2450  -33.4600   -1.8860 C.3    78  ILE78       0.0019
     78  CD1        8.5000  -34.4360   -3.0580 C.3    78  ILE78       0.0001
     79  N         15.4220  -32.5400    0.3420 N.3    80  THR80      -0.1203
     80  CA        16.5040  -32.5490   -0.6150 C.3    80  THR80       0.1994
     81  C         17.8110  -32.1480    0.0610 C.2    80  THR80       0.2618
     82  O         17.8740  -31.9800    1.2900 O.2    80  THR80      -0.2717
     83  CB        16.2140  -31.6230   -1.8060 C.3    80  THR80       0.1784
     84  OG1       15.9690  -30.2980   -1.3350 O.3    80  THR80      -0.2211
     85  CG2       15.0060  -32.1040   -2.5600 C.3    80  THR80       0.0376
     86  N         18.8580  -32.0220   -0.7450 N.am   81  GLN81      -0.1965
     87  CA        20.0860  -31.4270   -0.2780 C.3    81  GLN81       0.1733
     88  C         19.8240  -29.9620    0.0150 C.2    81  GLN81       0.2616
     89  O         19.0420  -29.3170   -0.6800 O.2    81  GLN81      -0.2715
     90  CB        21.1710  -31.5590   -1.3360 C.3    81  GLN81       0.0408
     91  CG        20.8030  -31.0020   -2.6980 C.3    81  GLN81       0.0908
     92  CD        22.0140  -30.8080   -3.5780 C.2    81  GLN81       0.2608
     93  OE1       21.9670  -31.0680   -4.7800 O.2    81  GLN81      -0.2717
     94  NE2       23.1190  -30.3620   -2.9790 N.am   81  GLN81      -0.0878
     95  N         20.4570  -29.4420    1.0580 N.am   82  TRP82      -0.1960
     96  CA        20.4760  -28.0050    1.2720 C.3    82  TRP82       0.1771
     97  C         21.5530  -27.3770    0.3830 C.2    82  TRP82       0.2619
     98  O         22.6950  -27.8390    0.3650 O.2    82  TRP82      -0.2715
     99  CB        20.7560  -27.6770    2.7320 C.3    82  TRP82       0.0590
    100  CG        20.9330  -26.2300    2.9260 C.ar   82  TRP82       0.0006
    101  CD1       22.1100  -25.5590    3.0300 C.ar   82  TRP82       0.0946
    102  CD2       19.9000  -25.2460    2.9860 C.ar   82  TRP82       0.0152
    103  NE1       21.8790  -24.2120    3.1730 N.ar   82  TRP82      -0.2442
    104  CE2       20.5280  -23.9930    3.1490 C.ar   82  TRP82       0.0810
    105  CE3       18.5020  -25.3010    2.9290 C.ar   82  TRP82       0.0012
    106  CZ2       19.8060  -22.8050    3.2620 C.ar   82  TRP82       0.0191
    107  CZ3       17.7820  -24.1210    3.0380 C.ar   82  TRP82       0.0001
    108  CH2       18.4360  -22.8880    3.2030 C.ar   82  TRP82       0.0015
    109  N         21.2020  -26.3310   -0.3580 N.am   83  CYS83      -0.1968
    110  CA        22.1940  -25.6500   -1.1750 C.3    83  CYS83       0.1712
    111  C         22.8140  -24.5060   -0.4100 C.2    83  CYS83       0.2296
    112  O         22.1280  -23.7900    0.3230 O.2    83  CYS83      -0.2864
    113  CB        21.5820  -25.1290   -2.4670 C.3    83  CYS83       0.0983
    114  SG        21.0050  -26.4400   -3.5510 S.3    83  CYS83      -0.0798
    115  N         24.3860  -21.0840   -1.3850 N.3    85  GLY85      -0.1225
    116  CA        24.3000  -20.2150   -2.5510 C.3    85  GLY85       0.1811
    117  C         22.9660  -19.5140   -2.5960 C.2    85  GLY85       0.2280
    118  O         22.2680  -19.4190   -1.5850 O.2    85  GLY85      -0.2866
    119  N         19.0180  -23.1700   -8.7260 N.3   134  PHE134     -0.1241
    120  CA        19.9640  -22.8000   -7.6860 C.3   134  PHE134      0.1605
    121  C         21.3390  -22.7220   -8.3030 C.2   134  PHE134      0.2264
    122  O         21.6140  -23.3520   -9.3320 O.2   134  PHE134     -0.2867
    123  CB        19.9710  -23.7990   -6.5330 C.3   134  PHE134      0.0534
    124  CG        18.6400  -23.9640   -5.8490 C.ar  134  PHE134     -0.0203
    125  CD1       17.5740  -24.6250   -6.4890 C.ar  134  PHE134     -0.0042
    126  CD2       18.4530  -23.5020   -4.5440 C.ar  134  PHE134     -0.0042
    127  CE1       16.3260  -24.7950   -5.8470 C.ar  134  PHE134     -0.0003
    128  CE2       17.2110  -23.6780   -3.8860 C.ar  134  PHE134     -0.0003
    129  CZ        16.1490  -24.3240   -4.5440 C.ar  134  PHE134     -0.0000
    130  N         15.3100  -27.4040   -9.6160 N.3   144  GLY144     -0.1210
    131  CA        14.3910  -27.9070   -8.5970 C.3   144  GLY144      0.1956
    132  C         12.9480  -27.5130   -8.8660 C.2   144  GLY144      0.2612
    133  O         12.6330  -26.9770   -9.9350 O.2   144  GLY144     -0.2717
    134  N         12.0840  -27.7870   -7.8860 N.am  145  ASP145     -0.1959
    135  CA        10.6390  -27.5180   -7.9460 C.3   145  ASP145      0.1840
    136  C          9.9900  -27.9760   -9.2580 C.2   145  ASP145      0.2622
    137  O          9.2370  -27.2330   -9.8820 O.2   145  ASP145     -0.2715
    138  CB        10.3320  -26.0380   -7.6440 C.3   145  ASP145      0.1450
    139  CG         8.9560  -25.8380   -6.9990 C.2   145  ASP145      0.3671
    140  OD1        8.4810  -26.7660   -6.3170 O.co2 145  ASP145     -0.2456
    141  OD2        8.3410  -24.7550   -7.1600 O.co2 145  ASP145     -0.2456
    142  N         10.2990  -29.2010   -9.6710 N.am  146  PHE146     -0.1960
    143  CA         9.7230  -29.7790  -10.8820 C.3   146  PHE146      0.1771
    144  C          8.9460  -31.0240  -10.5230 C.2   146  PHE146      0.2620
    145  O          8.2910  -31.6240  -11.3740 O.2   146  PHE146     -0.2715
    146  CB        10.8090  -30.1420  -11.8860 C.3   146  PHE146      0.0574
    147  CG        11.6680  -31.2980  -11.4580 C.ar  146  PHE146     -0.0200
    148  CD1       12.4550  -31.2200  -10.3050 C.ar  146  PHE146     -0.0042
    149  CD2       11.7060  -32.4600  -12.2110 C.ar  146  PHE146     -0.0042
    150  CE1       13.2530  -32.2800   -9.9090 C.ar  146  PHE146     -0.0003
    151  CE2       12.5020  -33.5260  -11.8210 C.ar  146  PHE146     -0.0003
    152  CZ        13.2770  -33.4330  -10.6630 C.ar  146  PHE146     -0.0000
    153  N          9.0430  -31.4170   -9.2590 N.am  147  GLY147     -0.1940
    154  CA         8.2530  -32.5200   -8.7390 C.3   147  GLY147      0.2014
    155  C          6.8140  -32.1060   -8.5100 C.2   147  GLY147      0.2638
    156  O          6.4990  -30.9120   -8.5070 O.2   147  GLY147     -0.2714
    157  N          5.9510  -33.1050   -8.3190 N.am  148  LEU148     -0.1977
    158  CA         4.5240  -32.9170   -8.0200 C.3   148  LEU148      0.1596
    159  C          3.7770  -32.1820   -9.1390 C.2   148  LEU148      0.2287
    160  O          3.5070  -30.9840   -9.0330 O.2   148  LEU148     -0.2864
    161  CB         4.3280  -32.1860   -6.6770 C.3   148  LEU148      0.0297
    162  CG         5.3090  -32.4380   -5.5240 C.3   148  LEU148      0.0022
    163  CD1        5.4390  -31.2030   -4.6380 C.3   148  LEU148      0.0001
    164  CD2        4.9080  -33.6590   -4.7060 C.3   148  LEU148      0.0001
@<TRIPOS>BOND
     1   149   151   ar
     2   149   147   ar
     3   146   147    1
     4   146   143    1
     5   151   152   ar
     6    51    49    1
     7   147   148   ar
     8   145   144    2
     9    46    45    1
    10    46    49    1
    11    46    47    1
    12   143   144    1
    13   143   142    1
    14   152   150   ar
    15    49    50    1
    16   144   153   am
    17   148   150   ar
    18    47    48    2
    19   133   132    2
    20   137   136    2
    21   142   136   am
    22   130   131    1
    23   122   121    2
    24   153   154    1
    25   136   135    1
    26   159   160    2
    27   159   158    1
    28   132   131    1
    29   132   134   am
    30    40    39    2
    31    37    38    1
    32   154   155    1
    33   119   120    1
    34   155   156    2
    35   155   157   am
    36    52    53    1
    37   157   158    1
    38   121   120    1
    39    38    39    1
    40    38    41    1
    41   158   161    1
    42   135   134    1
    43   135   138    1
    44    44    42    1
    45   120   123    1
    46   138   139    1
    47   141   139   ar
    48    55    54    2
    49    53    56    1
    50    53    54    1
    51   139   140   ar
    52    41    42    1
    53    42    43    1
    54   161   162    1
    55    56    57    1
    56   123   124    1
    57   125   124   ar
    58   125   127   ar
    59   124   126   ar
    60   127   129   ar
    61   162   164    1
    62   162   163    1
    63    57    59    1
    64    57    58    1
    65    64    65    1
    66    64    61    1
    67    93    92    2
    68    60    61    1
    69   129   128   ar
    70   126   128   ar
    71    67    65   ar
    72    67    69   ar
    73    36    35    1
    74    65    66   ar
    75    61    62    1
    76    69    70   ar
    77    92    94   am
    78    92    91    1
    79   114   113    1
    80    63    62    2
    81    78    76    1
    82    66    68   ar
    83    35    34    1
    84    91    90    1
    85   117   116    1
    86   117   118    2
    87    85    83    1
    88   116   115    1
    89    70    68   ar
    90   113   110    1
    91    77    75    1
    92    83    84    1
    93    83    80    1
    94    76    75    1
    95    34    33    1
    96    90    87    1
    97   110   111    1
    98   110   109    1
    99    75    72    1
   100    86    87    1
   101    86    81   am
   102    89    88    2
   103    80    81    1
   104    80    79    1
   105   111   112    2
   106   109    97   am
   107    33    32    1
   108    87    88    1
   109    88    95   am
   110    81    82    2
   111    15    13    1
   112    32    29    1
   113    72    73    1
   114    72    71    1
   115    98    97    2
   116    97    96    1
   117    73    74    2
   118    95    96    1
   119    96    99    1
   120    14    13    1
   121    20    17    1
   122    13    10    1
   123    31    30    2
   124    29    28    1
   125    29    30    1
   126    28    23   am
   127    19    18    2
   128     9    10    1
   129    10    11    1
   130    17    18    1
   131    17    16    1
   132    99   100    1
   133     4     3    2
   134    18    21   am
   135   100   102   ar
   136   100   101   ar
   137   105   102   ar
   138   105   107   ar
   139   102   104   ar
   140   101   103   ar
   141   107   108   ar
   142    23    24    2
   143    23    22    1
   144     3     2    1
   145   104   103   ar
   146   104   106   ar
   147   108   106   ar
   148     7     5    1
   149     5     6    1
   150     5     2    1
   151    21    22    1
   152    22    25    1
   153    11    12    2
   154     6     8    1
   155     2     1    1
   156    26    25    1
   157    25    27    1
