@<TRIPOS>MOLECULE
tmp/3tv5B00.pdb
 136 129 0 0 0
SMALL
GASTEIGER

@<TRIPOS>ATOM
      1  N         30.7810  -35.2010   53.5530 N.3   441  ALA441     -0.1245
      2  CA        30.4730  -34.1890   54.5650 C.3   441  ALA441      0.1562
      3  C         31.3940  -32.9510   54.4680 C.2   441  ALA441      0.2260
      4  O         32.5160  -33.0260   53.9470 O.2   441  ALA441     -0.2867
      5  CB        30.6130  -34.7920   55.9440 C.3   441  ALA441      0.0290
      6  N         35.7390  -31.6070   56.0560 N.3   444  VAL444     -0.1245
      7  CA        36.5910  -32.8070   55.9700 C.3   444  VAL444      0.1561
      8  C         37.3330  -32.7740   54.6360 C.2   444  VAL444      0.2260
      9  O         36.7000  -32.5420   53.6190 O.2   444  VAL444     -0.2867
     10  CB        35.8230  -34.1600   56.1360 C.3   444  VAL444      0.0252
     11  CG1       36.7590  -35.3530   55.9350 C.3   444  VAL444      0.0019
     12  CG2       35.1260  -34.2550   57.4840 C.3   444  VAL444      0.0019
     13  N         38.8320  -34.6710   51.6400 N.3   446  PHE446     -0.1241
     14  CA        38.7590  -35.9560   50.9560 C.3   446  PHE446      0.1605
     15  C         39.8280  -35.9350   49.8420 C.2   446  PHE446      0.2264
     16  O         40.3100  -34.8470   49.5170 O.2   446  PHE446     -0.2867
     17  CB        37.3550  -36.1470   50.3700 C.3   446  PHE446      0.0534
     18  CG        36.3060  -36.4510   51.4110 C.ar  446  PHE446     -0.0203
     19  CD1       35.6120  -35.4250   52.0460 C.ar  446  PHE446     -0.0042
     20  CD2       35.9990  -37.7660   51.7510 C.ar  446  PHE446     -0.0042
     21  CE1       34.6340  -35.7110   53.0090 C.ar  446  PHE446     -0.0003
     22  CE2       35.0250  -38.0440   52.7140 C.ar  446  PHE446     -0.0003
     23  CZ        34.3490  -37.0160   53.3290 C.ar  446  PHE446     -0.0000
     24  N         38.0220  -30.3550   60.1040 N.3   475  ARG475     -0.1231
     25  CA        38.0620  -31.2510   61.2690 C.3   475  ARG475      0.1694
     26  C         39.1400  -32.3340   61.1070 C.2   475  ARG475      0.2593
     27  O         39.5000  -33.0040   62.0660 O.2   475  ARG475     -0.2718
     28  CB        36.6790  -31.8820   61.5180 C.3   475  ARG475      0.0321
     29  CG        35.6760  -30.8930   62.0890 C.3   475  ARG475      0.0489
     30  CD        34.2550  -31.2120   61.6880 C.3   475  ARG475      0.2205
     31  NE        33.7010  -32.2950   62.4880 N.pl3 475  ARG475     -0.0865
     32  CZ        33.0880  -33.3660   61.9910 C.cat 475  ARG475      0.5346
     33  NH1       32.9150  -33.4950   60.6730 N.pl3 475  ARG475      0.1354
     34  NH2       32.6210  -34.3070   62.8050 N.pl3 475  ARG475      0.1354
     35  N         39.6650  -32.4670   59.9050 N.am  476  GLY476     -0.1942
     36  CA        40.7180  -33.4200   59.5830 C.3   476  GLY476      0.2014
     37  C         40.5610  -33.9650   58.1890 C.2   476  GLY476      0.2639
     38  O         39.7780  -33.4350   57.3930 O.2   476  GLY476     -0.2714
     39  N         41.3060  -35.0270   57.8840 N.am  477  PHE477     -0.1959
     40  CA        41.2100  -35.7210   56.5950 C.3   477  PHE477      0.1771
     41  C         40.2670  -36.9050   56.7990 C.2   477  PHE477      0.2620
     42  O         40.0800  -37.3380   57.9380 O.2   477  PHE477     -0.2715
     43  CB        42.5970  -36.2350   56.1550 C.3   477  PHE477      0.0574
     44  CG        43.5450  -35.1650   55.6780 C.ar  477  PHE477     -0.0200
     45  CD1       43.5910  -34.8040   54.3370 C.ar  477  PHE477     -0.0042
     46  CD2       44.3740  -34.4950   56.5720 C.ar  477  PHE477     -0.0042
     47  CE1       44.4120  -33.7660   53.9030 C.ar  477  PHE477     -0.0003
     48  CE2       45.2290  -33.4910   56.1280 C.ar  477  PHE477     -0.0003
     49  CZ        45.2500  -33.1430   54.7890 C.ar  477  PHE477     -0.0000
     50  N         39.6850  -37.4440   55.7190 N.am  478  SER478     -0.1936
     51  CA        38.8600  -38.6430   55.8480 C.3   478  SER478      0.2055
     52  C         39.8080  -39.8360   55.9980 C.2   478  SER478      0.2644
     53  O         40.6180  -40.1060   55.1020 O.2   478  SER478     -0.2714
     54  CB        37.9550  -38.8320   54.6430 C.3   478  SER478      0.2130
     55  OG        37.1840  -39.9980   54.8670 O.3   478  SER478     -0.2179
     56  N         39.7550  -40.4690   57.1620 N.am  479  GLY479     -0.1939
     57  CA        40.6040  -41.6050   57.4970 C.3   479  GLY479      0.2014
     58  C         39.9540  -42.9640   57.3160 C.2   479  GLY479      0.2639
     59  O         40.5170  -43.9620   57.7650 O.2   479  GLY479     -0.2714
     60  N         38.7920  -43.0070   56.6590 N.am  480  GLY480     -0.1954
     61  CA        38.0800  -44.2510   56.4030 C.3   480  GLY480      0.1869
     62  C         38.7150  -45.0880   55.3150 C.2   480  GLY480      0.2309
     63  O         39.5450  -44.5790   54.5550 O.2   480  GLY480     -0.2863
     64  N         38.6370  -43.6980   51.4010 N.3   483  ASP483     -0.1239
     65  CA        39.5060  -42.5470   51.1630 C.3   483  ASP483      0.1674
     66  C         40.9760  -42.8270   51.3890 C.2   483  ASP483      0.2266
     67  O         41.8230  -42.2300   50.7150 O.2   483  ASP483     -0.2867
     68  CB        38.9930  -41.3020   51.9120 C.3   483  ASP483      0.1410
     69  CG        37.5550  -40.9790   51.5480 C.2   483  ASP483      0.3668
     70  OD1       36.6950  -41.0380   52.4490 O.co2 483  ASP483     -0.2456
     71  OD2       37.2700  -40.7850   50.3270 O.co2 483  ASP483     -0.2456
     72  N         41.5620  -28.9680   63.2720 N.3   517  ARG517     -0.1245
     73  CA        41.9380  -30.0760   64.1440 C.3   517  ARG517      0.1563
     74  C         42.8850  -31.0860   63.5120 C.2   517  ARG517      0.2260
     75  O         42.9530  -31.1750   62.2780 O.2   517  ARG517     -0.2867
     76  CB        40.6590  -30.7690   64.6550 C.3   517  ARG517      0.0307
     77  CG        39.7990  -29.7930   65.4140 C.3   517  ARG517      0.0489
     78  CD        38.6210  -30.4170   66.0680 C.3   517  ARG517      0.2205
     79  NE        37.7910  -29.4270   66.7630 N.pl3 517  ARG517     -0.0865
     80  CZ        38.0270  -28.9760   67.9880 C.cat 517  ARG517      0.5346
     81  NH1       39.0960  -29.3930   68.6600 N.pl3 517  ARG517      0.1354
     82  NH2       37.2030  -28.1030   68.5500 N.pl3 517  ARG517      0.1354
     83  N         44.1020  -31.2290   68.9340 N.3   545  VAL545     -0.1231
     84  CA        44.4940  -32.4830   68.2400 C.3   545  VAL545      0.1692
     85  C         43.2080  -33.2730   67.9100 C.2   545  VAL545      0.2592
     86  O         42.9620  -33.5890   66.7420 O.2   545  VAL545     -0.2718
     87  CB        45.5460  -33.3140   69.0380 C.3   545  VAL545      0.0266
     88  CG1       46.0490  -34.5050   68.2280 C.3   545  VAL545      0.0020
     89  CG2       46.7200  -32.4350   69.4940 C.3   545  VAL545      0.0020
     90  N         42.3450  -33.4900   68.9310 N.am  546  LEU546     -0.1966
     91  CA        41.0480  -34.1410   68.7550 C.3   546  LEU546      0.1728
     92  C         39.9120  -33.1330   68.9550 C.2   546  LEU546      0.2616
     93  O         40.1600  -31.9750   69.2880 O.2   546  LEU546     -0.2715
     94  CB        40.8950  -35.3040   69.7380 C.3   546  LEU546      0.0311
     95  CG        41.7610  -36.5490   69.5590 C.3   546  LEU546      0.0022
     96  CD1       42.3310  -36.7400   68.1670 C.3   546  LEU546      0.0001
     97  CD2       42.7350  -36.6930   70.6290 C.3   546  LEU546      0.0001
     98  N         38.6640  -33.5740   68.7140 N.am  547  GLU547     -0.1977
     99  CA        37.4340  -32.8110   68.9650 C.3   547  GLU547      0.1602
    100  C         37.1740  -33.0580   70.4850 C.2   547  GLU547      0.2287
    101  O         37.7000  -34.0550   71.0080 O.2   547  GLU547     -0.2864
    102  CB        36.2640  -33.3550   68.1010 C.3   547  GLU547      0.0415
    103  CG        36.3890  -33.0690   66.6100 C.3   547  GLU547      0.1163
    104  CD        35.2920  -33.5540   65.6780 C.2   547  GLU547      0.3649
    105  OE1       35.6060  -34.2990   64.7200 O.co2 547  GLU547     -0.2457
    106  OE2       34.1340  -33.1160   65.8500 O.co2 547  GLU547     -0.2457
    107  N         34.9270  -34.5640   72.1630 N.3   549  GLU549     -0.1231
    108  CA        34.5060  -35.9590   72.3810 C.3   549  GLU549      0.1699
    109  C         35.7020  -36.9190   72.4240 C.2   549  GLU549      0.2592
    110  O         35.7770  -37.7790   73.3080 O.2   549  GLU549     -0.2718
    111  CB        33.4220  -36.4240   71.3880 C.3   549  GLU549      0.0402
    112  CG        32.7770  -37.7780   71.7150 C.3   549  GLU549      0.1161
    113  CD        32.4710  -38.1650   73.1620 C.2   549  GLU549      0.3649
    114  OE1       31.5990  -37.5170   73.7910 O.co2 549  GLU549     -0.2457
    115  OE2       33.0650  -39.1590   73.6460 O.co2 549  GLU549     -0.2457
    116  N         36.6530  -36.6980   71.5290 N.am  550  GLY550     -0.1957
    117  CA        37.8810  -37.4750   71.4770 C.3   550  GLY550      0.1869
    118  C         38.7910  -37.2890   72.6790 C.2   550  GLY550      0.2309
    119  O         39.2530  -38.2790   73.2640 O.2   550  GLY550     -0.2863
    120  N         37.3280  -38.9740   75.7470 N.3   553  GLU553     -0.1231
    121  CA        37.4500  -40.4200   75.5430 C.3   553  GLU553      0.1699
    122  C         38.8510  -40.9160   75.9050 C.2   553  GLU553      0.2592
    123  O         38.9840  -41.9800   76.5110 O.2   553  GLU553     -0.2718
    124  CB        37.0780  -40.8040   74.0960 C.3   553  GLU553      0.0402
    125  CG        36.9360  -42.3000   73.8270 C.3   553  GLU553      0.1161
    126  CD        35.6820  -42.9470   74.3800 C.2   553  GLU553      0.3649
    127  OE1       34.5760  -42.4160   74.1290 O.co2 553  GLU553     -0.2457
    128  OE2       35.8050  -44.0060   75.0400 O.co2 553  GLU553     -0.2457
    129  N         39.8860  -40.1400   75.5820 N.am  554  ILE554     -0.1980
    130  CA        41.2370  -40.5670   75.9100 C.3   554  ILE554      0.1595
    131  C         41.8010  -40.0370   77.2400 C.2   554  ILE554      0.2287
    132  O         42.5320  -40.7700   77.9080 O.2   554  ILE554     -0.2864
    133  CB        42.2560  -40.5810   74.7190 C.3   554  ILE554      0.0276
    134  CG1       43.5250  -39.7620   74.9410 C.3   554  ILE554      0.0022
    135  CG2       41.6770  -40.5090   73.2950 C.3   554  ILE554      0.0022
    136  CD1       44.7200  -40.6840   75.2500 C.3   554  ILE554      0.0001
@<TRIPOS>BOND
     1    16    15    2
     2    15    14    1
     3    71    69   ar
     4    17    14    1
     5    17    18    1
     6    67    66    2
     7    14    13    1
     8    65    66    1
     9    65    64    1
    10    65    68    1
    11    18    20   ar
    12    18    19   ar
    13    69    68    1
    14    69    70   ar
    15    20    22   ar
    16    19    21   ar
    17    22    23   ar
    18    21    23   ar
    19     1     2    1
    20     9     8    2
    21    47    45   ar
    22    47    49   ar
    23     4     3    2
    24    45    44   ar
    25     3     2    1
    26    63    62    2
    27     2     5    1
    28     8     7    1
    29    54    55    1
    30    54    51    1
    31    49    48   ar
    32    53    52    2
    33    62    61    1
    34    44    43    1
    35    44    46   ar
    36    50    51    1
    37    50    41   am
    38    51    52    1
    39    11    10    1
    40     7     6    1
    41     7    10    1
    42    52    56   am
    43    48    46   ar
    44    10    12    1
    45    43    40    1
    46    61    60    1
    47    40    41    1
    48    40    39    1
    49    60    58   am
    50    41    42    2
    51    56    57    1
    52    58    57    1
    53    58    59    2
    54    38    37    2
    55    39    37   am
    56    37    36    1
    57    36    35    1
    58    35    26   am
    59    24    25    1
    60    33    32    1
    61    26    25    1
    62    26    27    2
    63    25    28    1
    64    28    29    1
    65    30    29    1
    66    30    31    1
    67    32    31    2
    68    32    34    1
    69    75    74    2
    70    72    73    1
    71    74    73    1
    72    73    76    1
    73    76    77    1
    74   105   104   ar
    75    77    78    1
    76   104   106   ar
    77   104   103    1
    78    78    79    1
    79   103   102    1
    80    86    85    2
    81    79    80    2
    82    85    84    1
    83    85    90   am
    84    80    82    1
    85    80    81    1
    86   102    99    1
    87    96    95    1
    88    88    87    1
    89    84    83    1
    90    84    87    1
    91    98    92   am
    92    98    99    1
    93    91    90    1
    94    91    92    1
    95    91    94    1
    96    92    93    2
    97    99   100    1
    98    87    89    1
    99    95    94    1
   100    95    97    1
   101   100   101    2
   102   111   112    1
   103   111   108    1
   104   117   116    1
   105   117   118    1
   106   116   109   am
   107   112   113    1
   108   107   108    1
   109   108   109    1
   110   109   110    2
   111   118   119    2
   112   113   115   ar
   113   113   114   ar
   114   135   133    1
   115   125   124    1
   116   125   126    1
   117   124   121    1
   118   127   126   ar
   119   126   128   ar
   120   133   134    1
   121   133   130    1
   122   134   136    1
   123   121   120    1
   124   121   122    1
   125   129   122   am
   126   129   130    1
   127   122   123    2
   128   130   131    1
   129   131   132    2
