@<TRIPOS>MOLECULE
tmp/3tv6A00.pdb
 172 165 0 0 0
SMALL
GASTEIGER

@<TRIPOS>ATOM
      1  N         12.1090  -20.4640    5.4110 N.3    16  ILE16      -0.1245
      2  CA        12.3310  -19.6770    4.1940 C.3    16  ILE16       0.1561
      3  C         11.2180  -19.8700    3.1600 C.2    16  ILE16       0.2260
      4  O         10.9350  -18.9730    2.3690 O.2    16  ILE16      -0.2867
      5  CB        13.7060  -19.9770    3.5050 C.3    16  ILE16       0.0252
      6  CG1       14.0650  -21.4780    3.5510 C.3    16  ILE16       0.0019
      7  CG2       14.8080  -19.0580    4.0520 C.3    16  ILE16       0.0019
      8  CD1       14.8740  -21.9330    4.7690 C.3    16  ILE16       0.0001
      9  N          9.2010  -24.5450    2.8370 N.3    24  VAL24      -0.1245
     10  CA        10.5860  -25.0260    2.9030 C.3    24  VAL24       0.1561
     11  C         11.2700  -24.6070    4.2130 C.2    24  VAL24       0.2260
     12  O         11.3650  -23.4160    4.5230 O.2    24  VAL24      -0.2867
     13  CB        11.4240  -24.5130    1.6880 C.3    24  VAL24       0.0252
     14  CG1       12.9100  -24.7770    1.8780 C.3    24  VAL24       0.0019
     15  CG2       10.9460  -25.1310    0.3950 C.3    24  VAL24       0.0019
     16  N         17.3570  -29.5900    3.4190 N.3    34  ALA34      -0.1231
     17  CA        16.2070  -28.7730    3.1160 C.3    34  ALA34       0.1694
     18  C         15.0010  -29.6830    3.1930 C.2    34  ALA34       0.2592
     19  O         15.0210  -30.8040    2.6730 O.2    34  ALA34      -0.2718
     20  CB        16.3260  -28.1780    1.7450 C.3    34  ALA34       0.0304
     21  N         13.9580  -29.2000    3.8620 N.am   35  VAL35      -0.1966
     22  CA        12.7070  -29.9370    3.9850 C.3    35  VAL35       0.1727
     23  C         11.5550  -29.1000    3.4500 C.2    35  VAL35       0.2616
     24  O         11.3100  -27.9910    3.9260 O.2    35  VAL35      -0.2715
     25  CB        12.3830  -30.3000    5.4480 C.3    35  VAL35       0.0290
     26  CG1       11.6650  -31.6370    5.4990 C.3    35  VAL35       0.0023
     27  CG2       13.6440  -30.3170    6.3150 C.3    35  VAL35       0.0023
     28  N         10.8540  -29.6270    2.4540 N.am   36  LYS36      -0.1977
     29  CA         9.6310  -28.9860    1.9920 C.3    36  LYS36       0.1596
     30  C          8.4110  -29.7480    2.5030 C.2    36  LYS36       0.2287
     31  O          8.0160  -30.7800    1.9500 O.2    36  LYS36      -0.2864
     32  CB         9.6080  -28.8030    0.4650 C.3    36  LYS36       0.0298
     33  CG         8.4550  -27.9320   -0.0420 C.3    36  LYS36       0.0038
     34  CD         8.7810  -27.1930   -1.3300 C.3    36  LYS36       0.0206
     35  CE         8.4700  -28.0150   -2.5570 C.3    36  LYS36       0.1093
     36  NZ         8.9460  -27.3210   -3.7800 N.3    36  LYS36      -0.1314
     37  N         10.7610  -38.6650   -8.5140 N.3    58  LEU58      -0.1245
     38  CA        11.9700  -38.0330   -7.9890 C.3    58  LEU58       0.1561
     39  C         13.1730  -38.9750   -7.9140 C.2    58  LEU58       0.2260
     40  O         14.2750  -38.6090   -8.3100 O.2    58  LEU58      -0.2867
     41  CB        11.7060  -37.4330   -6.6060 C.3    58  LEU58       0.0270
     42  CG        10.5820  -36.4140   -6.4330 C.3    58  LEU58       0.0019
     43  CD1       10.5550  -35.9490   -4.9920 C.3    58  LEU58       0.0001
     44  CD2       10.7470  -35.2360   -7.3760 C.3    58  LEU58       0.0001
     45  N         15.9770  -39.5710  -10.4480 N.3    61  THR61      -0.1218
     46  CA        16.9280  -38.4830  -10.6940 C.3    61  THR61       0.1862
     47  C         18.2300  -38.6470   -9.9230 C.2    61  THR61       0.2287
     48  O         18.2520  -38.6270   -8.6860 O.2    61  THR61      -0.2866
     49  CB        16.3290  -37.0870  -10.3680 C.3    61  THR61       0.1770
     50  OG1       16.0580  -36.9880   -8.9630 O.3    61  THR61      -0.2211
     51  CG2       15.0510  -36.8450  -11.1530 C.3    61  THR61       0.0375
     52  N         18.8830  -31.1270   -8.3130 N.3    67  LEU67      -0.1245
     53  CA        18.8590  -31.0700   -6.8550 C.3    67  LEU67       0.1561
     54  C         18.7140  -32.4850   -6.2860 C.2    67  LEU67       0.2260
     55  O         17.9090  -33.2760   -6.7760 O.2    67  LEU67      -0.2867
     56  CB        17.7120  -30.1730   -6.3870 C.3    67  LEU67       0.0270
     57  CG        17.6850  -29.7800   -4.9110 C.3    67  LEU67       0.0019
     58  CD1       18.6500  -28.6400   -4.6300 C.3    67  LEU67       0.0001
     59  CD2       16.2960  -29.3890   -4.4900 C.3    67  LEU67       0.0001
     60  N         17.5100  -35.4020   -4.2960 N.3    69  PHE69      -0.1241
     61  CA        16.4310  -35.9140   -3.4520 C.3    69  PHE69       0.1605
     62  C         16.9990  -36.9300   -2.4670 C.2    69  PHE69       0.2264
     63  O         17.6600  -37.8840   -2.8730 O.2    69  PHE69      -0.2867
     64  CB        15.3190  -36.5460   -4.3000 C.3    69  PHE69       0.0534
     65  CG        14.4860  -37.5590   -3.5530 C.ar   69  PHE69      -0.0203
     66  CD1       13.6150  -37.1600   -2.5320 C.ar   69  PHE69      -0.0042
     67  CD2       14.5780  -38.9170   -3.8560 C.ar   69  PHE69      -0.0042
     68  CE1       12.8470  -38.0960   -1.8290 C.ar   69  PHE69      -0.0003
     69  CE2       13.8130  -39.8640   -3.1510 C.ar   69  PHE69      -0.0003
     70  CZ        12.9490  -39.4480   -2.1370 C.ar   69  PHE69      -0.0000
     71  N          9.1270  -33.6190    1.4480 N.3    80  ILE80      -0.1245
     72  CA        10.2640  -34.0020    0.6060 C.3    80  ILE80       0.1561
     73  C         11.5320  -33.3680    1.1650 C.2    80  ILE80       0.2260
     74  O         11.5690  -32.1600    1.4400 O.2    80  ILE80      -0.2867
     75  CB        10.0930  -33.5530   -0.8560 C.3    80  ILE80       0.0252
     76  CG1        8.9900  -34.3570   -1.5400 C.3    80  ILE80       0.0019
     77  CG2       11.3860  -33.7400   -1.6240 C.3    80  ILE80       0.0019
     78  CD1        8.5200  -33.7630   -2.8520 C.3    80  ILE80       0.0001
     79  N         15.6730  -32.6450    0.7100 N.3    82  THR82      -0.1203
     80  CA        16.7710  -32.5630   -0.2370 C.3    82  THR82       0.1994
     81  C         18.0810  -32.1100    0.4230 C.2    82  THR82       0.2618
     82  O         18.1050  -31.7070    1.5930 O.2    82  THR82      -0.2717
     83  CB        16.4370  -31.6340   -1.4320 C.3    82  THR82       0.1784
     84  OG1       16.2680  -30.2910   -0.9720 O.3    82  THR82      -0.2211
     85  CG2       15.1780  -32.0870   -2.1380 C.3    82  THR82       0.0376
     86  N         19.1690  -32.1930   -0.3370 N.am   83  GLN83      -0.1965
     87  CA        20.4250  -31.5880    0.0650 C.3    83  GLN83       0.1733
     88  C         20.1930  -30.1100    0.3260 C.2    83  GLN83       0.2616
     89  O         19.3060  -29.5010   -0.2690 O.2    83  GLN83      -0.2715
     90  CB        21.4920  -31.7750   -1.0240 C.3    83  GLN83       0.0408
     91  CG        21.1470  -31.1840   -2.4020 C.3    83  GLN83       0.0908
     92  CD        22.3420  -31.1250   -3.3410 C.2    83  GLN83       0.2608
     93  OE1       22.2590  -31.5490   -4.4940 O.2    83  GLN83      -0.2717
     94  NE2       23.4600  -30.5960   -2.8480 N.am   83  GLN83      -0.0878
     95  N         20.9750  -29.5430    1.2350 N.am   84  TRP84      -0.1960
     96  CA        20.9410  -28.1100    1.4710 C.3    84  TRP84       0.1771
     97  C         22.0120  -27.4420    0.6360 C.2    84  TRP84       0.2619
     98  O         23.1830  -27.7930    0.7420 O.2    84  TRP84      -0.2715
     99  CB        21.1770  -27.7890    2.9430 C.3    84  TRP84       0.0590
    100  CG        21.2700  -26.3270    3.1820 C.ar   84  TRP84       0.0006
    101  CD1       22.4050  -25.5980    3.3790 C.ar   84  TRP84       0.0946
    102  CD2       20.1830  -25.3970    3.2200 C.ar   84  TRP84       0.0152
    103  NE1       22.0940  -24.2700    3.5540 N.ar   84  TRP84      -0.2442
    104  CE2       20.7350  -24.1200    3.4610 C.ar   84  TRP84       0.0810
    105  CE3       18.7950  -25.5200    3.0820 C.ar   84  TRP84       0.0012
    106  CZ2       19.9470  -22.9750    3.5660 C.ar   84  TRP84       0.0191
    107  CZ3       18.0160  -24.3850    3.1850 C.ar   84  TRP84       0.0001
    108  CH2       18.5930  -23.1280    3.4270 C.ar   84  TRP84       0.0015
    109  N         21.6140  -26.4880   -0.1960 N.am   85  CYS85      -0.1968
    110  CA        22.5790  -25.7440   -0.9840 C.3    85  CYS85       0.1712
    111  C         22.9810  -24.5000   -0.2160 C.2    85  CYS85       0.2296
    112  O         22.1280  -23.6930    0.1590 O.2    85  CYS85      -0.2864
    113  CB        21.9950  -25.3540   -2.3350 C.3    85  CYS85       0.0983
    114  SG        21.4400  -26.7350   -3.3470 S.3    85  CYS85      -0.0798
    115  N         24.8140  -20.8530   -0.2880 N.3    87  GLY87      -0.1210
    116  CA        24.7820  -19.8700   -1.3740 C.3    87  GLY87       0.1956
    117  C         23.3370  -19.6310   -1.7710 C.2    87  GLY87       0.2613
    118  O         22.4300  -20.2720   -1.2370 O.2    87  GLY87      -0.2717
    119  N         23.1090  -18.7230   -2.7140 N.am   88  SER88      -0.1938
    120  CA        21.7410  -18.2800   -3.0040 C.3    88  SER88       0.2055
    121  C         21.2570  -18.7100   -4.3860 C.2    88  SER88       0.2643
    122  O         22.0710  -19.0240   -5.2500 O.2    88  SER88      -0.2714
    123  CB        21.6390  -16.7620   -2.8360 C.3    88  SER88       0.2130
    124  OG        22.0230  -16.3780   -1.5240 O.3    88  SER88      -0.2179
    125  N         19.9360  -18.7190   -4.5810 N.am   89  SER89      -0.1949
    126  CA        19.3170  -19.0720   -5.8620 C.3    89  SER89       0.1924
    127  C         19.6840  -18.0870   -6.9690 C.2    89  SER89       0.2314
    128  O         20.1210  -16.9710   -6.6920 O.2    89  SER89      -0.2863
    129  CB        17.8000  -19.0910   -5.7240 C.3    89  SER89       0.2116
    130  OG        17.2630  -17.7960   -5.9400 O.3    89  SER89      -0.2180
    131  N         18.9110  -23.3060   -8.2790 N.3   136  PHE136     -0.1241
    132  CA        19.7040  -23.0290   -7.0850 C.3   136  PHE136      0.1605
    133  C         21.1770  -23.0640   -7.4600 C.2   136  PHE136      0.2264
    134  O         21.5500  -23.6780   -8.4600 O.2   136  PHE136     -0.2867
    135  CB        19.3540  -24.0180   -5.9680 C.3   136  PHE136      0.0534
    136  CG        17.8560  -24.1130   -5.6790 C.ar  136  PHE136     -0.0203
    137  CD1       17.0740  -25.1210   -6.2610 C.ar  136  PHE136     -0.0042
    138  CD2       17.2270  -23.1900   -4.8310 C.ar  136  PHE136     -0.0042
    139  CE1       15.6980  -25.2090   -6.0030 C.ar  136  PHE136     -0.0003
    140  CE2       15.8450  -23.2730   -4.5670 C.ar  136  PHE136     -0.0003
    141  CZ        15.0850  -24.2850   -5.1560 C.ar  136  PHE136     -0.0000
    142  N         12.2040  -28.1140   -7.6820 N.3   147  ASP147     -0.1225
    143  CA        10.7630  -27.8340   -7.8410 C.3   147  ASP147      0.1805
    144  C         10.0750  -28.4830   -9.0310 C.2   147  ASP147      0.2598
    145  O          8.9720  -28.0920   -9.3900 O.2   147  ASP147     -0.2718
    146  CB        10.4740  -26.3300   -7.8310 C.3   147  ASP147      0.1424
    147  CG         9.9210  -25.8600   -6.5100 C.2   147  ASP147      0.3668
    148  OD1        8.7080  -25.5530   -6.4610 O.co2 147  ASP147     -0.2456
    149  OD2       10.6880  -25.8100   -5.5180 O.co2 147  ASP147     -0.2456
    150  N         10.7130  -29.4760   -9.6330 N.am  148  PHE148     -0.1962
    151  CA        10.1100  -30.1990  -10.7480 C.3   148  PHE148      0.1771
    152  C          9.2160  -31.3260  -10.2460 C.2   148  PHE148      0.2620
    153  O          8.4980  -31.9540  -11.0210 O.2   148  PHE148     -0.2715
    154  CB        11.1810  -30.7370  -11.7010 C.3   148  PHE148      0.0574
    155  CG        12.1290  -31.7050  -11.0610 C.ar  148  PHE148     -0.0200
    156  CD1       13.1560  -31.2560  -10.2360 C.ar  148  PHE148     -0.0042
    157  CD2       12.0000  -33.0620  -11.2840 C.ar  148  PHE148     -0.0042
    158  CE1       14.0290  -32.1400   -9.6390 C.ar  148  PHE148     -0.0003
    159  CE2       12.8700  -33.9520  -10.6910 C.ar  148  PHE148     -0.0003
    160  CZ        13.8870  -33.4890   -9.8630 C.ar  148  PHE148     -0.0000
    161  N          9.2630  -31.5790   -8.9450 N.am  149  GLY149     -0.1940
    162  CA         8.4070  -32.5810   -8.3420 C.3   149  GLY149      0.2014
    163  C          6.9850  -32.0910   -8.1520 C.2   149  GLY149      0.2638
    164  O          6.7210  -30.8820   -8.1830 O.2   149  GLY149     -0.2714
    165  N          6.0750  -33.0520   -7.9690 N.am  150  LEU150     -0.1977
    166  CA         4.6880  -32.8140   -7.5310 C.3   150  LEU150      0.1596
    167  C          3.7550  -32.2100   -8.5910 C.2   150  LEU150      0.2287
    168  O          2.7950  -31.5040   -8.2550 O.2   150  LEU150     -0.2864
    169  CB         4.6530  -31.9800   -6.2370 C.3   150  LEU150      0.0297
    170  CG         5.6500  -32.3500   -5.1340 C.3   150  LEU150      0.0022
    171  CD1        5.9640  -31.1310   -4.2670 C.3   150  LEU150      0.0001
    172  CD2        5.1650  -33.5340   -4.2960 C.3   150  LEU150      0.0001
@<TRIPOS>BOND
     1   154   155    1
     2   154   151    1
     3   157   155   ar
     4   157   159   ar
     5    51    49    1
     6   155   156   ar
     7   153   152    2
     8   151   152    1
     9   151   150    1
    10    46    45    1
    11    46    49    1
    12    46    47    1
    13   159   160   ar
    14    49    50    1
    15   152   161   am
    16   156   158   ar
    17    47    48    2
    18   160   158   ar
    19   150   144   am
    20   145   144    2
    21   144   143    1
    22   161   162    1
    23   167   168    2
    24   167   166    1
    25    37    38    1
    26   134   133    2
    27   162   163    1
    28    52    53    1
    29    40    39    2
    30   131   132    1
    31   164   163    2
    32   163   165   am
    33    38    39    1
    34    38    41    1
    35   165   166    1
    36   143   146    1
    37   143   142    1
    38   146   147    1
    39   166   169    1
    40   133   132    1
    41    44    42    1
    42   132   135    1
    43   127   128    2
    44   127   126    1
    45    53    56    1
    46    53    54    1
    47    55    54    2
    48    41    42    1
    49   147   148   ar
    50   147   149   ar
    51    42    43    1
    52    56    57    1
    53   137   139   ar
    54   137   136   ar
    55   169   170    1
    56   139   141   ar
    57   135   136    1
    58   130   129    1
    59   126   129    1
    60   126   125    1
    61   136   138   ar
    62   122   121    2
    63   141   140   ar
    64   170   172    1
    65   170   171    1
    66    57    58    1
    67    57    59    1
    68   138   140   ar
    69   125   121   am
    70    93    92    2
    71   121   120    1
    72    64    65    1
    73    64    61    1
    74    60    61    1
    75    67    65   ar
    76    67    69   ar
    77    36    35    1
    78    65    66   ar
    79    61    62    1
    80   114   113    1
    81    92    94   am
    82    92    91    1
    83    69    70   ar
    84   120   123    1
    85   120   119    1
    86    63    62    2
    87    78    76    1
    88   123   124    1
    89   119   117   am
    90    35    34    1
    91    66    68   ar
    92    91    90    1
    93   113   110    1
    94    85    83    1
    95    70    68   ar
    96   117   116    1
    97   117   118    2
    98    77    75    1
    99    76    75    1
   100    83    84    1
   101    83    80    1
   102   116   115    1
   103    34    33    1
   104    90    87    1
   105   110   111    1
   106   110   109    1
   107    75    72    1
   108    86    87    1
   109    86    81   am
   110    89    88    2
   111    80    81    1
   112    80    79    1
   113   111   112    2
   114   109    97   am
   115    33    32    1
   116    87    88    1
   117    88    95   am
   118    15    13    1
   119    81    82    2
   120    32    29    1
   121    72    73    1
   122    72    71    1
   123    97    98    2
   124    97    96    1
   125    73    74    2
   126    95    96    1
   127    96    99    1
   128    13    14    1
   129    13    10    1
   130    20    17    1
   131    31    30    2
   132    29    28    1
   133    29    30    1
   134     4     3    2
   135    28    23   am
   136    19    18    2
   137     9    10    1
   138    10    11    1
   139    99   100    1
   140   105   107   ar
   141   105   102   ar
   142    17    18    1
   143    17    16    1
   144     3     2    1
   145   100   102   ar
   146   100   101   ar
   147   107   108   ar
   148    18    21   am
   149   102   104   ar
   150   101   103   ar
   151   108   106   ar
   152    23    24    2
   153    23    22    1
   154   104   103   ar
   155   104   106   ar
   156     5     6    1
   157     5     7    1
   158     5     2    1
   159     6     8    1
   160    21    22    1
   161    22    25    1
   162     2     1    1
   163    11    12    2
   164    25    26    1
   165    25    27    1
