@<TRIPOS>MOLECULE
tmp/3tv7D00.pdb
 200 191 0 0 0
SMALL
GASTEIGER

@<TRIPOS>ATOM
      1  N        -48.9180  -13.4570   64.1130 N.3    77  ILE77      -0.1231
      2  CA       -47.9700  -12.6280   64.8440 C.3    77  ILE77       0.1696
      3  C        -46.5560  -12.5550   64.2570 C.2    77  ILE77       0.2632
      4  O        -45.7180  -11.8080   64.7640 O.2    77  ILE77      -0.2714
      5  CB       -47.9220  -13.0250   66.3400 C.3    77  ILE77       0.0266
      6  CG1      -48.3370  -14.4860   66.5170 C.3    77  ILE77       0.0019
      7  CG2      -48.8550  -12.1430   67.1530 C.3    77  ILE77       0.0020
      8  CD1      -47.9890  -15.0600   67.8710 C.3    77  ILE77       0.0001
      9  N        -46.2910  -13.3060   63.1930 N.am   78  GLY78      -0.1718
     10  CA       -44.9700  -13.2820   62.5790 C.2    78  GLY78       0.1480
     11  C        -44.8330  -14.1020   61.3090 C.2    78  GLY78       0.2820
     12  O        -45.6030  -15.0280   61.0680 O.2    78  GLY78      -0.2669
     13  N        -43.8420  -13.7600   60.4950 N.am   79  ARG79      -0.1929
     14  CA       -43.5770  -14.4850   59.2540 C.3    79  ARG79       0.1732
     15  C        -42.0930  -14.8350   59.1370 C.2    79  ARG79       0.2616
     16  O        -41.2300  -13.9690   59.2760 O.2    79  ARG79      -0.2715
     17  CB       -44.0310  -13.6760   58.0270 C.3    79  ARG79       0.0348
     18  CG       -45.2560  -14.2490   57.3100 C.3    79  ARG79       0.0492
     19  CD       -45.8990  -13.2500   56.3330 C.3    79  ARG79       0.2205
     20  NE       -47.2740  -12.8900   56.7060 N.pl3  79  ARG79      -0.0865
     21  CZ       -48.3220  -13.7070   56.6010 C.cat  79  ARG79       0.5346
     22  NH1      -48.1610  -14.9430   56.1430 N.pl3  79  ARG79       0.1354
     23  NH2      -49.5320  -13.2950   56.9630 N.pl3  79  ARG79       0.1354
     24  N        -41.8070  -16.1180   58.9110 N.am   80  GLY80      -0.1955
     25  CA       -40.4430  -16.5950   58.7160 C.3    80  GLY80       0.1869
     26  C        -40.0570  -17.0280   57.3080 C.2    80  GLY80       0.2309
     27  O        -38.9630  -17.5550   57.0810 O.2    80  GLY80      -0.2863
     28  N        -40.2160  -19.4800   55.7580 N.3    82  PHE82      -0.1227
     29  CA       -40.4460  -20.9220   55.6690 C.3    82  PHE82       0.1736
     30  C        -41.8390  -21.2220   56.1980 C.2    82  PHE82       0.2596
     31  O        -42.3090  -22.3600   56.1220 O.2    82  PHE82      -0.2718
     32  CB       -39.3940  -21.7320   56.4330 C.3    82  PHE82       0.0547
     33  CG       -38.2660  -22.2030   55.5700 C.ar   82  PHE82      -0.0202
     34  CD1      -38.4720  -23.2100   54.6280 C.ar   82  PHE82      -0.0042
     35  CD2      -37.0000  -21.6250   55.6730 C.ar   82  PHE82      -0.0042
     36  CE1      -37.4230  -23.6500   53.7960 C.ar   82  PHE82      -0.0003
     37  CE2      -35.9410  -22.0520   54.8540 C.ar   82  PHE82      -0.0003
     38  CZ       -36.1550  -23.0690   53.9110 C.ar   82  PHE82      -0.0000
     39  N        -42.4990  -20.1830   56.7090 N.am   83  GLY83      -0.1942
     40  CA       -43.8190  -20.3120   57.2940 C.3    83  GLY83       0.2014
     41  C        -44.0840  -19.1450   58.2230 C.2    83  GLY83       0.2639
     42  O        -43.4150  -18.1170   58.1500 O.2    83  GLY83      -0.2714
     43  N        -45.0530  -19.3000   59.1120 N.am   84  GLU84      -0.1963
     44  CA       -45.4850  -18.1820   59.9380 C.3    84  GLU84       0.1733
     45  C        -45.8040  -18.5740   61.3830 C.2    84  GLU84       0.2616
     46  O        -45.8920  -19.7650   61.7140 O.2    84  GLU84      -0.2715
     47  CB       -46.6980  -17.5080   59.2940 C.3    84  GLU84       0.0429
     48  CG       -47.8650  -18.4500   59.0040 C.3    84  GLU84       0.1163
     49  CD       -49.0670  -17.7170   58.4080 C.2    84  GLU84       0.3649
     50  OE1      -48.9530  -16.5050   58.1210 O.co2  84  GLU84      -0.2457
     51  OE2      -50.1330  -18.3460   58.2240 O.co2  84  GLU84      -0.2457
     52  N        -45.9650  -17.5710   62.2430 N.am   85  VAL85      -0.1977
     53  CA       -46.3780  -17.8220   63.6260 C.3    85  VAL85       0.1596
     54  C        -47.7760  -17.2490   63.9300 C.2    85  VAL85       0.2287
     55  O        -48.0460  -16.0670   63.7000 O.2    85  VAL85      -0.2864
     56  CB       -45.3440  -17.3010   64.6430 C.3    85  VAL85       0.0276
     57  CG1      -45.6830  -17.8310   66.0350 C.3    85  VAL85       0.0022
     58  CG2      -43.9340  -17.7190   64.2340 C.3    85  VAL85       0.0022
     59  N        -48.9600  -20.1130   71.0080 N.3    98  ALA98      -0.1245
     60  CA       -48.2830  -19.6350   69.8000 C.3    98  ALA98       0.1562
     61  C        -47.9280  -20.8430   68.9030 C.2    98  ALA98       0.2260
     62  O        -47.3740  -21.8450   69.3710 O.2    98  ALA98      -0.2867
     63  CB       -47.0210  -18.8200   70.1570 C.3    98  ALA98       0.0290
     64  N        -46.0670  -22.2380   65.3720 N.3   100  LYS100     -0.1231
     65  CA       -45.1560  -22.0000   64.2640 C.3   100  LYS100      0.1693
     66  C        -45.4460  -22.9980   63.1580 C.2   100  LYS100      0.2592
     67  O        -45.6310  -24.1860   63.4280 O.2   100  LYS100     -0.2718
     68  CB       -43.7160  -22.1410   64.7490 C.3   100  LYS100      0.0285
     69  CG       -42.7030  -21.5080   63.8360 C.3   100  LYS100      0.0035
     70  CD       -41.3220  -21.4510   64.4800 C.3   100  LYS100      0.0206
     71  CE       -40.2510  -21.6790   63.4110 C.3   100  LYS100      0.1093
     72  NZ       -38.8700  -21.2880   63.8250 N.3   100  LYS100     -0.1314
     73  N        -45.5130  -22.5230   61.9160 N.am  101  LEU101     -0.1966
     74  CA       -45.7140  -23.4330   60.7830 C.3   101  LEU101      0.1728
     75  C        -44.4720  -23.5350   59.9240 C.2   101  LEU101      0.2616
     76  O        -43.7840  -22.5400   59.6700 O.2   101  LEU101     -0.2715
     77  CB       -46.9020  -23.0170   59.9260 C.3   101  LEU101      0.0311
     78  CG       -48.2700  -23.1300   60.5960 C.3   101  LEU101      0.0022
     79  CD1      -48.6990  -21.7550   61.0790 C.3   101  LEU101      0.0001
     80  CD2      -49.2960  -23.7130   59.6220 C.3   101  LEU101      0.0001
     81  N        -44.1810  -24.7530   59.4860 N.am  102  LEU102     -0.1977
     82  CA       -43.0800  -24.9700   58.5480 C.3   102  LEU102      0.1596
     83  C        -43.5380  -25.6750   57.2770 C.2   102  LEU102      0.2287
     84  O        -44.0850  -26.7900   57.3540 O.2   102  LEU102     -0.2864
     85  CB       -41.9640  -25.7580   59.2180 C.3   102  LEU102      0.0297
     86  CG       -41.1720  -24.8700   60.1640 C.3   102  LEU102      0.0022
     87  CD1      -39.9880  -25.6300   60.7250 C.3   102  LEU102      0.0001
     88  CD2      -40.7110  -23.6360   59.4010 C.3   102  LEU102      0.0001
     89  N        -33.1640  -28.6820   59.5220 N.3   115  PHE115     -0.1241
     90  CA       -32.7210  -27.6080   60.4420 C.3   115  PHE115      0.1605
     91  C        -33.5170  -27.4160   61.7490 C.2   115  PHE115      0.2264
     92  O        -33.0640  -26.7340   62.6840 O.2   115  PHE115     -0.2867
     93  CB       -32.7250  -26.2760   59.6930 C.3   115  PHE115      0.0534
     94  CG       -34.1010  -25.7350   59.4720 C.ar  115  PHE115     -0.0203
     95  CD1      -34.7610  -25.0570   60.4970 C.ar  115  PHE115     -0.0042
     96  CD2      -34.7610  -25.9350   58.2560 C.ar  115  PHE115     -0.0042
     97  CE1      -36.0590  -24.5610   60.3170 C.ar  115  PHE115     -0.0003
     98  CE2      -36.0640  -25.4340   58.0560 C.ar  115  PHE115     -0.0003
     99  CZ       -36.7130  -24.7460   59.0940 C.ar  115  PHE115     -0.0000
    100  N        -34.1900  -26.9760   67.3990 N.3   119  GLU119     -0.1245
    101  CA       -35.3100  -26.2310   67.9620 C.3   119  GLU119      0.1567
    102  C        -36.2920  -27.1700   68.6860 C.2   119  GLU119      0.2260
    103  O        -36.6760  -26.9160   69.8340 O.2   119  GLU119     -0.2867
    104  CB       -36.0320  -25.4290   66.8690 C.3   119  GLU119      0.0388
    105  CG       -37.0440  -24.4480   67.4180 C.3   119  GLU119      0.1160
    106  CD       -37.3370  -23.3100   66.4600 C.2   119  GLU119      0.3649
    107  OE1      -37.1570  -22.1290   66.8590 O.co2 119  GLU119     -0.2457
    108  OE2      -37.7550  -23.6040   65.3120 O.co2 119  GLU119     -0.2457
    109  N        -36.7590  -26.7570   72.7360 N.3   123  MET123     -0.1245
    110  CA       -38.0290  -26.2720   73.2530 C.3   123  MET123      0.1570
    111  C        -38.8090  -27.3640   73.9750 C.2   123  MET123      0.2261
    112  O        -39.5560  -27.0830   74.9150 O.2   123  MET123     -0.2867
    113  CB       -38.8470  -25.6230   72.1450 C.3   123  MET123      0.0387
    114  CG       -38.2430  -24.2940   71.6770 C.3   123  MET123      0.0595
    115  SD       -39.3260  -23.4590   70.4930 S.3   123  MET123     -0.1393
    116  CE       -40.6520  -22.9280   71.5890 C.3   123  MET123      0.0692
    117  N        -38.6990  -20.6540   76.0250 N.3   132  VAL132     -0.1245
    118  CA       -40.0510  -20.9360   75.5580 C.3   132  VAL132      0.1561
    119  C        -40.2590  -22.4470   75.3910 C.2   132  VAL132      0.2260
    120  O        -39.4640  -23.1340   74.7440 O.2   132  VAL132     -0.2867
    121  CB       -40.3610  -20.2190   74.2200 C.3   132  VAL132      0.0252
    122  CG1      -41.7900  -20.5470   73.7490 C.3   132  VAL132      0.0019
    123  CG2      -40.1810  -18.7230   74.3800 C.3   132  VAL132      0.0019
    124  N        -46.5600  -23.7600   70.9220 N.3   148  MET148     -0.1230
    125  CA       -45.6930  -23.2290   71.9720 C.3   148  MET148      0.1702
    126  C        -46.4430  -22.3220   72.9600 C.2   148  MET148      0.2592
    127  O        -47.4780  -21.7340   72.6240 O.2   148  MET148     -0.2718
    128  CB       -44.5720  -22.3940   71.3390 C.3   148  MET148      0.0401
    129  CG       -43.7230  -23.1060   70.2910 C.3   148  MET148      0.0596
    130  SD       -42.7060  -21.9130   69.3660 S.3   148  MET148     -0.1393
    131  CE       -43.9640  -21.0830   68.3830 C.3   148  MET148      0.0692
    132  N        -45.8980  -22.1730   74.1670 N.am  149  GLU149     -0.1966
    133  CA       -46.4280  -21.1730   75.0870 C.3   149  GLU149      0.1733
    134  C        -46.3960  -19.7850   74.4540 C.2   149  GLU149      0.2616
    135  O        -45.3720  -19.3330   73.9160 O.2   149  GLU149     -0.2715
    136  CB       -45.7080  -21.1830   76.4440 C.3   149  GLU149      0.0429
    137  CG       -44.2060  -20.8810   76.4130 C.3   149  GLU149      0.1163
    138  CD       -43.5710  -20.8920   77.8160 C.2   149  GLU149      0.3649
    139  OE1      -42.5390  -21.5900   78.0270 O.co2 149  GLU149     -0.2457
    140  OE2      -44.1080  -20.1870   78.7080 O.co2 149  GLU149     -0.2457
    141  N        -47.5420  -19.1220   74.5030 N.am  150  TYR150     -0.1960
    142  CA       -47.6580  -17.7900   73.9590 C.3   150  TYR150      0.1771
    143  C        -46.9340  -16.7880   74.8800 C.2   150  TYR150      0.2619
    144  O        -47.0620  -16.8530   76.1100 O.2   150  TYR150     -0.2715
    145  CB       -49.1400  -17.4580   73.7850 C.3   150  TYR150      0.0574
    146  CG       -49.3810  -16.0540   73.3050 C.ar  150  TYR150     -0.0198
    147  CD1      -48.6190  -15.5060   72.2740 C.ar  150  TYR150     -0.0009
    148  CD2      -50.3640  -15.2660   73.8850 C.ar  150  TYR150     -0.0009
    149  CE1      -48.8320  -14.2030   71.8360 C.ar  150  TYR150      0.0417
    150  CE2      -50.5890  -13.9650   73.4520 C.ar  150  TYR150      0.0417
    151  CZ       -49.8250  -13.4370   72.4300 C.ar  150  TYR150      0.1957
    152  OH       -50.0630  -12.1430   72.0140 O.3   150  TYR150     -0.2866
    153  N        -46.1670  -15.8780   74.2790 N.am  151  MET151     -0.1977
    154  CA       -45.3900  -14.8650   75.0050 C.3   151  MET151      0.1605
    155  C        -45.8770  -13.4510   74.6710 C.2   151  MET151      0.2287
    156  O        -45.2420  -12.7320   73.8900 O.2   151  MET151     -0.2864
    157  CB       -43.9240  -14.9680   74.6120 C.3   151  MET151      0.0413
    158  CG       -43.2470  -16.2260   75.0720 C.3   151  MET151      0.0598
    159  SD       -42.6390  -16.0780   76.7570 S.3   151  MET151     -0.1393
    160  CE       -43.8190  -17.1520   77.5850 C.3   151  MET151      0.0692
    161  N        -34.9440   -9.9030   68.7470 N.3   197  ASP197     -0.1239
    162  CA       -35.9890  -10.6670   68.0510 C.3   197  ASP197      0.1674
    163  C        -36.2480  -12.0220   68.7360 C.2   197  ASP197      0.2266
    164  O        -37.3890  -12.4730   68.8370 O.2   197  ASP197     -0.2867
    165  CB       -35.5800  -10.9300   66.5890 C.3   197  ASP197      0.1410
    166  CG       -35.2170   -9.6510   65.8160 C.2   197  ASP197      0.3668
    167  OD1      -34.2500   -8.9540   66.2150 O.co2 197  ASP197     -0.2456
    168  OD2      -35.8750   -9.3720   64.7810 O.co2 197  ASP197     -0.2456
    169  N        -38.2950  -12.7930   74.0270 N.3   200  LEU200     -0.1245
    170  CA       -39.6860  -12.4460   74.3150 C.3   200  LEU200      0.1561
    171  C        -39.9560  -12.2420   75.8230 C.2   200  LEU200      0.2260
    172  O        -39.2010  -12.7110   76.6970 O.2   200  LEU200     -0.2867
    173  CB       -40.6460  -13.4930   73.7450 C.3   200  LEU200      0.0270
    174  CG       -40.7030  -13.4950   72.2200 C.3   200  LEU200      0.0019
    175  CD1      -40.4540  -14.9040   71.7030 C.3   200  LEU200      0.0001
    176  CD2      -42.0340  -12.9450   71.7110 C.3   200  LEU200      0.0001
    177  N        -36.5830  -17.5800   72.3470 N.3   210  ALA210     -0.1231
    178  CA       -37.3190  -18.4010   71.3730 C.3   210  ALA210      0.1694
    179  C        -36.5090  -18.4080   70.0530 C.2   210  ALA210      0.2592
    180  O        -35.3780  -17.9220   70.0190 O.2   210  ALA210     -0.2718
    181  CB       -38.7430  -17.8770   71.1620 C.3   210  ALA210      0.0304
    182  N        -37.0590  -18.9770   68.9840 N.am  211  ASP211     -0.1974
    183  CA       -36.3300  -19.0890   67.6990 C.3   211  ASP211      0.1709
    184  C        -34.9140  -19.7050   67.8320 C.2   211  ASP211      0.2293
    185  O        -33.8980  -19.0020   67.8190 O.2   211  ASP211     -0.2864
    186  CB       -36.2730  -17.7690   66.9260 C.3   211  ASP211      0.1436
    187  CG       -35.8390  -17.9490   65.4650 C.2   211  ASP211      0.3671
    188  OD1      -35.8600  -19.0960   64.9600 O.co2 211  ASP211     -0.2456
    189  OD2      -35.4780  -16.9250   64.8230 O.co2 211  ASP211     -0.2456
    190  N        -47.3220   -6.9580   69.1950 N.3   363  PHE363     -0.1241
    191  CA       -46.9420   -7.4970   67.8930 C.3   363  PHE363      0.1605
    192  C        -47.5660   -6.6890   66.7650 C.2   363  PHE363      0.2264
    193  O        -48.7110   -6.2420   66.8650 O.2   363  PHE363     -0.2867
    194  CB       -47.4110   -8.9500   67.7530 C.3   363  PHE363      0.0534
    195  CG       -46.9010   -9.8590   68.8270 C.ar  363  PHE363     -0.0203
    196  CD1      -45.6590  -10.4680   68.7010 C.ar  363  PHE363     -0.0042
    197  CD2      -47.6580  -10.1040   69.9690 C.ar  363  PHE363     -0.0042
    198  CE1      -45.1720  -11.3140   69.6910 C.ar  363  PHE363     -0.0003
    199  CE2      -47.1800  -10.9450   70.9770 C.ar  363  PHE363     -0.0003
    200  CZ       -45.9320  -11.5530   70.8370 C.ar  363  PHE363     -0.0000
@<TRIPOS>BOND
     1    36    38   ar
     2    36    34   ar
     3    38    37   ar
     4    34    33   ar
     5    37    35   ar
     6    33    35   ar
     7    33    32    1
     8    29    28    1
     9    29    30    1
    10    29    32    1
    11    31    30    2
    12    22    21    1
    13    30    39   am
    14    19    20    1
    15    19    18    1
    16    21    20    2
    17    21    23    1
    18    39    40    1
    19    27    26    2
    20    83    84    2
    21    83    82    1
    22    40    41    1
    23    26    25    1
    24    18    17    1
    25    17    14    1
    26    98    96   ar
    27    98    99   ar
    28    50    49   ar
    29    42    41    2
    30    41    43   am
    31    51    49   ar
    32    96    94   ar
    33    49    48    1
    34    82    85    1
    35    82    81    1
    36    25    24    1
    37    24    15   am
    38    48    47    1
    39    99    97   ar
    40    43    44    1
    41    15    14    1
    42    15    16    2
    43    85    86    1
    44    14    13    1
    45    47    44    1
    46    88    86    1
    47    94    93    1
    48    94    95   ar
    49    81    75   am
    50    89    90    1
    51    80    78    1
    52    76    75    2
    53    93    90    1
    54    75    74    1
    55    77    78    1
    56    77    74    1
    57    44    45    1
    58    86    87    1
    59    97    95   ar
    60    90    91    1
    61    13    11   am
    62    78    79    1
    63    74    73    1
    64    12    11    2
    65    11    10    1
    66    45    46    2
    67    45    52   am
    68    91    92    2
    69    73    66   am
    70    52    53    1
    71    10     9    2
    72    66    67    2
    73    66    65    1
    74     9     3    1
    75    71    72    1
    76    71    70    1
    77    53    54    1
    78    53    56    1
    79    55    54    2
    80    69    70    1
    81    69    68    1
    82     1     2    1
    83    58    56    1
    84     3     4    2
    85     3     2    1
    86    65    68    1
    87    65    64    1
    88    56    57    1
    89   168   166   ar
    90   189   187   ar
    91     2     5    1
    92   188   187   ar
    93   108   106   ar
    94   187   186    1
    95   166   167   ar
    96   166   165    1
    97     5     6    1
    98     5     7    1
    99   106   107   ar
   100   106   105    1
   101     6     8    1
   102   165   162    1
   103   192   193    2
   104   192   191    1
   105   104   105    1
   106   104   101    1
   107   186   183    1
   108   100   101    1
   109   183   184    1
   110   183   182    1
   111   194   191    1
   112   194   195    1
   113   185   184    2
   114   191   190    1
   115   101   102    1
   116   162   163    1
   117   162   161    1
   118   131   130    1
   119   102   103    2
   120   196   195   ar
   121   196   198   ar
   122   163   164    2
   123   195   197   ar
   124    61    62    2
   125    61    60    1
   126   182   179   am
   127   130   129    1
   128   198   200   ar
   129    60    63    1
   130    60    59    1
   131   197   199   ar
   132   180   179    2
   133   179   178    1
   134   129   128    1
   135   115   116    1
   136   115   114    1
   137   200   199   ar
   138   124   125    1
   139   181   178    1
   140   128   125    1
   141   178   177    1
   142   114   113    1
   143   175   174    1
   144   176   174    1
   145   149   147   ar
   146   149   151   ar
   147   125   126    1
   148   152   151    1
   149   113   110    1
   150   174   173    1
   151   147   146   ar
   152   151   150   ar
   153   127   126    2
   154   109   110    1
   155   126   132   am
   156   110   111    1
   157   146   145    1
   158   146   148   ar
   159   150   148   ar
   160   173   170    1
   161   122   121    1
   162   145   142    1
   163   156   155    2
   164   135   134    2
   165   142   141    1
   166   142   143    1
   167   111   112    2
   168   169   170    1
   169   132   133    1
   170   121   123    1
   171   121   118    1
   172   153   143   am
   173   153   154    1
   174   170   171    1
   175   134   141   am
   176   134   133    1
   177   157   154    1
   178   157   158    1
   179   155   154    1
   180   120   119    2
   181   143   144    2
   182   158   159    1
   183   133   136    1
   184   119   118    1
   185   118   117    1
   186   171   172    2
   187   137   136    1
   188   137   138    1
   189   159   160    1
   190   138   139   ar
   191   138   140   ar
