@<TRIPOS>MOLECULE
tmp/3tv8B03.pdb
 124 118 0 0 0
SMALL
GASTEIGER

@<TRIPOS>ATOM
      1  N         21.0570   59.9340   87.2490 N.3    16  TRP16      -0.1241
      2  CA        20.7930   60.9890   88.2220 C.3    16  TRP16       0.1605
      3  C         19.6730   60.7260   89.2140 C.2    16  TRP16       0.2264
      4  O         19.8900   60.8280   90.4170 O.2    16  TRP16      -0.2867
      5  CB        20.5220   62.3340   87.5530 C.3    16  TRP16       0.0550
      6  CG        20.3760   63.4030   88.5920 C.ar   16  TRP16       0.0003
      7  CD1       19.2260   64.0140   88.9860 C.ar   16  TRP16       0.0946
      8  CD2       21.4150   63.9350   89.4150 C.ar   16  TRP16       0.0152
      9  NE1       19.4850   64.9150   89.9890 N.ar   16  TRP16      -0.2442
     10  CE2       20.8230   64.8860   90.2730 C.ar   16  TRP16       0.0810
     11  CE3       22.7940   63.7150   89.4990 C.ar   16  TRP16       0.0012
     12  CZ2       21.5600   65.6120   91.2060 C.ar   16  TRP16       0.0191
     13  CZ3       23.5230   64.4370   90.4290 C.ar   16  TRP16       0.0001
     14  CH2       22.9050   65.3760   91.2690 C.ar   16  TRP16       0.0015
     15  N         25.6550   61.3790   84.5090 N.3    61  ASP61      -0.1225
     16  CA        25.1510   62.7160   84.8400 C.3    61  ASP61       0.1805
     17  C         26.2230   63.4600   85.6450 C.2    61  ASP61       0.2597
     18  O         27.4050   63.1820   85.4770 O.2    61  ASP61      -0.2718
     19  CB        23.8150   62.6060   85.5950 C.3    61  ASP61       0.1424
     20  CG        22.9310   63.8370   85.4130 C.2    61  ASP61       0.3668
     21  OD1       23.0830   64.8090   86.1820 O.co2  61  ASP61      -0.2456
     22  OD2       22.0740   63.8270   84.5120 O.co2  61  ASP61      -0.2456
     23  N         25.8250   64.3920   86.5090 N.am   62  ASP62      -0.1974
     24  CA        26.7660   65.1830   87.3260 C.3    62  ASP62       0.1709
     25  C         27.5740   64.3070   88.3130 C.2    62  ASP62       0.2293
     26  O         27.2230   63.1530   88.5680 O.2    62  ASP62      -0.2864
     27  CB        25.9820   66.2690   88.0920 C.3    62  ASP62       0.1436
     28  CG        26.8320   67.4890   88.4760 C.2    62  ASP62       0.3671
     29  OD1       28.0770   67.4200   88.4570 O.co2  62  ASP62      -0.2456
     30  OD2       26.2350   68.5370   88.8190 O.co2  62  ASP62      -0.2456
     31  N         28.3200   64.4580   81.0530 N.3   103  TYR103     -0.1241
     32  CA        27.5870   65.6270   81.5350 C.3   103  TYR103      0.1605
     33  C         28.5320   66.8150   81.7130 C.2   103  TYR103      0.2264
     34  O         29.7040   66.6410   82.0450 O.2   103  TYR103     -0.2867
     35  CB        26.9240   65.2540   82.8630 C.3   103  TYR103      0.0534
     36  CG        26.2670   66.3760   83.6290 C.ar  103  TYR103     -0.0201
     37  CD1       24.8870   66.5300   83.6280 C.ar  103  TYR103     -0.0009
     38  CD2       27.0220   67.2560   84.3920 C.ar  103  TYR103     -0.0009
     39  CE1       24.2810   67.5480   84.3480 C.ar  103  TYR103      0.0417
     40  CE2       26.4270   68.2760   85.1120 C.ar  103  TYR103      0.0417
     41  CZ        25.0570   68.4180   85.0890 C.ar  103  TYR103      0.1957
     42  OH        24.4700   69.4330   85.8080 O.3   103  TYR103     -0.2866
     43  N         25.9860   71.9820   88.5850 N.3   111  CYS111     -0.1221
     44  CA        25.0110   72.1460   89.6640 C.3   111  CYS111      0.1808
     45  C         25.5250   71.5640   90.9910 C.2   111  CYS111      0.2601
     46  O         25.2300   72.1070   92.0560 O.2   111  CYS111     -0.2717
     47  CB        23.6620   71.5340   89.2750 C.3   111  CYS111      0.0970
     48  SG        23.0110   72.1540   87.6950 S.3   111  CYS111     -0.0800
     49  N         26.3180   70.4910   90.9210 N.am  112  ALA112     -0.1979
     50  CA        26.8740   69.8480   92.1240 C.3   112  ALA112      0.1597
     51  C         28.1700   70.4880   92.6480 C.2   112  ALA112      0.2287
     52  O         28.6730   70.0860   93.6970 O.2   112  ALA112     -0.2864
     53  CB        27.0920   68.3660   91.8730 C.3   112  ALA112      0.0319
     54  N         24.9560   65.7790   78.0040 N.3   137  LYS137     -0.1245
     55  CA        23.9520   66.5210   78.7470 C.3   137  LYS137      0.1561
     56  C         24.6060   67.7970   79.2710 C.2   137  LYS137      0.2260
     57  O         25.5820   67.7410   80.0160 O.2   137  LYS137     -0.2867
     58  CB        23.3890   65.6830   79.8940 C.3   137  LYS137      0.0271
     59  CG        22.2600   66.3740   80.6420 C.3   137  LYS137      0.0035
     60  CD        21.5550   65.4450   81.6200 C.3   137  LYS137      0.0206
     61  CE        20.7790   66.2380   82.6650 C.3   137  LYS137      0.1093
     62  NZ        20.1080   65.3550   83.6580 N.3   137  LYS137     -0.1314
     63  N         23.2440   75.5600   85.4260 N.3   141  CYS141     -0.1235
     64  CA        23.4780   76.1710   86.7410 C.3   141  CYS141      0.1677
     65  C         24.6590   77.1450   86.7160 C.2   141  CYS141      0.2270
     66  O         25.5100   77.0810   85.8300 O.2   141  CYS141     -0.2867
     67  CB        23.7210   75.0980   87.8060 C.3   141  CYS141      0.0956
     68  SG        22.3070   74.0200   88.1230 S.3   141  CYS141     -0.0801
     69  N         19.7250   72.0460   78.3730 N.3   172  GLU172     -0.1245
     70  CA        18.7750   72.5020   79.3820 C.3   172  GLU172      0.1567
     71  C         18.5070   73.9960   79.2280 C.2   172  GLU172      0.2260
     72  O         18.0180   74.6520   80.1510 O.2   172  GLU172     -0.2867
     73  CB        19.2830   72.1630   80.7760 C.3   172  GLU172      0.0388
     74  CG        19.2970   70.6730   81.0350 C.3   172  GLU172      0.1160
     75  CD        19.3030   70.3390   82.5020 C.2   172  GLU172      0.3649
     76  OE1       20.3620   69.9080   82.9980 O.co2 172  GLU172     -0.2457
     77  OE2       18.2540   70.5210   83.1550 O.co2 172  GLU172     -0.2457
     78  N         14.7710   75.4700   80.0090 N.3   175  LEU175     -0.1231
     79  CA        14.5050   75.3900   81.4450 C.3   175  LEU175      0.1693
     80  C         15.1250   76.5560   82.2130 C.2   175  LEU175      0.2592
     81  O         14.4610   77.1930   83.0390 O.2   175  LEU175     -0.2718
     82  CB        15.0510   74.0790   82.0130 C.3   175  LEU175      0.0284
     83  CG        15.0920   73.9660   83.5390 C.3   175  LEU175      0.0019
     84  CD1       13.7360   74.2900   84.1520 C.3   175  LEU175      0.0001
     85  CD2       15.5670   72.5740   83.9500 C.3   175  LEU175      0.0001
     86  N         16.4080   76.8030   81.9400 N.am  176  TYR176     -0.1976
     87  CA        17.1950   77.8090   82.6570 C.3   176  TYR176      0.1639
     88  C         17.0220   79.2080   82.0710 C.2   176  TYR176      0.2290
     89  O         17.5830   80.1720   82.5950 O.2   176  TYR176     -0.2864
     90  CB        18.6790   77.4120   82.6900 C.3   176  TYR176      0.0560
     91  CG        18.9770   76.2850   83.6640 C.ar  176  TYR176     -0.0198
     92  CD1       19.1470   76.5420   85.0190 C.ar  176  TYR176     -0.0009
     93  CD2       19.0750   74.9610   83.2310 C.ar  176  TYR176     -0.0009
     94  CE1       19.4120   75.5210   85.9190 C.ar  176  TYR176      0.0417
     95  CE2       19.3430   73.9270   84.1260 C.ar  176  TYR176      0.0417
     96  CZ        19.5120   74.2170   85.4690 C.ar  176  TYR176      0.1957
     97  OH        19.7740   73.2130   86.3720 O.3   176  TYR176     -0.2866
     98  N         15.4940   70.0210   77.8420 N.3   196  ARG196     -0.1245
     99  CA        14.6880   70.0070   79.0580 C.3   196  ARG196      0.1563
    100  C         13.8980   71.3060   79.1840 C.2   196  ARG196      0.2260
    101  O         14.4770   72.3880   79.1380 O.2   196  ARG196     -0.2867
    102  CB        15.5820   69.8390   80.2840 C.3   196  ARG196      0.0307
    103  CG        16.0830   68.4150   80.5060 C.3   196  ARG196      0.0489
    104  CD        15.0470   67.5580   81.2200 C.3   196  ARG196      0.2205
    105  NE        14.5690   68.2300   82.4260 N.pl3 196  ARG196     -0.0865
    106  CZ        15.2450   68.3110   83.5700 C.cat 196  ARG196      0.5346
    107  NH1       16.4410   67.7410   83.7100 N.pl3 196  ARG196      0.1354
    108  NH2       14.7140   68.9630   84.5920 N.pl3 196  ARG196      0.1354
    109  N         13.3650   69.2840   87.4380 N.3   200  ASP200     -0.1239
    110  CA        13.8210   67.9130   87.6130 C.3   200  ASP200      0.1674
    111  C         12.6880   67.0320   88.1040 C.2   200  ASP200      0.2266
    112  O         11.9750   67.3930   89.0370 O.2   200  ASP200     -0.2867
    113  CB        14.9660   67.8440   88.6260 C.3   200  ASP200      0.1410
    114  CG        16.2070   68.5740   88.1650 C.2   200  ASP200      0.3668
    115  OD1       16.2210   69.0600   87.0110 O.co2 200  ASP200     -0.2456
    116  OD2       17.1710   68.6620   88.9620 O.co2 200  ASP200     -0.2456
    117  N         13.6120   62.1230   82.8740 N.3   236  MET236     -0.1245
    118  CA        13.8220   60.6730   82.9360 C.3   236  MET236      0.1570
    119  C         12.5660   59.8530   83.2450 C.2   236  MET236      0.2261
    120  O         11.6290   60.3310   83.8800 O.2   236  MET236     -0.2867
    121  CB        14.8870   60.3610   84.0010 C.3   236  MET236      0.0387
    122  CG        16.2770   60.9370   83.7140 C.3   236  MET236      0.0595
    123  SD        17.2880   61.1060   85.1970 S.3   236  MET236     -0.1393
    124  CE        16.7020   62.6660   85.8470 C.3   236  MET236      0.0692
@<TRIPOS>BOND
     1    98    99    1
     2    54    55    1
     3    69    70    1
     4    55    56    1
     5    55    58    1
     6    99   100    1
     7    99   102    1
     8   101   100    2
     9    71    70    1
    10    71    72    2
    11    56    57    2
    12    70    73    1
    13    58    59    1
    14    78    79    1
    15   102   103    1
    16   103   104    1
    17    59    60    1
    18    73    74    1
    19    74    75    1
    20    31    32    1
    21   104   105    1
    22    79    82    1
    23    79    80    1
    24    32    33    1
    25    32    35    1
    26    60    61    1
    27    33    34    2
    28    86    80   am
    29    86    87    1
    30    82    83    1
    31    88    89    2
    32    88    87    1
    33    80    81    2
    34   105   106    2
    35    75    76   ar
    36    75    77   ar
    37    87    90    1
    38    61    62    1
    39    90    91    1
    40    35    36    1
    41   117   118    1
    42   118   119    1
    43   118   121    1
    44    93    91   ar
    45    93    95   ar
    46   119   120    2
    47    83    85    1
    48    83    84    1
    49   106   107    1
    50   106   108    1
    51    37    36   ar
    52    37    39   ar
    53    36    38   ar
    54    91    92   ar
    55   122   121    1
    56   122   123    1
    57    95    96   ar
    58    39    41   ar
    59    38    40   ar
    60    15    16    1
    61    22    20   ar
    62    16    19    1
    63    16    17    1
    64    92    94   ar
    65    41    40   ar
    66    41    42    1
    67   123   124    1
    68    20    19    1
    69    20    21   ar
    70    63    64    1
    71    96    94   ar
    72    96    97    1
    73    18    17    2
    74    17    23   am
    75    66    65    2
    76    23    24    1
    77    65    64    1
    78    64    67    1
    79   115   114   ar
    80     1     2    1
    81    24    27    1
    82    24    25    1
    83   109   110    1
    84     5     2    1
    85     5     6    1
    86   110   111    1
    87   110   113    1
    88    48    68    1
    89    48    47    1
    90    67    68    1
    91    27    28    1
    92   111   112    2
    93   114   113    1
    94   114   116   ar
    95     2     3    1
    96    25    26    2
    97    29    28   ar
    98    28    30   ar
    99    43    44    1
   100     6     7   ar
   101     6     8   ar
   102     7     9   ar
   103     3     4    2
   104    47    44    1
   105     8    11   ar
   106     8    10   ar
   107    11    13   ar
   108    44    45    1
   109     9    10   ar
   110    10    12   ar
   111    13    14   ar
   112    49    45   am
   113    49    50    1
   114    45    46    2
   115    12    14   ar
   116    53    50    1
   117    50    51    1
   118    51    52    2
