@<TRIPOS>MOLECULE
tmp/3tvcA00.pdb
 184 183 0 0 0
SMALL
GASTEIGER

@<TRIPOS>ATOM
      1  N        -15.9630  -26.8790   -7.7390 N.3    80  GLY80      -0.1210
      2  CA       -15.9950  -28.0660   -6.9000 C.3    80  GLY80       0.1956
      3  C        -14.7530  -28.2030   -6.0380 C.2    80  GLY80       0.2612
      4  O        -14.2920  -27.2210   -5.4520 O.2    80  GLY80      -0.2717
      5  N        -14.2190  -29.4230   -5.9550 N.am   81  LEU81      -0.1965
      6  CA       -12.9830  -29.6940   -5.2270 C.3    81  LEU81       0.1728
      7  C        -11.8650  -28.8060   -5.7570 C.2    81  LEU81       0.2616
      8  O        -11.6840  -28.7220   -6.9520 O.2    81  LEU81      -0.2715
      9  CB       -12.5590  -31.1520   -5.4280 C.3    81  LEU81       0.0311
     10  CG       -13.5830  -32.2850   -5.4260 C.3    81  LEU81       0.0022
     11  CD1      -12.8970  -33.6190   -5.7340 C.3    81  LEU81       0.0001
     12  CD2      -14.3340  -32.3610   -4.1000 C.3    81  LEU81       0.0001
     13  N        -11.0990  -28.1640   -4.8870 N.am   82  LEU82      -0.1963
     14  CA        -9.9720  -27.3510   -5.3550 C.3    82  LEU82       0.1728
     15  C         -8.6240  -28.0350   -5.1360 C.2    82  LEU82       0.2616
     16  O         -7.6830  -27.8480   -5.9110 O.2    82  LEU82      -0.2715
     17  CB        -9.9740  -25.9750   -4.6890 C.3    82  LEU82       0.0311
     18  CG       -11.2850  -25.1830   -4.7820 C.3    82  LEU82       0.0022
     19  CD1      -11.0960  -23.8430   -4.1390 C.3    82  LEU82       0.0001
     20  CD2      -11.7770  -25.0490   -6.2240 C.3    82  LEU82       0.0001
     21  N         -8.5390  -28.8340   -4.0800 N.am   83  ALA83      -0.1963
     22  CA        -7.2860  -29.4410   -3.6850 C.3    83  ALA83       0.1728
     23  C         -7.5820  -30.4860   -2.6400 C.2    83  ALA83       0.2616
     24  O         -8.6740  -30.5100   -2.0790 O.2    83  ALA83      -0.2715
     25  CB        -6.3460  -28.3850   -3.1060 C.3    83  ALA83       0.0334
     26  N         -6.6060  -31.3420   -2.3640 N.am   84  HIS84      -0.1973
     27  CA        -6.6890  -32.1740   -1.1880 C.3    84  HIS84       0.1656
     28  C         -5.2950  -32.5380   -0.6650 C.2    84  HIS84       0.2291
     29  O         -4.3050  -32.4660   -1.3890 O.2    84  HIS84      -0.2864
     30  CB        -7.5840  -33.4060   -1.4220 C.3    84  HIS84       0.0771
     31  CG        -7.0910  -34.3200   -2.4950 C.ar   84  HIS84       0.0820
     32  ND1       -7.8390  -34.6320   -3.6050 N.ar   84  HIS84      -0.2267
     33  CD2       -5.9190  -34.9870   -2.6280 C.ar   84  HIS84       0.1154
     34  CE1       -7.1490  -35.4480   -4.3840 C.ar   84  HIS84       0.1986
     35  NE2       -5.9820  -35.6800   -3.8110 N.ar   84  HIS84      -0.2212
     36  N         -4.2020  -19.0010   -0.5720 N.3   115  LEU115     -0.1231
     37  CA        -5.2690  -19.2840    0.3960 C.3   115  LEU115      0.1693
     38  C         -5.6730  -20.7580    0.3540 C.2   115  LEU115      0.2591
     39  O         -5.9940  -21.3400    1.3760 O.2   115  LEU115     -0.2718
     40  CB        -6.5010  -18.3920    0.1580 C.3   115  LEU115      0.0284
     41  CG        -6.3290  -16.8730    0.3020 C.3   115  LEU115      0.0019
     42  CD1       -7.5600  -16.1010   -0.1830 C.3   115  LEU115      0.0001
     43  CD2       -6.0050  -16.5070    1.7460 C.3   115  LEU115      0.0001
     44  N         -5.6710  -21.3700   -0.8200 N.am  116  VAL116     -0.1980
     45  CA        -6.0260  -22.7810   -0.8540 C.3   116  VAL116      0.1595
     46  C         -4.8950  -23.5970   -0.2550 C.2   116  VAL116      0.2287
     47  O         -5.1330  -24.5020    0.5410 O.2   116  VAL116     -0.2864
     48  CB        -6.4200  -23.2810   -2.2560 C.3   116  VAL116      0.0276
     49  CG1       -6.4980  -24.8260   -2.2860 C.3   116  VAL116      0.0022
     50  CG2       -7.7490  -22.6710   -2.6680 C.3   116  VAL116      0.0022
     51  N         -4.8010  -23.3990    3.5530 N.3   119  HIS119     -0.1226
     52  CA        -5.8100  -24.2570    4.1470 C.3   119  HIS119      0.1752
     53  C         -5.3900  -25.7330    4.0530 C.2   119  HIS119      0.2595
     54  O         -5.4890  -26.4800    5.0250 O.2   119  HIS119     -0.2718
     55  CB        -7.1580  -24.0130    3.4810 C.3   119  HIS119      0.0759
     56  CG        -8.1950  -25.0340    3.8170 C.ar  119  HIS119      0.0818
     57  ND1       -9.1550  -24.8250    4.7790 N.ar  119  HIS119     -0.2268
     58  CD2       -8.4330  -26.2670    3.3090 C.ar  119  HIS119      0.1154
     59  CE1       -9.9380  -25.8870    4.8550 C.ar  119  HIS119      0.1986
     60  NE2       -9.5140  -26.7760    3.9760 N.ar  119  HIS119     -0.2212
     61  N         -4.8950  -26.1370    2.8900 N.am  120  GLU120     -0.1979
     62  CA        -4.4560  -27.5200    2.6610 C.3   120  GLU120      0.1602
     63  C         -3.2820  -27.9160    3.5450 C.2   120  GLU120      0.2287
     64  O         -3.1850  -29.0650    3.9600 O.2   120  GLU120     -0.2864
     65  CB        -4.0500  -27.7250    1.1990 C.3   120  GLU120      0.0415
     66  CG        -5.1820  -27.6000    0.2330 C.3   120  GLU120      0.1163
     67  CD        -6.3190  -28.5310    0.5760 C.2   120  GLU120      0.3649
     68  OE1       -6.0530  -29.6790    0.9940 O.co2 120  GLU120     -0.2457
     69  OE2       -7.4800  -28.1040    0.4320 O.co2 120  GLU120     -0.2457
     70  N         -4.1330  -29.1030    6.8160 N.3   123  HIS123     -0.1241
     71  CA        -4.4210  -30.5290    6.8300 C.3   123  HIS123      0.1621
     72  C         -3.1670  -31.3690    6.8980 C.2   123  HIS123      0.2264
     73  O         -3.1480  -32.3740    7.5950 O.2   123  HIS123     -0.2867
     74  CB        -5.1990  -30.9350    5.5970 C.3   123  HIS123      0.0745
     75  CG        -6.6190  -30.4870    5.6170 C.ar  123  HIS123      0.0817
     76  ND1       -7.3910  -30.5230    6.7540 N.ar  123  HIS123     -0.2268
     77  CD2       -7.4210  -30.0150    4.6300 C.ar  123  HIS123      0.1154
     78  CE1       -8.6050  -30.0820    6.4760 C.ar  123  HIS123      0.1986
     79  NE2       -8.6440  -29.7660    5.1910 N.ar  123  HIS123     -0.2212
     80  N        -11.3820  -29.8670    9.8720 N.3   129  HIS129     -0.1241
     81  CA       -12.1830  -28.6730    9.6330 C.3   129  HIS129      0.1621
     82  C        -12.7310  -28.0190   10.8950 C.2   129  HIS129      0.2264
     83  O        -13.1760  -28.6900   11.8220 O.2   129  HIS129     -0.2867
     84  CB       -13.3060  -28.9710    8.6520 C.3   129  HIS129      0.0745
     85  CG       -12.8270  -29.1040    7.2480 C.ar  129  HIS129      0.0817
     86  ND1      -13.4970  -29.8440    6.2950 N.ar  129  HIS129     -0.2268
     87  CD2      -11.7330  -28.6030    6.6310 C.ar  129  HIS129      0.1154
     88  CE1      -12.8370  -29.7880    5.1570 C.ar  129  HIS129      0.1986
     89  NE2      -11.7620  -29.0390    5.3300 N.ar  129  HIS129     -0.2212
     90  N        -15.0670  -18.0890   10.8700 N.3   134  GLY134     -0.1210
     91  CA       -13.9770  -17.1460   10.6690 C.3   134  GLY134      0.1956
     92  C        -12.6310  -17.8400   10.5150 C.2   134  GLY134      0.2612
     93  O        -11.5880  -17.2020   10.4000 O.2   134  GLY134     -0.2717
     94  N        -12.6590  -19.1650   10.5010 N.am  135  ALA135     -0.1965
     95  CA       -11.4390  -19.9560   10.4920 C.3   135  ALA135      0.1728
     96  C        -10.9020  -20.2290    9.0820 C.2   135  ALA135      0.2616
     97  O        -11.6760  -20.4430    8.1330 O.2   135  ALA135     -0.2715
     98  CB       -11.6730  -21.2550   11.2280 C.3   135  ALA135      0.0334
     99  N         -9.5750  -20.2200    8.9590 N.am  136  LEU136     -0.1977
    100  CA        -8.9020  -20.6930    7.7480 C.3   136  LEU136      0.1596
    101  C         -9.2730  -22.1450    7.4910 C.2   136  LEU136      0.2287
    102  O         -9.3790  -22.5580    6.3320 O.2   136  LEU136     -0.2864
    103  CB        -7.3770  -20.5770    7.8670 C.3   136  LEU136      0.0297
    104  CG        -6.5220  -21.1760    6.7420 C.3   136  LEU136      0.0022
    105  CD1       -6.8790  -20.5200    5.4070 C.3   136  LEU136      0.0001
    106  CD2       -5.0180  -21.0540    7.0160 C.3   136  LEU136      0.0001
    107  N        -12.0850  -23.4780    8.1360 N.3   138  PHE138     -0.1228
    108  CA       -13.4870  -23.5830    7.7120 C.3   138  PHE138      0.1721
    109  C        -13.5270  -24.2290    6.3200 C.2   138  PHE138      0.2437
    110  O        -12.6640  -23.9620    5.4930 O.2   138  PHE138     -0.2733
    111  CB       -14.1580  -22.2030    7.6940 C.3   138  PHE138      0.0547
    112  CG       -15.6710  -22.2490    7.6200 C.ar  138  PHE138     -0.0202
    113  CD1      -16.4120  -22.9620    8.5580 C.ar  138  PHE138     -0.0042
    114  CD2      -16.3510  -21.5510    6.6400 C.ar  138  PHE138     -0.0042
    115  CE1      -17.7960  -22.9980    8.4940 C.ar  138  PHE138     -0.0003
    116  CE2      -17.7430  -21.5720    6.5800 C.ar  138  PHE138     -0.0003
    117  CZ       -18.4630  -22.3000    7.5030 C.ar  138  PHE138     -0.0000
    118  N        -14.5140  -25.0980    6.0650 N.am  139  PRO139     -0.2718
    119  CA       -14.5530  -25.9070    4.8340 C.3   139  PRO139      0.1535
    120  C        -14.9530  -25.1850    3.5540 C.2   139  PRO139      0.2598
    121  O        -14.8550  -25.7880    2.4850 O.2   139  PRO139     -0.2715
    122  CB       -15.6080  -26.9780    5.1440 C.3   139  PRO139      0.0310
    123  CG       -15.7140  -26.9980    6.6040 C.3   139  PRO139      0.0237
    124  CD       -15.4610  -25.5970    7.0710 C.3   139  PRO139      0.0939
    125  N        -15.4160  -23.9430    3.6420 N.am  140  ILE140     -0.1964
    126  CA       -15.7750  -23.2020    2.4390 C.3   140  ILE140      0.1727
    127  C        -14.6670  -22.2270    2.0200 C.2   140  ILE140      0.2616
    128  O        -14.2510  -21.4020    2.8150 O.2   140  ILE140     -0.2715
    129  CB       -17.1000  -22.4390    2.6350 C.3   140  ILE140      0.0290
    130  CG1      -18.2620  -23.4180    2.8870 C.3   140  ILE140      0.0022
    131  CG2      -17.3670  -21.5020    1.4390 C.3   140  ILE140      0.0023
    132  CD1      -19.5310  -22.7380    3.3400 C.3   140  ILE140      0.0001
    133  N        -14.1920  -22.3350    0.7770 N.am  141  TYR141     -0.1960
    134  CA       -13.2360  -21.3820    0.2330 C.3   141  TYR141      0.1771
    135  C        -13.7230  -19.9460    0.3830 C.2   141  TYR141      0.2620
    136  O        -14.8530  -19.6230   -0.0030 O.2   141  TYR141     -0.2715
    137  CB       -12.9420  -21.6540   -1.2560 C.3   141  TYR141      0.0574
    138  CG       -12.1010  -20.5650   -1.9250 C.ar  141  TYR141     -0.0198
    139  CD1      -10.7110  -20.6460   -1.9540 C.ar  141  TYR141     -0.0009
    140  CD2      -12.6990  -19.4430   -2.4980 C.ar  141  TYR141     -0.0009
    141  CE1       -9.9350  -19.6580   -2.5570 C.ar  141  TYR141      0.0417
    142  CE2      -11.9400  -18.4510   -3.0960 C.ar  141  TYR141      0.0417
    143  CZ       -10.5530  -18.5620   -3.1270 C.ar  141  TYR141      0.1957
    144  OH        -9.7880  -17.5720   -3.7190 O.3   141  TYR141     -0.2866
    145  N        -12.8300  -19.0890    0.8820 N.am  142  THR142     -0.1951
    146  CA       -13.1460  -17.7120    1.2330 C.3   142  THR142      0.1897
    147  C        -12.0250  -16.7800    0.7940 C.2   142  THR142      0.2313
    148  O        -10.8550  -16.9910    1.1270 O.2   142  THR142     -0.2863
    149  CB       -13.3230  -17.5990    2.7550 C.3   142  THR142      0.1794
    150  OG1      -14.3330  -18.5260    3.1740 O.3   142  THR142     -0.2208
    151  CG2      -13.6940  -16.1780    3.1740 C.3   142  THR142      0.0378
    152  N         -9.9960  -13.1200    0.6650 N.3   144  THR144     -0.1218
    153  CA        -9.7620  -11.8650    1.3740 C.3   144  THR144      0.1862
    154  C         -8.8460  -10.9420    0.5870 C.2   144  THR144      0.2287
    155  O         -7.8440  -11.3780    0.0070 O.2   144  THR144     -0.2866
    156  CB        -9.1220  -12.0820    2.7520 C.3   144  THR144      0.1770
    157  OG1       -9.0000  -10.8160    3.4180 O.3   144  THR144     -0.2211
    158  CG2       -7.7430  -12.7220    2.6040 C.3   144  THR144      0.0375
    159  N         -2.0310  -11.3210    5.1850 N.3   149  PHE149     -0.1227
    160  CA        -2.9510  -12.3070    5.7230 C.3   149  PHE149      0.1736
    161  C         -2.7400  -12.5310    7.2140 C.2   149  PHE149      0.2595
    162  O         -1.6170  -12.7680    7.6660 O.2   149  PHE149     -0.2718
    163  CB        -2.7870  -13.6280    4.9760 C.3   149  PHE149      0.0547
    164  CG        -3.7010  -14.7070    5.4560 C.ar  149  PHE149     -0.0202
    165  CD1       -3.2150  -15.7580    6.2120 C.ar  149  PHE149     -0.0042
    166  CD2       -5.0500  -14.6680    5.1600 C.ar  149  PHE149     -0.0042
    167  CE1       -4.0540  -16.7640    6.6560 C.ar  149  PHE149     -0.0003
    168  CE2       -5.8970  -15.6730    5.6080 C.ar  149  PHE149     -0.0003
    169  CZ        -5.3970  -16.7190    6.3580 C.ar  149  PHE149     -0.0000
    170  N         -3.8330  -12.4590    7.9700 N.am  150  MET150     -0.1979
    171  CA        -3.8000  -12.6880    9.4110 C.3   150  MET150      0.1605
    172  C         -4.4460  -14.0250    9.7910 C.2   150  MET150      0.2287
    173  O         -5.6810  -14.1180    9.8530 O.2   150  MET150     -0.2864
    174  CB        -4.5460  -11.5600   10.1190 C.3   150  MET150      0.0413
    175  CG        -3.6570  -10.6090   10.8980 C.3   150  MET150      0.0598
    176  SD        -4.3400  -10.2410   12.5260 S.3   150  MET150     -0.1393
    177  CE        -4.0420  -11.7860   13.3820 C.3   150  MET150      0.0692
    178  N         -6.3370  -16.5740   11.5090 N.3   152  PRO152     -0.2116
    179  CA        -7.3750  -16.4130   12.5380 C.3   152  PRO152      0.1372
    180  C         -7.0350  -17.1110   13.8350 C.2   152  PRO152      0.2244
    181  O         -6.3300  -18.1170   13.8070 O.2   152  PRO152     -0.2868
    182  CB        -8.6000  -17.0670   11.8960 C.3   152  PRO152      0.0268
    183  CG        -8.4010  -16.8260   10.4420 C.3   152  PRO152      0.0207
    184  CD        -6.9150  -17.0170   10.2260 C.3   152  PRO152      0.0892
@<TRIPOS>BOND
     1     1     2    1
     2     8     7    2
     3     2     3    1
     4    20    18    1
     5     3     5   am
     6     3     4    2
     7     5     6    1
     8    16    15    2
     9     7     6    1
    10     7    13   am
    11    11    10    1
    12     9    10    1
    13     9     6    1
    14    10    12    1
    15    14    15    1
    16    14    13    1
    17    14    17    1
    18    15    21   am
    19    18    17    1
    20    18    19    1
    21    34    35   ar
    22    34    32   ar
    23    21    22    1
    24    35    33   ar
    25   144   143    1
    26    22    25    1
    27    22    23    1
    28    32    31   ar
    29   143   142   ar
    30   143   141   ar
    31   142   140   ar
    32    50    48    1
    33    23    26   am
    34    23    24    2
    35    33    31   ar
    36   141   139   ar
    37   140   138   ar
    38    31    30    1
    39    26    27    1
    40    49    48    1
    41    48    45    1
    42   139   138   ar
    43   138   137    1
    44    30    27    1
    45    29    28    2
    46   137   134    1
    47    27    28    1
    48    45    44    1
    49    45    46    1
    50    44    38   am
    51    36    37    1
    52    46    47    2
    53    42    41    1
    54   136   135    2
    55   155   154    2
    56    40    41    1
    57    40    37    1
    58    66    67    1
    59    66    65    1
    60   134   135    1
    61   134   133    1
    62    41    43    1
    63    38    37    1
    64    38    39    2
    65   135   145   am
    66    69    67   ar
    67    67    68   ar
    68   154   153    1
    69   152   153    1
    70   133   127   am
    71   147   148    2
    72   147   146    1
    73   145   146    1
    74    65    62    1
    75   146   149    1
    76   153   156    1
    77   131   129    1
    78   127   126    1
    79   127   128    2
    80   126   129    1
    81   126   125    1
    82   121   120    2
    83   158   156    1
    84   129   130    1
    85    62    61    1
    86    62    63    1
    87   156   157    1
    88   149   151    1
    89   149   150    1
    90   130   132    1
    91    61    53   am
    92    58    56   ar
    93    58    60   ar
    94    55    56    1
    95    55    52    1
    96    63    64    2
    97    51    52    1
    98   120   125   am
    99   120   119    1
   100    56    57   ar
   101    60    59   ar
   102    53    52    1
   103    53    54    2
   104    77    79   ar
   105    77    75   ar
   106    57    59   ar
   107   119   122    1
   108   119   118    1
   109   163   164    1
   110   163   160    1
   111   122   123    1
   112    88    89   ar
   113    88    86   ar
   114   166   164   ar
   115   166   168   ar
   116   159   160    1
   117    79    78   ar
   118    89    87   ar
   119   105   104    1
   120   164   165   ar
   121   110   109    2
   122    74    75    1
   123    74    71    1
   124   168   169   ar
   125    75    76   ar
   126   160   161    1
   127   118   109   am
   128   118   124    1
   129   165   167   ar
   130    86    85   ar
   131   109   108    1
   132   102   101    2
   133   169   167   ar
   134    78    76   ar
   135   116   114   ar
   136   116   117   ar
   137   123   124    1
   138    87    85   ar
   139   114   112   ar
   140   104   106    1
   141   104   103    1
   142    70    71    1
   143    71    72    1
   144    72    73    2
   145   161   162    2
   146   161   170   am
   147    85    84    1
   148   101   100    1
   149   117   115   ar
   150   112   111    1
   151   112   113   ar
   152   111   108    1
   153   108   107    1
   154   100   103    1
   155   100    99    1
   156   170   171    1
   157    97    96    2
   158   115   113   ar
   159    84    81    1
   160    99    96   am
   161    96    95    1
   162   171   172    1
   163   171   174    1
   164    81    80    1
   165    81    82    1
   166   172   173    2
   167   174   175    1
   168   184   183    1
   169   184   178    1
   170    93    92    2
   171   183   182    1
   172    95    94    1
   173    95    98    1
   174    94    92   am
   175    92    91    1
   176    91    90    1
   177    82    83    2
   178   175   176    1
   179   178   179    1
   180   182   179    1
   181   176   177    1
   182   179   180    1
   183   181   180    2
