@<TRIPOS>MOLECULE
tmp/3tviI00.pdb
 78 71 0 0 0
SMALL
GASTEIGER

@<TRIPOS>ATOM
      1  N         -9.5260  107.0500  -57.9390 N.3     5  LYS5       -0.1245
      2  CA        -9.3870  105.9910  -58.9390 C.3     5  LYS5        0.1561
      3  C        -10.2910  104.8270  -58.5810 C.2     5  LYS5        0.2260
      4  O        -10.2670  104.3460  -57.4500 O.2     5  LYS5       -0.2867
      5  CB        -7.9540  105.4610  -59.0170 C.3     5  LYS5        0.0271
      6  CG        -7.8140  104.2360  -59.9220 C.3     5  LYS5        0.0035
      7  CD        -7.2160  103.0340  -59.2000 C.3     5  LYS5        0.0206
      8  CE        -7.8640  101.7280  -59.6350 C.3     5  LYS5        0.1093
      9  NZ        -6.9250  100.5820  -59.5440 N.3     5  LYS5       -0.1314
     10  N        -11.2180   98.1400  -61.7480 N.3     8  GLY8       -0.1225
     11  CA       -12.0350   97.4640  -62.7560 C.3     8  GLY8        0.1811
     12  C        -13.3050   96.8070  -62.2480 C.2     8  GLY8        0.2280
     13  O        -14.3240   96.8170  -62.9420 O.2     8  GLY8       -0.2866
     14  N        -10.7560  102.6290  -64.3430 N.3    36  SER36      -0.1202
     15  CA       -10.1780  101.4390  -64.9320 C.3    36  SER36       0.2020
     16  C        -11.0590  100.9990  -66.0860 C.2    36  SER36       0.2618
     17  O        -12.1530  101.5260  -66.2840 O.2    36  SER36      -0.2717
     18  CB       -10.0860  100.3080  -63.9130 C.3    36  SER36       0.2103
     19  OG        -9.3570  100.7130  -62.7710 O.3    36  SER36      -0.2182
     20  N        -10.5810  100.0170  -66.8370 N.am   37  ALA37      -0.1979
     21  CA       -11.3770   99.4030  -67.8820 C.3    37  ALA37       0.1597
     22  C        -12.4070   98.5260  -67.1800 C.2    37  ALA37       0.2287
     23  O        -12.2500   98.2120  -66.0000 O.2    37  ALA37      -0.2864
     24  CB       -10.4950   98.5780  -68.8070 C.3    37  ALA37       0.0319
     25  N        -12.6340   89.2880  -70.8400 N.3    47  LYS47      -0.1245
     26  CA       -12.0320   90.5010  -70.3000 C.3    47  LYS47       0.1561
     27  C        -11.7600   91.4870  -71.4270 C.2    47  LYS47       0.2260
     28  O        -10.8730   91.2720  -72.2460 O.2    47  LYS47      -0.2867
     29  CB       -10.7390   90.1470  -69.5760 C.3    47  LYS47       0.0271
     30  CG       -10.0690   91.2980  -68.8480 C.3    47  LYS47       0.0035
     31  CD        -8.9890   90.7540  -67.9220 C.3    47  LYS47       0.0206
     32  CE        -8.2450   91.8470  -67.1660 C.3    47  LYS47       0.1093
     33  NZ        -7.3050   91.2300  -66.1800 N.3    47  LYS47      -0.1314
     34  N        -10.1940   94.2470  -71.9940 N.3    49  THR49      -0.1218
     35  CA        -8.8090   94.5930  -72.3020 C.3    49  THR49       0.1862
     36  C         -8.2250   93.5690  -73.2710 C.2    49  THR49       0.2287
     37  O         -7.6280   93.9410  -74.2650 O.2    49  THR49      -0.2866
     38  CB        -7.9230   94.6950  -71.0400 C.3    49  THR49       0.1770
     39  OG1       -8.3050   95.8370  -70.2660 O.3    49  THR49      -0.2211
     40  CG2       -6.4660   94.8490  -71.4140 C.3    49  THR49       0.0375
     41  N        -10.2560  101.4700  -71.2180 N.3   113  GLU113     -0.1245
     42  CA       -10.2330  102.4410  -70.1280 C.3   113  GLU113      0.1567
     43  C        -10.6840  103.7950  -70.6820 C.2   113  GLU113      0.2260
     44  O        -11.3660  104.5680  -70.0020 O.2   113  GLU113     -0.2867
     45  CB        -8.8160  102.5670  -69.5440 C.3   113  GLU113      0.0388
     46  CG        -7.9940  101.2710  -69.5180 C.3   113  GLU113      0.1160
     47  CD        -7.8280  100.6560  -68.1400 C.2   113  GLU113      0.3649
     48  OE1       -7.0310   99.7040  -68.0000 O.co2 113  GLU113     -0.2457
     49  OE2       -8.4870  101.1160  -67.1910 O.co2 113  GLU113     -0.2457
     50  N         -4.8490  103.8190  -68.0300 N.3   165  PHE165     -0.1241
     51  CA        -3.8750  102.8290  -68.4740 C.3   165  PHE165      0.1605
     52  C         -2.7290  103.3710  -69.3310 C.2   165  PHE165      0.2264
     53  O         -1.7010  102.7110  -69.4670 O.2   165  PHE165     -0.2867
     54  CB        -4.6110  101.7220  -69.2240 C.3   165  PHE165      0.0534
     55  CG        -3.7920  100.4970  -69.4820 C.ar  165  PHE165     -0.0203
     56  CD1       -2.9250   99.9970  -68.5170 C.ar  165  PHE165     -0.0042
     57  CD2       -3.9200   99.8170  -70.6820 C.ar  165  PHE165     -0.0042
     58  CE1       -2.1800   98.8570  -68.7590 C.ar  165  PHE165     -0.0003
     59  CE2       -3.1820   98.6750  -70.9290 C.ar  165  PHE165     -0.0003
     60  CZ        -2.3130   98.1910  -69.9640 C.ar  165  PHE165     -0.0000
     61  N         -0.7650  100.1740  -64.1130 N.3   181  GLY181     -0.1210
     62  CA        -2.1980  100.1600  -64.3840 C.3   181  GLY181      0.1956
     63  C         -2.7760  101.5530  -64.2910 C.2   181  GLY181      0.2613
     64  O         -2.0940  102.5310  -64.5880 O.2   181  GLY181     -0.2717
     65  N         -4.0330  101.6440  -63.8750 N.am  182  SER182     -0.1938
     66  CA        -4.6660  102.9340  -63.6490 C.3   182  SER182      0.2055
     67  C         -4.2950  103.4790  -62.2740 C.2   182  SER182      0.2643
     68  O         -4.4560  104.6690  -62.0140 O.2   182  SER182     -0.2714
     69  CB        -6.1780  102.8150  -63.7620 C.3   182  SER182      0.2130
     70  OG        -6.7020  102.1720  -62.6220 O.3   182  SER182     -0.2179
     71  N         -3.8080  102.6100  -61.3920 N.am  183  ASP183     -0.1971
     72  CA        -3.3350  103.0400  -60.0740 C.3   183  ASP183      0.1709
     73  C         -2.2650  104.1240  -60.2080 C.2   183  ASP183      0.2293
     74  O         -2.2500  105.0880  -59.4440 O.2   183  ASP183     -0.2864
     75  CB        -2.7600  101.8620  -59.2820 C.3   183  ASP183      0.1436
     76  CG        -3.7500  100.7340  -59.1090 C.2   183  ASP183      0.3671
     77  OD1       -4.7470  100.9310  -58.3860 O.co2 183  ASP183     -0.2456
     78  OD2       -3.5270   99.6500  -59.6910 O.co2 183  ASP183     -0.2456
@<TRIPOS>BOND
     1    37    36    2
     2    36    35    1
     3    35    34    1
     4    35    38    1
     5    28    27    2
     6    27    26    1
     7    40    38    1
     8    41    42    1
     9    38    39    1
    10    59    57   ar
    11    59    60   ar
    12    25    26    1
    13    43    42    1
    14    43    44    2
    15    57    55   ar
    16    26    29    1
    17    42    45    1
    18    60    58   ar
    19    29    30    1
    20    45    46    1
    21    46    47    1
    22    55    54    1
    23    55    56   ar
    24    53    52    2
    25    52    51    1
    26    54    51    1
    27    30    31    1
    28    24    21    1
    29    58    56   ar
    30    51    50    1
    31    47    48   ar
    32    47    49   ar
    33    31    32    1
    34    21    22    1
    35    21    20    1
    36    22    23    2
    37    32    33    1
    38    20    16   am
    39    17    16    2
    40    16    15    1
    41    15    14    1
    42    15    18    1
    43    64    63    2
    44    62    63    1
    45    62    61    1
    46    63    65   am
    47    18    19    1
    48    65    66    1
    49    69    66    1
    50    69    70    1
    51    66    67    1
    52    13    12    2
    53    11    12    1
    54    11    10    1
    55    67    68    2
    56    67    71   am
    57    71    72    1
    58    73    72    1
    59    73    74    2
    60    72    75    1
    61     6     7    1
    62     6     5    1
    63    78    76   ar
    64     8     9    1
    65     8     7    1
    66    75    76    1
    67    76    77   ar
    68     5     2    1
    69     2     3    1
    70     2     1    1
    71     3     4    2
