@<TRIPOS>MOLECULE
tmp/3tviG01.pdb
 74 72 0 0 0
SMALL
GASTEIGER

@<TRIPOS>ATOM
      1  N         52.1180  -15.4480   13.7590 N.3   302  LEU302     -0.1231
      2  CA        51.0530  -14.4810   14.0030 C.3   302  LEU302      0.1693
      3  C         51.0970  -13.3630   12.9670 C.2   302  LEU302      0.2592
      4  O         50.1710  -13.2260   12.1610 O.2   302  LEU302     -0.2718
      5  CB        51.1410  -13.8990   15.4180 C.3   302  LEU302      0.0284
      6  CG        50.1970  -12.7220   15.6560 C.3   302  LEU302      0.0019
      7  CD1       48.8260  -13.2710   15.9340 C.3   302  LEU302      0.0001
      8  CD2       50.6700  -11.8840   16.8370 C.3   302  LEU302      0.0001
      9  N         52.1970  -12.6050   12.9620 N.am  303  ASN303     -0.1974
     10  CA        52.2980  -11.3790   12.1430 C.3   303  ASN303      0.1688
     11  C         52.2560  -11.5920   10.6160 C.2   303  ASN303      0.2292
     12  O         51.7910  -10.7170    9.8810 O.2   303  ASN303     -0.2864
     13  CB        53.4900  -10.4700   12.5680 C.3   303  ASN303      0.1181
     14  CG        54.6930  -11.2920   13.0190 C.2   303  ASN303      0.2629
     15  OD1       54.7860  -12.4910   12.7570 O.2   303  ASN303     -0.2716
     16  ND2       55.6260  -10.6380   13.7040 N.am  303  ASN303     -0.0877
     17  N         50.3380  -13.6990    8.8960 N.3   305  GLU305     -0.1231
     18  CA        48.9410  -13.8230    8.4460 C.3   305  GLU305      0.1699
     19  C         48.4040  -12.4510    8.0690 C.2   305  GLU305      0.2592
     20  O         48.8580  -11.4370    8.6020 O.2   305  GLU305     -0.2718
     21  CB        48.0580  -14.4400    9.5370 C.3   305  GLU305      0.0402
     22  CG        48.3600  -15.9070    9.8570 C.3   305  GLU305      0.1161
     23  CD        47.2640  -16.8830    9.4390 C.2   305  GLU305      0.3649
     24  OE1       46.0690  -16.5110    9.4520 O.co2 305  GLU305     -0.2457
     25  OE2       47.6000  -18.0430    9.1160 O.co2 305  GLU305     -0.2457
     26  N         47.4220  -12.4230    7.1720 N.am  306  VAL306     -0.1966
     27  CA        47.0400  -11.1800    6.4910 C.3   306  VAL306      0.1730
     28  C         46.5110  -10.0980    7.4400 C.2   306  VAL306      0.2656
     29  O         46.8200   -8.9210    7.2600 O.2   306  VAL306     -0.2711
     30  CB        46.0100  -11.3980    5.3580 C.3   306  VAL306      0.0290
     31  CG1       46.1450  -10.2730    4.3450 C.3   306  VAL306      0.0023
     32  CG2       46.1940  -12.7500    4.6700 C.3   306  VAL306      0.0023
     33  N         45.7220  -10.4860    8.4400 N.am  307  GLY307     -0.1716
     34  CA        45.2430   -9.5330    9.4510 C.2   307  GLY307      0.1480
     35  C         44.6730  -10.1540   10.7190 C.2   307  GLY307      0.2820
     36  O         43.6980   -9.6490   11.2720 O.2   307  GLY307     -0.2669
     37  N         45.2980  -11.2370   11.1850 N.am  308  PHE308     -0.1925
     38  CA        44.9230  -11.9210   12.4260 C.3   308  PHE308      0.1774
     39  C         44.3600  -10.9890   13.4930 C.2   308  PHE308      0.2620
     40  O         43.2220  -11.1460   13.9240 O.2   308  PHE308     -0.2715
     41  CB        46.1220  -12.6880   13.0010 C.3   308  PHE308      0.0574
     42  CG        47.3950  -11.8960   13.0340 C.ar  308  PHE308     -0.0200
     43  CD1       48.1640  -11.7610   11.8750 C.ar  308  PHE308     -0.0042
     44  CD2       47.7820  -11.2790   14.2120 C.ar  308  PHE308     -0.0042
     45  CE1       49.3440  -10.9880   11.9040 C.ar  308  PHE308     -0.0003
     46  CE2       48.9430  -10.4960   14.2460 C.ar  308  PHE308     -0.0003
     47  CZ        49.7140  -10.3640   13.1010 C.ar  308  PHE308     -0.0000
     48  N         45.1470  -10.0090   13.9070 N.am  309  CYS309     -0.1954
     49  CA        44.7220   -9.1160   14.9720 C.3   309  CYS309      0.1843
     50  C         43.4830   -8.3100   14.6080 C.2   309  CYS309      0.2625
     51  O         42.5510   -8.2440   15.3980 O.2   309  CYS309     -0.2714
     52  CB        45.8610   -8.1970   15.3890 C.3   309  CYS309      0.0997
     53  SG        47.2060   -9.0970   16.1880 S.3   309  CYS309     -0.0797
     54  N         43.4550   -7.7080   13.4230 N.am  310  ARG310     -0.1977
     55  CA        42.2520   -6.9890   12.9820 C.3   310  ARG310      0.1597
     56  C         41.0340   -7.9140   13.0190 C.2   310  ARG310      0.2287
     57  O         39.9900   -7.5540   13.5710 O.2   310  ARG310     -0.2864
     58  CB        42.4190   -6.4260   11.5700 C.3   310  ARG310      0.0334
     59  CG        41.1530   -5.7760   11.0110 C.3   310  ARG310      0.0492
     60  CD        41.1680   -5.6850    9.4920 C.3   310  ARG310      0.2205
     61  NE        41.3450   -6.9900    8.8470 N.pl3 310  ARG310     -0.0865
     62  CZ        41.5570   -7.1650    7.5430 C.cat 310  ARG310      0.5346
     63  NH1       41.6220   -6.1250    6.7140 N.pl3 310  ARG310      0.1354
     64  NH2       41.7210   -8.3850    7.0570 N.pl3 310  ARG310      0.1354
     65  N         50.9300   -8.0690   22.8420 N.3   326  SER326     -0.1202
     66  CA        51.3420   -8.8280   21.6670 C.3   326  SER326      0.2020
     67  C         52.8000   -9.2720   21.7480 C.2   326  SER326      0.2619
     68  O         53.6550   -8.5700   22.2890 O.2   326  SER326     -0.2717
     69  CB        51.0850   -8.0240   20.3860 C.3   326  SER326      0.2103
     70  OG        51.4050   -6.6520   20.5580 O.3   326  SER326     -0.2182
     71  N         53.0550  -10.4640   21.2210 N.am  327  GLY327     -0.1956
     72  CA        54.3960  -11.0210   21.1350 C.3   327  GLY327      0.1869
     73  C         54.6680  -11.4770   19.7180 C.2   327  GLY327      0.2309
     74  O         54.0070  -11.0290   18.7740 O.2   327  GLY327     -0.2863
@<TRIPOS>BOND
     1    31    30    1
     2    32    30    1
     3    30    27    1
     4    27    26    1
     5    27    28    1
     6    63    62    1
     7    64    62    1
     8    26    19   am
     9    29    28    2
    10    28    33    1
    11    62    61    2
    12    19    18    1
    13    19    20    2
    14    33    34    2
    15    18    17    1
    16    18    21    1
    17    61    60    1
    18    25    23   ar
    19    23    24   ar
    20    23    22    1
    21    34    35    1
    22    60    59    1
    23    21    22    1
    24    12    11    2
    25    11    10    1
    26    35    37   am
    27    35    36    2
    28    59    58    1
    29    37    38    1
    30    58    55    1
    31    43    45   ar
    32    43    42   ar
    33    45    47   ar
    34    10    13    1
    35    10     9    1
    36     4     3    2
    37    38    41    1
    38    38    39    1
    39    13    14    1
    40    15    14    2
    41     9     3   am
    42     3     2    1
    43    55    56    1
    44    55    54    1
    45    41    42    1
    46    56    57    2
    47    14    16   am
    48    42    44   ar
    49    47    46   ar
    50    54    50   am
    51    39    48   am
    52    39    40    2
    53     1     2    1
    54    48    49    1
    55     2     5    1
    56    44    46   ar
    57    50    49    1
    58    50    51    2
    59    49    52    1
    60    52    53    1
    61     5     6    1
    62     6     7    1
    63     6     8    1
    64    74    73    2
    65    73    72    1
    66    69    70    1
    67    69    66    1
    68    72    71    1
    69    71    67   am
    70    66    67    1
    71    66    65    1
    72    67    68    2
