@<TRIPOS>MOLECULE
tmp/3tviE00.pdb
 69 64 0 0 0
SMALL
GASTEIGER

@<TRIPOS>ATOM
      1  N         59.7150    9.7440  -27.0060 N.3    38  SER38      -0.1202
      2  CA        59.9640    8.5780  -26.1670 C.3    38  SER38       0.2020
      3  C         61.2900    7.9620  -26.5730 C.2    38  SER38       0.2618
      4  O         61.9600    8.4400  -27.4950 O.2    38  SER38      -0.2717
      5  CB        58.8620    7.5320  -26.3360 C.3    38  SER38       0.2103
      6  OG        57.5840    8.0860  -26.0750 O.3    38  SER38      -0.2182
      7  N         61.6630    6.8970  -25.8760 N.am   39  ALA39      -0.1979
      8  CA        62.8450    6.1320  -26.2290 C.3    39  ALA39       0.1597
      9  C         62.5200    5.2960  -27.4610 C.2    39  ALA39       0.2287
     10  O         61.3450    5.0250  -27.7370 O.2    39  ALA39      -0.2864
     11  CB        63.2790    5.2450  -25.0710 C.3    39  ALA39       0.0319
     12  N         64.6070   -4.0950  -26.0080 N.3    49  LYS49      -0.1245
     13  CA        64.0430   -2.7800  -25.6940 C.3    49  LYS49       0.1561
     14  C         65.0600   -1.9020  -24.9650 C.2    49  LYS49       0.2260
     15  O         65.4300   -2.1730  -23.8170 O.2    49  LYS49      -0.2867
     16  CB        62.7710   -2.9420  -24.8520 C.3    49  LYS49       0.0271
     17  CG        61.8870   -1.7060  -24.8250 C.3    49  LYS49       0.0035
     18  CD        60.5340   -1.9920  -24.1890 C.3    49  LYS49       0.0206
     19  CE        59.6950   -0.7200  -24.1170 C.3    49  LYS49       0.1093
     20  NZ        58.2790   -0.9670  -23.7110 N.3    49  LYS49      -0.1314
     21  N         65.1560    0.7890  -23.2090 N.3    51  THR51      -0.1218
     22  CA        64.8770    1.0470  -21.8030 C.3    51  THR51       0.1862
     23  C         65.2090   -0.1410  -20.8950 C.2    51  THR51       0.2287
     24  O         65.8190    0.0280  -19.8390 O.2    51  THR51      -0.2866
     25  CB        63.4100    1.4410  -21.5870 C.3    51  THR51       0.1770
     26  OG1       63.2140    2.7920  -22.0270 O.3    51  THR51      -0.2211
     27  CG2       63.0510    1.3340  -20.1140 C.3    51  THR51       0.0375
     28  N         65.2210    7.9320  -23.2120 N.3   115  GLU115     -0.1245
     29  CA        64.4790    9.1120  -23.6430 C.3   115  GLU115      0.1567
     30  C         65.4030   10.3160  -23.7720 C.2   115  GLU115      0.2260
     31  O         65.4100   11.0040  -24.7890 O.2   115  GLU115     -0.2867
     32  CB        63.3600    9.4230  -22.6380 C.3   115  GLU115      0.0388
     33  CG        62.1510    8.4940  -22.7290 C.3   115  GLU115      0.1160
     34  CD        62.3940    7.0730  -22.2250 C.2   115  GLU115      0.3649
     35  OE1       63.4620    6.7940  -21.6270 O.co2 115  GLU115     -0.2457
     36  OE2       61.4960    6.2220  -22.4360 O.co2 115  GLU115     -0.2457
     37  N         60.0250   10.5460  -20.3010 N.3   169  PHE169     -0.1241
     38  CA        59.7560    9.6870  -19.1340 C.3   169  PHE169      0.1605
     39  C         60.0290   10.1850  -17.7010 C.2   169  PHE169      0.2264
     40  O         59.5300    9.5900  -16.7570 O.2   169  PHE169     -0.2867
     41  CB        60.5300    8.3660  -19.3860 C.3   169  PHE169      0.0534
     42  CG        60.1090    7.1950  -18.5410 C.ar  169  PHE169     -0.0203
     43  CD1       58.8230    7.0790  -18.0170 C.ar  169  PHE169     -0.0042
     44  CD2       61.0080    6.1650  -18.3220 C.ar  169  PHE169     -0.0042
     45  CE1       58.4630    5.9740  -17.2550 C.ar  169  PHE169     -0.0003
     46  CE2       60.6550    5.0620  -17.5660 C.ar  169  PHE169     -0.0003
     47  CZ        59.3780    4.9590  -17.0370 C.ar  169  PHE169     -0.0000
     48  N         52.1030    6.4670  -16.9580 N.3   184  GLY184     -0.1210
     49  CA        52.7470    6.6420  -18.2540 C.3   184  GLY184      0.1956
     50  C         52.6350    8.0290  -18.8370 C.2   184  GLY184      0.2612
     51  O         51.5610    8.6100  -18.8640 O.2   184  GLY184     -0.2717
     52  N         53.7340    8.5640  -19.3300 N.am  185  GLY185     -0.1942
     53  CA        55.0260    7.9080  -19.3250 C.3   185  GLY185      0.2014
     54  C         55.8630    8.8960  -20.0890 C.2   185  GLY185      0.2640
     55  O         56.6060    9.6950  -19.5060 O.2   185  GLY185     -0.2714
     56  N         55.7000    8.8600  -21.4030 N.am  186  SER186     -0.1935
     57  CA        56.1080    9.9600  -22.2500 C.3   186  SER186      0.2055
     58  C         54.8530   10.7780  -22.6160 C.2   186  SER186      0.2643
     59  O         54.9430   11.9190  -23.0570 O.2   186  SER186     -0.2714
     60  CB        56.8220    9.4150  -23.4810 C.3   186  SER186      0.2130
     61  OG        58.1360    9.9240  -23.5720 O.3   186  SER186     -0.2179
     62  N         53.6810   10.1830  -22.3940 N.am  187  ASP187     -0.1971
     63  CA        52.3980   10.7980  -22.7170 C.3   187  ASP187      0.1709
     64  C         52.0510   11.8910  -21.7220 C.2   187  ASP187      0.2293
     65  O         51.4870   12.9140  -22.0960 O.2   187  ASP187     -0.2864
     66  CB        51.2790    9.7510  -22.6710 C.3   187  ASP187      0.1436
     67  CG        51.5070    8.5860  -23.6260 C.2   187  ASP187      0.3671
     68  OD1       50.7830    8.5200  -24.6410 O.co2 187  ASP187     -0.2456
     69  OD2       52.4000    7.7390  -23.3690 O.co2 187  ASP187     -0.2456
@<TRIPOS>BOND
     1    10     9    2
     2     4     3    2
     3     9     8    1
     4     1     2    1
     5     3     2    1
     6     3     7   am
     7     5     2    1
     8     5     6    1
     9     8     7    1
    10     8    11    1
    11    12    13    1
    12    13    14    1
    13    13    16    1
    14    14    15    2
    15    16    17    1
    16    17    18    1
    17    31    30    2
    18    68    67   ar
    19    18    19    1
    20    19    20    1
    21    30    29    1
    22    29    28    1
    23    29    32    1
    24    67    69   ar
    25    67    66    1
    26    61    60    1
    27    60    57    1
    28    21    22    1
    29    59    58    2
    30    33    32    1
    31    33    34    1
    32    63    66    1
    33    63    62    1
    34    63    64    1
    35    58    62   am
    36    58    57    1
    37    36    34   ar
    38    57    56    1
    39    34    35   ar
    40    65    64    2
    41    26    25    1
    42    22    25    1
    43    22    23    1
    44    25    27    1
    45    56    54   am
    46    23    24    2
    47    37    38    1
    48    54    55    2
    49    54    53    1
    50    41    38    1
    51    41    42    1
    52    52    53    1
    53    52    50   am
    54    38    39    1
    55    51    50    2
    56    50    49    1
    57    42    44   ar
    58    42    43   ar
    59    44    46   ar
    60    49    48    1
    61    43    45   ar
    62    39    40    2
    63    46    47   ar
    64    45    47   ar
