@<TRIPOS>MOLECULE
tmp/3tvkA02.pdb
 96 91 0 0 0
SMALL
GASTEIGER

@<TRIPOS>ATOM
      1  N         -5.1980   29.6380   44.9910 N.3    71  THR71      -0.1203
      2  CA        -5.1430   28.2680   44.5440 C.3    71  THR71       0.1994
      3  C         -6.1170   27.3940   45.3310 C.2    71  THR71       0.2617
      4  O         -6.4250   27.6680   46.5020 O.2    71  THR71      -0.2717
      5  CB        -3.7190   27.6960   44.7060 C.3    71  THR71       0.1784
      6  OG1       -3.2450   27.9470   46.0320 O.3    71  THR71      -0.2211
      7  CG2       -2.7690   28.3460   43.6900 C.3    71  THR71       0.0376
      8  N         -6.5800   26.3320   44.6810 N.am   72  ARG72      -0.1979
      9  CA        -7.4530   25.3370   45.3220 C.3    72  ARG72       0.1597
     10  C         -6.6780   24.5520   46.4010 C.2    72  ARG72       0.2287
     11  O         -5.4610   24.4270   46.3100 O.2    72  ARG72      -0.2864
     12  CB        -8.0020   24.3950   44.2570 C.3    72  ARG72       0.0334
     13  CG        -8.7690   25.1160   43.1360 C.3    72  ARG72       0.0492
     14  CD        -9.4110   24.1360   42.1900 C.3    72  ARG72       0.2205
     15  NE       -10.1490   24.8170   41.1350 N.pl3  72  ARG72      -0.0865
     16  CZ       -10.8710   24.2110   40.1960 C.cat  72  ARG72       0.5346
     17  NH1      -10.9790   22.8930   40.1550 N.pl3  72  ARG72       0.1354
     18  NH2      -11.4940   24.9460   39.2900 N.pl3  72  ARG72       0.1354
     19  N         -6.2310   21.3750   47.2220 N.3    74  TYR74      -0.1227
     20  CA        -5.5190   20.1570   46.8220 C.3    74  TYR74       0.1736
     21  C         -4.3700   20.4090   45.8430 C.2    74  TYR74       0.2595
     22  O         -3.7210   19.4690   45.3700 O.2    74  TYR74      -0.2718
     23  CB        -6.5200   19.1470   46.2390 C.3    74  TYR74       0.0548
     24  CG        -7.3180   19.6170   45.0250 C.ar   74  TYR74      -0.0200
     25  CD1       -6.8880   19.3270   43.7440 C.ar   74  TYR74      -0.0009
     26  CD2       -8.5080   20.3250   45.1710 C.ar   74  TYR74      -0.0009
     27  CE1       -7.6070   19.7260   42.6370 C.ar   74  TYR74       0.0417
     28  CE2       -9.2380   20.7390   44.0560 C.ar   74  TYR74       0.0417
     29  CZ        -8.7830   20.4310   42.7980 C.ar   74  TYR74       0.1957
     30  OH        -9.4860   20.8200   41.6770 O.3    74  TYR74      -0.2866
     31  N         -4.1240   21.6850   45.5500 N.am   75  GLU75      -0.1979
     32  CA        -3.0690   22.1020   44.6530 C.3    75  GLU75       0.1602
     33  C         -2.0870   22.9600   45.4600 C.2    75  GLU75       0.2287
     34  O         -2.2960   24.1370   45.7030 O.2    75  GLU75      -0.2864
     35  CB        -3.6960   22.8060   43.4540 C.3    75  GLU75       0.0415
     36  CG        -4.5930   21.7950   42.7060 C.3    75  GLU75       0.1163
     37  CD        -5.2260   22.3200   41.4640 C.2    75  GLU75       0.3649
     38  OE1       -5.5600   23.5210   41.4070 O.co2  75  GLU75      -0.2457
     39  OE2       -5.4090   21.5080   40.5400 O.co2  75  GLU75      -0.2457
     40  N         -0.6970   21.2120   39.9600 N.3    89  VAL89      -0.1231
     41  CA        -2.0810   21.3080   39.4960 C.3    89  VAL89       0.1692
     42  C         -2.5250   19.9530   38.9820 C.2    89  VAL89       0.2592
     43  O         -1.7700   19.2770   38.2860 O.2    89  VAL89      -0.2718
     44  CB        -2.1980   22.3590   38.3510 C.3    89  VAL89       0.0266
     45  CG1       -3.5510   22.2690   37.6400 C.3    89  VAL89       0.0020
     46  CG2       -1.9500   23.7720   38.8910 C.3    89  VAL89       0.0020
     47  N         -3.7480   19.5420   39.3340 N.am   90  LYS90      -0.1966
     48  CA        -4.3580   18.3690   38.7190 C.3    90  LYS90       0.1728
     49  C         -5.5540   18.8290   37.8810 C.2    90  LYS90       0.2616
     50  O         -6.4020   19.5890   38.3500 O.2    90  LYS90      -0.2715
     51  CB        -4.7590   17.3180   39.7700 C.3    90  LYS90       0.0311
     52  CG        -3.5540   16.6220   40.4310 C.3    90  LYS90       0.0038
     53  CD        -3.8680   15.2610   41.1040 C.3    90  LYS90       0.0206
     54  CE        -4.4870   15.3960   42.5100 C.3    90  LYS90       0.1093
     55  NZ        -4.7160   14.0560   43.2120 N.3    90  LYS90      -0.1314
     56  N         -5.5950   18.3770   36.6370 N.am   91  ALA91      -0.1977
     57  CA        -6.5740   18.8770   35.6760 C.3    91  ALA91       0.1597
     58  C         -6.8830   17.8350   34.6200 C.2    91  ALA91       0.2287
     59  O         -6.1160   16.8810   34.4160 O.2    91  ALA91      -0.2864
     60  CB        -6.0580   20.1750   35.0190 C.3    91  ALA91       0.0319
     61  N         -6.9830   23.4190   30.7570 N.3    96  GLU96      -0.1245
     62  CA        -7.3630   23.7240   32.1380 C.3    96  GLU96       0.1567
     63  C         -6.1410   24.0940   32.9810 C.2    96  GLU96       0.2260
     64  O         -6.1750   25.0540   33.7620 O.2    96  GLU96      -0.2867
     65  CB        -8.1230   22.5390   32.7390 C.3    96  GLU96       0.0388
     66  CG        -9.5550   22.4430   32.1980 C.3    96  GLU96       0.1160
     67  CD       -10.3500   21.2630   32.7220 C.2    96  GLU96       0.3649
     68  OE1       -9.8940   20.5650   33.6500 O.co2  96  GLU96      -0.2457
     69  OE2      -11.4640   21.0510   32.2130 O.co2  96  GLU96      -0.2457
     70  N         -5.0240   27.4900   31.8960 N.3    99  ARG99      -0.1231
     71  CA        -5.9200   28.5140   32.4330 C.3    99  ARG99       0.1694
     72  C         -5.5480   28.8630   33.8760 C.2    99  ARG99       0.2591
     73  O         -5.5390   30.0360   34.2450 O.2    99  ARG99      -0.2718
     74  CB        -7.3810   28.0550   32.3600 C.3    99  ARG99       0.0321
     75  CG        -8.3970   29.0590   32.9290 C.3    99  ARG99       0.0489
     76  CD        -8.4000   30.3840   32.1680 C.3    99  ARG99       0.2205
     77  NE        -8.5220   30.1420   30.7250 N.pl3  99  ARG99      -0.0865
     78  CZ        -9.6660   29.9410   30.0720 C.cat  99  ARG99       0.5346
     79  NH1      -10.8420   29.9560   30.7050 N.pl3  99  ARG99       0.1354
     80  NH2       -9.6380   29.7220   28.7640 N.pl3  99  ARG99       0.1354
     81  N         -5.2480   27.8460   34.6890 N.am  100  ALA100     -0.1980
     82  CA        -4.7700   28.0690   36.0580 C.3   100  ALA100      0.1597
     83  C         -3.5080   28.9190   36.0500 C.2   100  ALA100      0.2287
     84  O         -3.3870   29.8900   36.8080 O.2   100  ALA100     -0.2864
     85  CB        -4.5120   26.7220   36.7840 C.3   100  ALA100      0.0319
     86  N         -4.1910   32.6740   34.7850 N.3   103  ARG103     -0.1245
     87  CA        -4.9670   33.4580   35.7370 C.3   103  ARG103      0.1563
     88  C         -4.1220   33.8580   36.9570 C.2   103  ARG103      0.2260
     89  O         -4.2490   34.9760   37.4780 O.2   103  ARG103     -0.2867
     90  CB        -6.2910   32.7600   36.1130 C.3   103  ARG103      0.0307
     91  CG        -6.1720   31.6070   37.0250 C.3   103  ARG103      0.0489
     92  CD        -7.5280   31.1290   37.5630 C.3   103  ARG103      0.2205
     93  NE        -7.2930   30.0740   38.5370 N.pl3 103  ARG103     -0.0865
     94  CZ        -6.8520   30.2690   39.7790 C.cat 103  ARG103      0.5346
     95  NH1       -6.6340   31.4920   40.2520 N.pl3 103  ARG103      0.1354
     96  NH2       -6.6310   29.2230   40.5570 N.pl3 103  ARG103      0.1354
@<TRIPOS>BOND
     1    80    78    1
     2    78    79    1
     3    78    77    2
     4    77    76    1
     5    61    62    1
     6    70    71    1
     7    62    65    1
     8    62    63    1
     9    76    75    1
    10    66    67    1
    11    66    65    1
    12    69    67   ar
    13    74    71    1
    14    74    75    1
    15    71    72    1
    16    67    68   ar
    17    63    64    2
    18    72    73    2
    19    72    81   am
    20    59    58    2
    21    58    57    1
    22    81    82    1
    23    86    87    1
    24    60    57    1
    25    57    56    1
    26    87    90    1
    27    87    88    1
    28    83    82    1
    29    83    84    2
    30    82    85    1
    31    90    91    1
    32    56    49   am
    33    88    89    2
    34    91    92    1
    35    92    93    1
    36    45    44    1
    37    49    50    2
    38    49    48    1
    39    43    42    2
    40    44    46    1
    41    44    41    1
    42    93    94    2
    43    48    47    1
    44    48    51    1
    45    42    47   am
    46    42    41    1
    47    18    16    1
    48    41    40    1
    49    51    52    1
    50    94    95    1
    51    94    96    1
    52    17    16    1
    53    16    15    2
    54    52    53    1
    55    39    37   ar
    56    53    54    1
    57    15    14    1
    58    38    37   ar
    59    37    36    1
    60    30    29    1
    61    14    13    1
    62    54    55    1
    63    27    29   ar
    64    27    25   ar
    65    36    35    1
    66    29    28   ar
    67    13    12    1
    68    35    32    1
    69     7     5    1
    70    25    24   ar
    71    28    26   ar
    72    12     9    1
    73     2     5    1
    74     2     1    1
    75     2     3    1
    76    32    33    1
    77    32    31    1
    78     8     9    1
    79     8     3   am
    80     5     6    1
    81    24    26   ar
    82    24    23    1
    83     9    10    1
    84     3     4    2
    85    22    21    2
    86    33    34    2
    87    31    21   am
    88    21    20    1
    89    23    20    1
    90    11    10    2
    91    20    19    1
