@<TRIPOS>MOLECULE
tmp/3tvkA00.pdb
 103 97 0 0 0
SMALL
GASTEIGER

@<TRIPOS>ATOM
      1  N         10.6130   31.7610   56.1920 N.3     9  LEU9       -0.1245
      2  CA        10.2200   33.1060   55.7580 C.3     9  LEU9        0.1561
      3  C          8.7500   33.1640   55.3570 C.2     9  LEU9        0.2260
      4  O          7.9860   33.9660   55.8990 O.2     9  LEU9       -0.2867
      5  CB        11.0930   33.5980   54.5970 C.3     9  LEU9        0.0270
      6  CG        10.7660   35.0070   54.0790 C.3     9  LEU9        0.0019
      7  CD1       10.8410   36.0340   55.2050 C.3     9  LEU9        0.0001
      8  CD2       11.6740   35.4020   52.9180 C.3     9  LEU9        0.0001
      9  N         13.5810   40.2420   40.3470 N.3    44  PHE44      -0.1227
     10  CA        13.5410   40.3030   41.8020 C.3    44  PHE44       0.1736
     11  C         14.8570   40.8360   42.3940 C.2    44  PHE44       0.2595
     12  O         14.8460   41.5710   43.3810 O.2    44  PHE44      -0.2718
     13  CB        13.1910   38.9290   42.3830 C.3    44  PHE44       0.0547
     14  CG        12.9030   38.9490   43.8640 C.ar   44  PHE44      -0.0202
     15  CD1       12.0110   39.8660   44.4070 C.ar   44  PHE44      -0.0042
     16  CD2       13.5030   38.0290   44.7070 C.ar   44  PHE44      -0.0042
     17  CE1       11.7480   39.8890   45.7660 C.ar   44  PHE44      -0.0003
     18  CE2       13.2290   38.0270   46.0770 C.ar   44  PHE44      -0.0003
     19  CZ        12.3590   38.9630   46.6100 C.ar   44  PHE44      -0.0000
     20  N         15.9860   40.4780   41.7920 N.am   45  LYS45      -0.1980
     21  CA        17.2750   41.0100   42.2620 C.3    45  LYS45       0.1596
     22  C         17.2010   42.5350   42.3210 C.2    45  LYS45       0.2287
     23  O         17.6010   43.1400   43.3120 O.2    45  LYS45      -0.2864
     24  CB        18.4290   40.5410   41.3650 C.3    45  LYS45       0.0298
     25  CG        19.7970   41.1050   41.7500 C.3    45  LYS45       0.0038
     26  CD        20.8170   40.4170   40.6950 C.3    45  LYS45       0.0206
     27  CE        20.8950   41.1060   39.4470 C.3    45  LYS45       0.1093
     28  NZ        21.3530   42.5030   39.6960 N.3    45  LYS45      -0.1314
     29  N         15.3540   43.8990   45.3860 N.3    48  ASN48      -0.1240
     30  CA        16.2400   43.9060   46.5530 C.3    48  ASN48       0.1653
     31  C         17.2990   45.0180   46.5080 C.2    48  ASN48       0.2266
     32  O         17.5770   45.6640   47.5220 O.2    48  ASN48      -0.2867
     33  CB        16.9540   42.5670   46.6850 C.3    48  ASN48       0.1155
     34  CG        16.0410   41.4660   47.1580 C.2    48  ASN48       0.2627
     35  OD1       15.9390   40.4140   46.5300 O.2    48  ASN48      -0.2716
     36  ND2       15.3930   41.6910   48.2870 N.am   48  ASN48      -0.0877
     37  N         16.7340   44.2810   51.2990 N.3    53  HIS53      -0.1241
     38  CA        16.2780   42.9040   51.4620 C.3    53  HIS53       0.1621
     39  C         15.0940   42.7390   52.4200 C.2    53  HIS53       0.2264
     40  O         14.3580   41.7510   52.3310 O.2    53  HIS53      -0.2867
     41  CB        17.4390   42.0060   51.8940 C.3    53  HIS53       0.0745
     42  CG        18.3630   41.6400   50.7740 C.ar   53  HIS53       0.0817
     43  ND1       18.2210   40.4810   50.0420 N.ar   53  HIS53      -0.2268
     44  CD2       19.4420   42.2800   50.2610 C.ar   53  HIS53       0.1154
     45  CE1       19.1740   40.4200   49.1280 C.ar   53  HIS53       0.1986
     46  NE2       19.9260   41.5010   49.2370 N.ar   53  HIS53      -0.2212
     47  N         12.2750   43.1370   50.1210 N.3    56  GLY56      -0.1210
     48  CA        12.2580   41.8760   49.3980 C.3    56  GLY56       0.1956
     49  C         11.5840   40.7610   50.1770 C.2    56  GLY56       0.2611
     50  O         10.8430   39.9670   49.5990 O.2    56  GLY56      -0.2717
     51  N         11.8290   40.6980   51.4850 N.am   57  ASP57      -0.1973
     52  CA        11.2060   39.6830   52.3470 C.3    57  ASP57       0.1709
     53  C          9.6790   39.8680   52.4140 C.2    57  ASP57       0.2293
     54  O          8.9120   38.8950   52.4170 O.2    57  ASP57      -0.2864
     55  CB        11.8060   39.7220   53.7670 C.3    57  ASP57       0.1436
     56  CG        13.2040   39.1120   53.8500 C.2    57  ASP57       0.3671
     57  OD1       13.7480   38.6380   52.8330 O.co2  57  ASP57      -0.2456
     58  OD2       13.7640   39.1000   54.9620 O.co2  57  ASP57      -0.2456
     59  N          8.2460   38.5140   49.1890 N.3    60  LEU60      -0.1245
     60  CA         8.1650   37.0410   49.2330 C.3    60  LEU60       0.1561
     61  C          7.0360   36.5370   50.1400 C.2    60  LEU60       0.2260
     62  O          6.2540   35.6650   49.7440 O.2    60  LEU60      -0.2867
     63  CB         9.5140   36.4300   49.6550 C.3    60  LEU60       0.0270
     64  CG        10.6120   36.5390   48.5910 C.3    60  LEU60       0.0019
     65  CD1       12.0290   36.3690   49.1810 C.3    60  LEU60       0.0001
     66  CD2       10.3420   35.5370   47.4800 C.3    60  LEU60       0.0001
     67  N          7.4040   27.0470   48.1580 N.3    79  ARG79      -0.1245
     68  CA         8.5500   27.8970   47.8530 C.3    79  ARG79       0.1563
     69  C          9.7060   26.9890   47.4940 C.2    79  ARG79       0.2260
     70  O         10.2970   26.3570   48.3710 O.2    79  ARG79      -0.2867
     71  CB         8.9320   28.8090   49.0160 C.3    79  ARG79       0.0307
     72  CG         9.9170   29.8800   48.5480 C.3    79  ARG79       0.0489
     73  CD        10.5650   30.5570   49.6800 C.3    79  ARG79       0.2205
     74  NE        11.6060   31.4880   49.2490 N.pl3  79  ARG79      -0.0865
     75  CZ        12.3800   32.1600   50.0910 C.cat  79  ARG79       0.5346
     76  NH1       12.2350   31.9920   51.3990 N.pl3  79  ARG79       0.1354
     77  NH2       13.3130   32.9880   49.6350 N.pl3  79  ARG79       0.1354
     78  N         12.5810   27.7560   45.5480 N.3    81  GLY81      -0.1210
     79  CA        13.8770   28.4130   45.6270 C.3    81  GLY81       0.1956
     80  C         13.7510   29.8440   46.1050 C.2    81  GLY81       0.2612
     81  O         12.6750   30.2910   46.5220 O.2    81  GLY81      -0.2717
     82  N         14.8600   30.5690   46.0370 N.am   82  GLY82      -0.1942
     83  CA        14.9280   31.9170   46.5700 C.3    82  GLY82       0.2014
     84  C         13.8640   32.8550   46.0120 C.2    82  GLY82       0.2639
     85  O         13.2290   33.5930   46.7700 O.2    82  GLY82      -0.2714
     86  N         13.6590   32.8060   44.6950 N.am   83  GLU83      -0.1963
     87  CA        12.6700   33.6600   44.0250 C.3    83  GLU83       0.1733
     88  C         11.6340   32.8420   43.2510 C.2    83  GLU83       0.2616
     89  O         10.9280   33.3930   42.4010 O.2    83  GLU83      -0.2715
     90  CB        13.3740   34.6450   43.0750 C.3    83  GLU83       0.0429
     91  CG        14.3210   33.9770   42.0680 C.3    83  GLU83       0.1163
     92  CD        14.9530   34.9540   41.0940 C.2    83  GLU83       0.3649
     93  OE1       15.0620   36.1530   41.4200 O.co2  83  GLU83      -0.2457
     94  OE2       15.3560   34.5080   40.0000 O.co2  83  GLU83      -0.2457
     95  N         11.5410   31.5450   43.5660 N.am   84  GLU84      -0.1977
     96  CA        10.8130   30.5730   42.7620 C.3    84  GLU84       0.1602
     97  C          9.7460   29.8390   43.5660 C.2    84  GLU84       0.2287
     98  O         10.0290   29.3180   44.6570 O.2    84  GLU84      -0.2864
     99  CB        11.7420   29.4760   42.2300 C.3    84  GLU84       0.0415
    100  CG        12.7850   29.8700   41.2280 C.3    84  GLU84       0.1163
    101  CD        12.9850   28.7840   40.1690 C.2    84  GLU84       0.3649
    102  OE1       13.0100   27.5840   40.5320 O.co2  84  GLU84      -0.2457
    103  OE2       13.1020   29.1320   38.9830 O.co2  84  GLU84      -0.2457
@<TRIPOS>BOND
     1   103   101   ar
     2    27    28    1
     3    27    26    1
     4    94    92   ar
     5   101   102   ar
     6   101   100    1
     7     9    10    1
     8    26    25    1
     9    92    93   ar
    10    92    91    1
    11   100    99    1
    12    24    25    1
    13    24    21    1
    14    20    21    1
    15    20    11   am
    16    10    13    1
    17    10    11    1
    18    91    90    1
    19    99    96    1
    20    21    22    1
    21    22    23    2
    22    13    14    1
    23    11    12    2
    24    89    88    2
    25    96    97    1
    26    96    95    1
    27    90    87    1
    28    88    95   am
    29    88    87    1
    30    97    98    2
    31    14    15   ar
    32    14    16   ar
    33    87    86    1
    34    15    17   ar
    35    86    84   am
    36    16    18   ar
    37    29    30    1
    38    78    79    1
    39    79    80    1
    40    17    19   ar
    41    84    83    1
    42    84    85    2
    43    82    80   am
    44    82    83    1
    45    18    19   ar
    46    80    81    2
    47    31    30    1
    48    31    32    2
    49    35    34    2
    50    30    33    1
    51    33    34    1
    52    34    36   am
    53    66    64    1
    54    69    68    1
    55    69    70    2
    56    68    67    1
    57    68    71    1
    58    72    71    1
    59    72    73    1
    60    64    65    1
    61    64    63    1
    62    45    46   ar
    63    45    43   ar
    64    59    60    1
    65    60    63    1
    66    60    61    1
    67    46    44   ar
    68    74    73    1
    69    74    75    2
    70    48    47    1
    71    48    49    1
    72    50    49    2
    73    77    75    1
    74    62    61    2
    75    43    42   ar
    76    75    76    1
    77    49    51   am
    78    44    42   ar
    79    42    41    1
    80    37    38    1
    81    38    41    1
    82    38    39    1
    83    51    52    1
    84    40    39    2
    85    52    53    1
    86    52    55    1
    87    53    54    2
    88    57    56   ar
    89     8     6    1
    90    55    56    1
    91    56    58   ar
    92     6     5    1
    93     6     7    1
    94     5     2    1
    95     3     2    1
    96     3     4    2
    97     2     1    1
