@<TRIPOS>MOLECULE
tmp/3tvlB00.pdb
 163 149 0 0 0
SMALL
GASTEIGER

@<TRIPOS>ATOM
      1  N         12.0930   -8.6990   61.0390 N.3     3  GLU3       -0.1245
      2  CA        13.2180   -7.8810   60.6900 C.3     3  GLU3        0.1567
      3  C         13.1670   -6.5920   61.4870 C.2     3  GLU3        0.2260
      4  O         12.1610   -5.8840   61.4710 O.2     3  GLU3       -0.2867
      5  CB        13.1380   -7.5740   59.2030 C.3     3  GLU3        0.0388
      6  CG        14.1960   -6.6410   58.6740 C.3     3  GLU3        0.1160
      7  CD        13.8150   -6.0450   57.3110 C.2     3  GLU3        0.3649
      8  OE1       13.9980   -4.8190   57.1390 O.co2   3  GLU3       -0.2457
      9  OE2       13.3330   -6.7930   56.4220 O.co2   3  GLU3       -0.2457
     10  N         18.2420    2.2230   58.9460 N.3     7  LYS7       -0.1245
     11  CA        18.9500    2.6660   57.7570 C.3     7  LYS7        0.1561
     12  C         19.7700    3.8820   58.0650 C.2     7  LYS7        0.2260
     13  O         19.4000    4.7120   58.8780 O.2     7  LYS7       -0.2867
     14  CB        17.9940    2.9680   56.6030 C.3     7  LYS7        0.0271
     15  CG        17.3360    1.7340   55.9570 C.3     7  LYS7        0.0035
     16  CD        16.4290    2.1520   54.7810 C.3     7  LYS7        0.0206
     17  CE        15.2120    1.2610   54.6900 C.3     7  LYS7        0.1093
     18  NZ        15.5340   -0.1170   54.2240 N.3     7  LYS7       -0.1314
     19  N         21.6720   -6.9620   41.7340 N.3    31  PHE31      -0.1241
     20  CA        20.3360   -7.5130   41.4850 C.3    31  PHE31       0.1605
     21  C         19.3310   -6.4240   41.1550 C.2    31  PHE31       0.2264
     22  O         19.4510   -5.2970   41.6580 O.2    31  PHE31      -0.2867
     23  CB        19.8350   -8.3180   42.7120 C.3    31  PHE31       0.0534
     24  CG        19.6970   -7.4940   43.9990 C.ar   31  PHE31      -0.0203
     25  CD1       20.7290   -7.4400   44.9250 C.ar   31  PHE31      -0.0042
     26  CD2       18.5250   -6.8220   44.2930 C.ar   31  PHE31      -0.0042
     27  CE1       20.6120   -6.7050   46.1070 C.ar   31  PHE31      -0.0003
     28  CE2       18.3910   -6.0640   45.4900 C.ar   31  PHE31      -0.0003
     29  CZ        19.4440   -6.0040   46.3900 C.ar   31  PHE31      -0.0000
     30  N         15.4780   -5.0390   41.5190 N.3    33  ASP33      -0.1239
     31  CA        14.1690   -5.1420   42.2290 C.3    33  ASP33       0.1674
     32  C         13.0510   -4.4810   41.4370 C.2    33  ASP33       0.2266
     33  O         13.2190   -3.3850   40.9050 O.2    33  ASP33      -0.2867
     34  CB        14.1670   -4.4710   43.6110 C.3    33  ASP33       0.1410
     35  CG        14.9030   -5.2580   44.6730 C.2    33  ASP33       0.3668
     36  OD1       14.9550   -6.5020   44.5640 O.co2  33  ASP33      -0.2456
     37  OD2       15.4160   -4.6010   45.6350 O.co2  33  ASP33      -0.2456
     38  N          9.2350   -3.2040   42.2050 N.3    35  TYR35      -0.1241
     39  CA         8.2470   -2.8970   43.2170 C.3    35  TYR35       0.1605
     40  C          6.8610   -2.7750   42.5720 C.2    35  TYR35       0.2264
     41  O          6.6980   -2.1440   41.5170 O.2    35  TYR35      -0.2867
     42  CB         8.6670   -1.6210   43.9910 C.3    35  TYR35       0.0534
     43  CG        10.0390   -1.7310   44.6850 C.ar   35  TYR35      -0.0201
     44  CD1       10.1460   -2.1160   46.0400 C.ar   35  TYR35      -0.0009
     45  CD2       11.2210   -1.4680   43.9870 C.ar   35  TYR35      -0.0009
     46  CE1       11.4030   -2.2190   46.6920 C.ar   35  TYR35       0.0417
     47  CE2       12.4650   -1.5740   44.6050 C.ar   35  TYR35       0.0417
     48  CZ        12.5510   -1.9430   45.9600 C.ar   35  TYR35       0.1957
     49  OH        13.8070   -2.0350   46.5700 O.3    35  TYR35      -0.2866
     50  N          7.6730   -6.6320   46.3590 N.3    51  ARG51      -0.1245
     51  CA         8.6910   -6.6060   45.3260 C.3    51  ARG51       0.1563
     52  C          9.0360   -8.0020   44.8090 C.2    51  ARG51       0.2260
     53  O          8.8520   -9.0080   45.4930 O.2    51  ARG51      -0.2867
     54  CB         9.9450   -5.8640   45.7830 C.3    51  ARG51       0.0307
     55  CG        10.5900   -6.4730   46.9230 C.3    51  ARG51       0.0489
     56  CD        12.0570   -6.2830   46.8670 C.3    51  ARG51       0.2205
     57  NE        12.6320   -6.9630   48.0280 N.pl3  51  ARG51      -0.0865
     58  CZ        13.0000   -6.3470   49.1540 C.cat  51  ARG51       0.5346
     59  NH1       12.8890   -5.0180   49.2700 N.pl3  51  ARG51       0.1354
     60  NH2       13.4980   -7.0620   50.1580 N.pl3  51  ARG51       0.1354
     61  N         12.3040   -9.9210   43.4260 N.3    53  ARG53      -0.1245
     62  CA        13.7430   -9.7440   43.3610 C.3    53  ARG53       0.1563
     63  C         14.4010  -10.7750   42.4280 C.2    53  ARG53       0.2260
     64  O         14.1360  -11.9750   42.5230 O.2    53  ARG53      -0.2867
     65  CB        14.3440   -9.7440   44.7580 C.3    53  ARG53       0.0307
     66  CG        15.8570   -9.6740   44.7800 C.3    53  ARG53       0.0489
     67  CD        16.3390   -9.4030   46.1870 C.3    53  ARG53       0.2205
     68  NE        16.0380   -8.0340   46.6170 N.pl3  53  ARG53      -0.0865
     69  CZ        16.1890   -7.6060   47.8660 C.cat  53  ARG53       0.5346
     70  NH1       16.6380   -8.4370   48.7980 N.pl3  53  ARG53       0.1354
     71  NH2       15.9330   -6.3520   48.1800 N.pl3  53  ARG53       0.1354
     72  N          6.9560   -7.1990   52.5710 N.3    61  LYS61      -0.1245
     73  CA         7.2700   -6.7260   53.8870 C.3    61  LYS61       0.1561
     74  C          6.0420   -6.1000   54.4950 C.2    61  LYS61       0.2260
     75  O          5.4840   -5.1610   53.9570 O.2    61  LYS61      -0.2867
     76  CB         8.4430   -5.7560   53.8520 C.3    61  LYS61       0.0271
     77  CG         9.7980   -6.4550   53.6900 C.3    61  LYS61       0.0035
     78  CD        10.9170   -5.4190   53.6890 C.3    61  LYS61       0.0206
     79  CE        12.2470   -6.0460   53.3210 C.3    61  LYS61       0.1093
     80  NZ        13.4180   -5.1980   53.6840 N.3    61  LYS61      -0.1314
     81  N          8.9490  -10.3960   56.9810 N.3    77  GLU77      -0.1245
     82  CA         9.2640  -10.7620   55.5970 C.3    77  GLU77       0.1567
     83  C          8.4420  -11.9910   55.2690 C.2    77  GLU77       0.2260
     84  O          8.6180  -13.0440   55.8810 O.2    77  GLU77      -0.2867
     85  CB        10.7670  -11.0580   55.4030 C.3    77  GLU77       0.0388
     86  CG        11.6450   -9.8930   54.8180 C.3    77  GLU77       0.1160
     87  CD        12.0850  -10.0760   53.3140 C.2    77  GLU77       0.3649
     88  OE1       13.3150  -10.0570   53.0530 O.co2  77  GLU77      -0.2457
     89  OE2       11.2340  -10.2160   52.3950 O.co2  77  GLU77      -0.2457
     90  N         25.1590   -4.6600   46.2660 N.3   121  ARG121     -0.1245
     91  CA        25.0990   -4.8070   47.7000 C.3   121  ARG121      0.1563
     92  C         26.3610   -5.5020   48.1470 C.2   121  ARG121      0.2260
     93  O         26.7850   -6.4440   47.4890 O.2   121  ARG121     -0.2867
     94  CB        23.8930   -5.6800   48.0850 C.3   121  ARG121      0.0307
     95  CG        23.9980   -6.3210   49.4740 C.3   121  ARG121      0.0489
     96  CD        22.7000   -6.9130   49.9110 C.3   121  ARG121      0.2205
     97  NE        21.6840   -5.8780   50.0180 N.pl3 121  ARG121     -0.0865
     98  CZ        20.3980   -6.1380   50.2750 C.cat 121  ARG121      0.5346
     99  NH1       20.0010   -7.3990   50.4290 N.pl3 121  ARG121      0.1354
    100  NH2       19.5070   -5.1400   50.3640 N.pl3 121  ARG121      0.1354
    101  N         23.9640   -4.3070   55.6200 N.3   133  ASP133     -0.1239
    102  CA        23.9270   -4.2490   54.1660 C.3   133  ASP133      0.1674
    103  C         24.3540   -2.8820   53.7210 C.2   133  ASP133      0.2266
    104  O         23.8900   -1.8740   54.2720 O.2   133  ASP133     -0.2867
    105  CB        22.5270   -4.5250   53.6080 C.3   133  ASP133      0.1410
    106  CG        22.1530   -5.9970   53.6570 C.2   133  ASP133      0.3668
    107  OD1       23.0680   -6.8360   53.6800 O.co2 133  ASP133     -0.2456
    108  OD2       20.9360   -6.3270   53.6680 O.co2 133  ASP133     -0.2456
    109  N         24.3970   -0.6770   50.3210 N.3   135  ASP135     -0.1239
    110  CA        23.7580   -0.7070   48.9980 C.3   135  ASP135      0.1674
    111  C         24.0780    0.5590   48.1900 C.2   135  ASP135      0.2266
    112  O         24.0780    1.6550   48.7550 O.2   135  ASP135     -0.2867
    113  CB        22.2250   -0.8920   49.1460 C.3   135  ASP135      0.1410
    114  CG        21.8030   -2.3620   49.4540 C.2   135  ASP135      0.3668
    115  OD1       22.6740   -3.2620   49.6290 O.co2 135  ASP135     -0.2456
    116  OD2       20.5710   -2.6290   49.5090 O.co2 135  ASP135     -0.2456
    117  N         23.0300    3.6020   50.5400 N.3   143  VAL143     -0.1245
    118  CA        22.3360    3.5220   51.8130 C.3   143  VAL143      0.1561
    119  C         22.7790    2.2050   52.4770 C.2   143  VAL143      0.2260
    120  O         23.0610    1.2330   51.7850 O.2   143  VAL143     -0.2867
    121  CB        20.7790    3.6290   51.6320 C.3   143  VAL143      0.0252
    122  CG1       20.2060    2.3940   50.8920 C.3   143  VAL143      0.0019
    123  CG2       20.0660    3.8640   52.9860 C.3   143  VAL143      0.0019
    124  N         22.2260   -0.5210   56.0520 N.3   145  GLU145     -0.1245
    125  CA        21.2010   -1.0110   56.9480 C.3   145  GLU145      0.1567
    126  C         21.7600   -1.9990   57.9510 C.2   145  GLU145      0.2260
    127  O         22.3480   -3.0140   57.5730 O.2   145  GLU145     -0.2867
    128  CB        20.0940   -1.6910   56.1610 C.3   145  GLU145      0.0388
    129  CG        18.9430   -2.2120   57.0210 C.3   145  GLU145      0.1160
    130  CD        17.8560   -2.8120   56.1710 C.2   145  GLU145      0.3649
    131  OE1       17.3000   -2.0800   55.3370 O.co2 145  GLU145     -0.2457
    132  OE2       17.5860   -4.0240   56.3130 O.co2 145  GLU145     -0.2457
    133  N         20.5700   -4.5690   60.7980 N.3   147  GLU147     -0.1245
    134  CA        19.3840   -5.4070   60.7440 C.3   147  GLU147      0.1567
    135  C         19.5850   -6.6490   61.5570 C.2   147  GLU147      0.2260
    136  O         20.6480   -7.2440   61.5380 O.2   147  GLU147     -0.2867
    137  CB        19.1410   -5.7780   59.2920 C.3   147  GLU147      0.0388
    138  CG        18.1010   -6.8070   59.0250 C.3   147  GLU147      0.1160
    139  CD        17.9640   -7.0550   57.5210 C.2   147  GLU147      0.3649
    140  OE1       18.9470   -6.8220   56.7750 O.co2 147  GLU147     -0.2457
    141  OE2       16.8690   -7.4760   57.0870 O.co2 147  GLU147     -0.2457
    142  N         14.4950    4.7470   52.2350 N.3   180  ALA180     -0.1231
    143  CA        14.7290    3.5340   51.4840 C.3   180  ALA180      0.1694
    144  C         15.0660    3.8900   50.0230 C.2   180  ALA180      0.2592
    145  O         14.7360    4.9650   49.5720 O.2   180  ALA180     -0.2718
    146  CB        13.5100    2.6280   51.5510 C.3   180  ALA180      0.0304
    147  N         15.7110    2.9790   49.3000 N.am  181  LYS181     -0.1966
    148  CA        16.0340    3.1840   47.8820 C.3   181  LYS181      0.1728
    149  C         14.8230    3.5850   47.0080 C.2   181  LYS181      0.2616
    150  O         14.9320    4.4760   46.1680 O.2   181  LYS181     -0.2715
    151  CB        16.7480    1.9590   47.3430 C.3   181  LYS181      0.0311
    152  CG        18.0190    1.6290   48.1190 C.3   181  LYS181      0.0038
    153  CD        18.8810    0.5990   47.4040 C.3   181  LYS181      0.0206
    154  CE        18.2110   -0.7420   47.3360 C.3   181  LYS181      0.1093
    155  NZ        17.5810   -1.1030   48.6030 N.3   181  LYS181     -0.1314
    156  N         13.6640    2.9780   47.2720 N.am  182  LEU182     -0.1977
    157  CA        12.4460    3.2060   46.4980 C.3   182  LEU182      0.1596
    158  C         11.9220    4.6110   46.7190 C.2   182  LEU182      0.2287
    159  O         11.4450    5.2670   45.7750 O.2   182  LEU182     -0.2864
    160  CB        11.3640    2.1730   46.8420 C.3   182  LEU182      0.0297
    161  CG        10.0070    2.3250   46.1270 C.3   182  LEU182      0.0022
    162  CD1       10.1640    2.2250   44.6050 C.3   182  LEU182      0.0001
    163  CD2        8.9570    1.3100   46.6070 C.3   182  LEU182      0.0001
@<TRIPOS>BOND
     1    33    32    2
     2    21    20    1
     3    21    22    2
     4    32    31    1
     5    20    19    1
     6    20    23    1
     7    41    40    2
     8    30    31    1
     9    38    39    1
    10    31    34    1
    11    63    64    2
    12    63    62    1
    13    40    39    1
    14    23    24    1
    15    39    42    1
    16    62    61    1
    17    62    65    1
    18    34    35    1
    19    45    47   ar
    20    45    43   ar
    21    42    43    1
    22    24    26   ar
    23    24    25   ar
    24    26    28   ar
    25    36    35   ar
    26    47    48   ar
    27   162   161    1
    28    35    37   ar
    29    43    44   ar
    30    65    66    1
    31    66    67    1
    32    52    51    1
    33    52    53    2
    34    25    27   ar
    35    51    54    1
    36    51    50    1
    37    28    29   ar
    38   159   158    2
    39    54    55    1
    40    48    49    1
    41    48    46   ar
    42    44    46   ar
    43    27    29   ar
    44   161   163    1
    45   161   160    1
    46   150   149    2
    47    67    68    1
    48    90    91    1
    49   157   158    1
    50   157   160    1
    51   157   156    1
    52    68    69    2
    53    56    55    1
    54    56    57    1
    55   149   156   am
    56   149   148    1
    57   154   153    1
    58   154   155    1
    59   151   148    1
    60   151   152    1
    61   153   152    1
    62    93    92    2
    63    91    94    1
    64    91    92    1
    65    69    71    1
    66    69    70    1
    67   148   147    1
    68    57    58    2
    69    94    95    1
    70   111   112    2
    71   111   110    1
    72   110   113    1
    73   110   109    1
    74   113   114    1
    75    58    59    1
    76    58    60    1
    77   147   144   am
    78   114   116   ar
    79   114   115   ar
    80    95    96    1
    81   145   144    2
    82    96    97    1
    83    97    98    2
    84   144   143    1
    85    98   100    1
    86    98    99    1
    87   117   118    1
    88   122   121    1
    89   143   146    1
    90   143   142    1
    91   121   118    1
    92   121   123    1
    93   120   119    2
    94   118   119    1
    95    89    87   ar
    96    72    73    1
    97    88    87   ar
    98    87    86    1
    99    79    80    1
   100    79    78    1
   101   105   106    1
   102   105   102    1
   103   106   108   ar
   104   106   107   ar
   105    78    77    1
   106    77    76    1
   107   103   102    1
   108   103   104    2
   109    76    73    1
   110    73    74    1
   111    75    74    2
   112   102   101    1
   113    18    17    1
   114    17    16    1
   115    16    15    1
   116    86    85    1
   117    83    82    1
   118    83    84    2
   119   131   130   ar
   120    85    82    1
   121    82    81    1
   122    15    14    1
   123   124   125    1
   124   128   125    1
   125   128   129    1
   126   130   132   ar
   127   130   129    1
   128     9     7   ar
   129    14    11    1
   130   140   139   ar
   131   125   126    1
   132   141   139   ar
   133     8     7   ar
   134     7     6    1
   135   139   138    1
   136   127   126    2
   137    11    12    1
   138    11    10    1
   139    12    13    2
   140     6     5    1
   141   138   137    1
   142     5     2    1
   143   137   134    1
   144     2     1    1
   145     2     3    1
   146   134   133    1
   147   134   135    1
   148     4     3    2
   149   136   135    2
