@<TRIPOS>MOLECULE
tmp/3tvqA00.pdb
 140 139 0 0 0
SMALL
GASTEIGER

@<TRIPOS>ATOM
      1  N         58.8150   12.1770   16.6530 N.3    54  THR54      -0.1218
      2  CA        60.2150   11.7960   16.7360 C.3    54  THR54       0.1862
      3  C         60.7120   10.9810   15.5580 C.2    54  THR54       0.2287
      4  O         59.9320   10.4830   14.7440 O.2    54  THR54      -0.2866
      5  CB        60.4960   10.9510   17.9980 C.3    54  THR54       0.1770
      6  OG1       59.9750    9.6280   17.8100 O.3    54  THR54      -0.2211
      7  CG2       59.8420   11.5740   19.2310 C.3    54  THR54       0.0375
      8  N         63.3180    5.7480   17.4370 N.3    57  ASP57      -0.1225
      9  CA        64.2050    5.7090   18.5930 C.3    57  ASP57       0.1805
     10  C         65.1240    4.4890   18.6140 C.2    57  ASP57       0.2598
     11  O         65.1750    3.7160   17.6550 O.2    57  ASP57      -0.2718
     12  CB        63.4020    5.7900   19.9050 C.3    57  ASP57       0.1424
     13  CG        62.5380    4.5560   20.1640 C.2    57  ASP57       0.3668
     14  OD1       62.6720    3.5360   19.4570 O.co2  57  ASP57      -0.2456
     15  OD2       61.7170    4.6140   21.1010 O.co2  57  ASP57      -0.2456
     16  N         65.8490    4.3280   19.7170 N.am   58  ALA58      -0.1966
     17  CA        66.7900    3.2240   19.8780 C.3    58  ALA58       0.1728
     18  C         66.1480    1.8500   19.7360 C.2    58  ALA58       0.2616
     19  O         66.8530    0.8450   19.6230 O.2    58  ALA58      -0.2715
     20  CB        67.4940    3.3350   21.2320 C.3    58  ALA58       0.0334
     21  N         64.8160    1.8040   19.7380 N.am   59  ASN59      -0.1972
     22  CA        64.0970    0.5410   19.6060 C.3    59  ASN59       0.1688
     23  C         63.2850    0.4800   18.3160 C.2    59  ASN59       0.2292
     24  O         62.5080   -0.4570   18.1030 O.2    59  ASN59      -0.2864
     25  CB        63.1740    0.3280   20.8110 C.3    59  ASN59       0.1181
     26  CG        63.9330    0.2910   22.1220 C.2    59  ASN59       0.2629
     27  OD1       64.9660   -0.3670   22.2320 O.2    59  ASN59      -0.2716
     28  ND2       63.4200    0.9920   23.1250 N.am   59  ASN59      -0.0877
     29  N         57.4810    8.2080   18.1090 N.3    63  TRP63      -0.1241
     30  CA        56.4850    8.7170   19.0470 C.3    63  TRP63       0.1605
     31  C         55.9700   10.0770   18.5750 C.2    63  TRP63       0.2264
     32  O         56.6730   10.8020   17.8730 O.2    63  TRP63      -0.2867
     33  CB        57.0850    8.8520   20.4520 C.3    63  TRP63       0.0550
     34  CG        57.7180    7.5890   20.9820 C.ar   63  TRP63       0.0003
     35  CD1       58.9910    7.1430   20.7460 C.ar   63  TRP63       0.0946
     36  CD2       57.1030    6.6120   21.8330 C.ar   63  TRP63       0.0152
     37  NE1       59.2060    5.9510   21.4010 N.ar   63  TRP63      -0.2442
     38  CE2       58.0640    5.6030   22.0750 C.ar   63  TRP63       0.0810
     39  CE3       55.8350    6.4920   22.4180 C.ar   63  TRP63       0.0012
     40  CZ2       57.7950    4.4850   22.8790 C.ar   63  TRP63       0.0191
     41  CZ3       55.5680    5.3820   23.2160 C.ar   63  TRP63       0.0001
     42  CH2       56.5450    4.3940   23.4380 C.ar   63  TRP63       0.0015
     43  N         53.3010   13.5220   19.9110 N.3    65  TRP65      -0.1241
     44  CA        52.4600   14.1060   20.9450 C.3    65  TRP65       0.1605
     45  C         52.3080   15.6100   20.7730 C.2    65  TRP65       0.2264
     46  O         53.0220   16.2310   19.9840 O.2    65  TRP65      -0.2867
     47  CB        53.0540   13.8010   22.3250 C.3    65  TRP65       0.0550
     48  CG        54.3760   14.4860   22.6020 C.ar   65  TRP65       0.0003
     49  CD1       54.5600   15.7570   23.0650 C.ar   65  TRP65       0.0946
     50  CD2       55.6880   13.9370   22.4100 C.ar   65  TRP65       0.0152
     51  NE1       55.9020   16.0350   23.1740 N.ar   65  TRP65      -0.2442
     52  CE2       56.6170   14.9350   22.7770 C.ar   65  TRP65       0.0810
     53  CE3       56.1670   12.6970   21.9630 C.ar   65  TRP65       0.0012
     54  CZ2       58.0010   14.7350   22.7100 C.ar   65  TRP65       0.0191
     55  CZ3       57.5430   12.4960   21.8980 C.ar   65  TRP65       0.0001
     56  CH2       58.4440   13.5110   22.2690 C.ar   65  TRP65       0.0015
     57  N         53.2100   18.3570   28.4850 N.3    82  ARG82      -0.1245
     58  CA        52.5920   17.5670   27.4430 C.3    82  ARG82       0.1563
     59  C         51.0970   17.5290   27.6630 C.2    82  ARG82       0.2260
     60  O         50.6340   17.3740   28.7940 O.2    82  ARG82      -0.2867
     61  CB        53.1330   16.1440   27.4560 C.3    82  ARG82       0.0307
     62  CG        54.6000   16.0670   27.1220 C.3    82  ARG82       0.0489
     63  CD        54.9450   14.6760   26.6870 C.3    82  ARG82       0.2205
     64  NE        56.3530   14.5640   26.3380 N.pl3  82  ARG82      -0.0865
     65  CZ        56.8920   13.4720   25.8150 C.cat  82  ARG82       0.5346
     66  NH1       56.1320   12.4130   25.5840 N.pl3  82  ARG82       0.1354
     67  NH2       58.1870   13.4400   25.5390 N.pl3  82  ARG82       0.1354
     68  N         53.3820    7.6170   27.3080 N.3    87  PRO87      -0.2102
     69  CA        53.6970    6.7230   28.4280 C.3    87  PRO87       0.1504
     70  C         53.8150    7.4320   29.7790 C.2    87  PRO87       0.2575
     71  O         53.9080    6.7830   30.8190 O.2    87  PRO87      -0.2718
     72  CB        55.0120    6.0840   27.9930 C.3    87  PRO87       0.0282
     73  CG        55.6800    7.2050   27.2560 C.3    87  PRO87       0.0208
     74  CD        54.5470    7.7730   26.4160 C.3    87  PRO87       0.0893
     75  N         53.8090    8.7630   29.7540 N.am   88  PHE88      -0.1977
     76  CA        53.9190    9.5700   30.9660 C.3    88  PHE88       0.1639
     77  C         52.5620    9.8630   31.5980 C.2    88  PHE88       0.2290
     78  O         51.5760   10.0730   30.8920 O.2    88  PHE88      -0.2864
     79  CB        54.5670   10.9240   30.6530 C.3    88  PHE88       0.0560
     80  CG        55.9730   10.8300   30.1470 C.ar   88  PHE88      -0.0200
     81  CD1       57.0420   10.7420   31.0310 C.ar   88  PHE88      -0.0042
     82  CD2       56.2300   10.8400   28.7810 C.ar   88  PHE88      -0.0042
     83  CE1       58.3530   10.6640   30.5560 C.ar   88  PHE88      -0.0003
     84  CE2       57.5300   10.7630   28.2990 C.ar   88  PHE88      -0.0003
     85  CZ        58.5950   10.6740   29.1860 C.ar   88  PHE88      -0.0000
     86  N         54.1460   15.2360   32.1370 N.3    91  MET91      -0.1245
     87  CA        55.5030   15.6560   31.7950 C.3    91  MET91       0.1570
     88  C         55.5660   17.1750   31.7040 C.2    91  MET91       0.2261
     89  O         54.9550   17.7720   30.8180 O.2    91  MET91      -0.2867
     90  CB        55.9320   15.0340   30.4610 C.3    91  MET91       0.0387
     91  CG        57.2050   15.6420   29.8670 C.3    91  MET91       0.0595
     92  SD        58.6400   15.5410   30.9530 S.3    91  MET91      -0.1393
     93  CE        59.2260   13.9170   30.5560 C.3    91  MET91       0.0692
     94  N         58.8550    1.7220   30.4680 N.3   120  PHE120     -0.1241
     95  CA        60.0030    2.1910   31.2370 C.3   120  PHE120      0.1605
     96  C         59.5400    2.8210   32.5490 C.2   120  PHE120      0.2264
     97  O         58.5380    3.5300   32.5720 O.2   120  PHE120     -0.2867
     98  CB        60.7840    3.2370   30.4310 C.3   120  PHE120      0.0534
     99  CG        60.6250    3.1100   28.9330 C.ar  120  PHE120     -0.0203
    100  CD1       59.6340    3.8180   28.2650 C.ar  120  PHE120     -0.0042
    101  CD2       61.4760    2.2920   28.1940 C.ar  120  PHE120     -0.0042
    102  CE1       59.4860    3.7220   26.8770 C.ar  120  PHE120     -0.0003
    103  CE2       61.3420    2.1850   26.8060 C.ar  120  PHE120     -0.0003
    104  CZ        60.3440    2.9030   26.1440 C.ar  120  PHE120     -0.0000
    105  N         64.6050    4.4980   35.2270 N.3   124  HIS124     -0.1226
    106  CA        65.2240    4.2950   33.9260 C.3   124  HIS124      0.1752
    107  C         64.9440    5.4280   32.9430 C.2   124  HIS124      0.2595
    108  O         65.8330    5.8310   32.1920 O.2   124  HIS124     -0.2718
    109  CB        64.8000    2.9440   33.3460 C.3   124  HIS124      0.0759
    110  CG        65.4080    1.7750   34.0580 C.ar  124  HIS124      0.0818
    111  ND1       64.9560    1.3280   35.2820 N.ar  124  HIS124     -0.2268
    112  CD2       66.4680    0.9930   33.7420 C.ar  124  HIS124      0.1154
    113  CE1       65.7110    0.3230   35.6880 C.ar  124  HIS124      0.1986
    114  NE2       66.6360    0.1000   34.7710 N.ar  124  HIS124     -0.2212
    115  N         63.7210    5.9480   32.9470 N.am  125  MET125     -0.1979
    116  CA        63.3900    7.0550   32.0520 C.3   125  MET125      0.1605
    117  C         64.2430    8.2620   32.4470 C.2   125  MET125      0.2287
    118  O         64.7050    9.0120   31.5890 O.2   125  MET125     -0.2864
    119  CB        61.9020    7.4090   32.1550 C.3   125  MET125      0.0413
    120  CG        61.4730    8.6330   31.3440 C.3   125  MET125      0.0598
    121  SD        61.7350    8.4780   29.5560 S.3   125  MET125     -0.1393
    122  CE        60.2410    7.6000   29.0690 C.3   125  MET125      0.0692
    123  N         67.5870    7.8480   30.9770 N.3   128  HIS128     -0.1226
    124  CA        67.4780    8.0380   29.5360 C.3   128  HIS128      0.1752
    125  C         67.3800    9.5170   29.1740 C.2   128  HIS128      0.2595
    126  O         68.0890    9.9920   28.2890 O.2   128  HIS128     -0.2718
    127  CB        66.2500    7.3280   28.9810 C.3   128  HIS128      0.0759
    128  CG        66.0780    7.5080   27.5060 C.ar  128  HIS128      0.0818
    129  ND1       66.8290    6.8170   26.5810 N.ar  128  HIS128     -0.2268
    130  CD2       65.2720    8.3340   26.7960 C.ar  128  HIS128      0.1154
    131  CE1       66.4930    7.2080   25.3640 C.ar  128  HIS128      0.1986
    132  NE2       65.5510    8.1280   25.4680 N.ar  128  HIS128     -0.2212
    133  N         66.4950   10.2380   29.8540 N.am  129  LEU129     -0.1980
    134  CA        66.3100   11.6610   29.5730 C.3   129  LEU129      0.1596
    135  C         67.5420   12.4940   29.9100 C.2   129  LEU129      0.2287
    136  O         67.8150   13.5030   29.2530 O.2   129  LEU129     -0.2864
    137  CB        65.0900   12.1960   30.3230 C.3   129  LEU129      0.0297
    138  CG        63.7590   11.5980   29.8620 C.3   129  LEU129      0.0022
    139  CD1       62.6380   12.1640   30.7130 C.3   129  LEU129      0.0001
    140  CD2       63.5260   11.8910   28.3790 C.3   129  LEU129      0.0001
@<TRIPOS>BOND
     1     4     3    2
     2     3     2    1
     3     1     2    1
     4     2     5    1
     5     8     9    1
     6    11    10    2
     7     6     5    1
     8    32    31    2
     9     5     7    1
    10    24    23    2
    11    29    30    1
    12    23    22    1
    13    31    30    1
    14     9    10    1
    15     9    12    1
    16    10    16   am
    17    30    33    1
    18    14    13   ar
    19    22    21    1
    20    22    25    1
    21    19    18    2
    22    16    17    1
    23    18    21   am
    24    18    17    1
    25    17    20    1
    26    12    13    1
    27    43    44    1
    28    46    45    2
    29    13    15   ar
    30    33    34    1
    31    35    34   ar
    32    35    37   ar
    33    45    44    1
    34    25    26    1
    35    44    47    1
    36    34    36   ar
    37    37    38   ar
    38    36    38   ar
    39    36    39   ar
    40    55    53   ar
    41    55    56   ar
    42    53    50   ar
    43    38    40   ar
    44    26    27    2
    45    26    28   am
    46    56    54   ar
    47    47    48    1
    48    50    48   ar
    49    50    52   ar
    50    39    41   ar
    51    48    49   ar
    52    54    52   ar
    53    52    51   ar
    54    40    42   ar
    55    49    51   ar
    56    41    42   ar
    57   131   132   ar
    58   131   129   ar
    59   132   130   ar
    60    67    65    1
    61    66    65    1
    62    65    64    2
    63   104   103   ar
    64   104   102   ar
    65    64    63    1
    66    74    73    1
    67    74    68    1
    68   129   128   ar
    69    63    62    1
    70   130   128   ar
    71   103   101   ar
    72   102   100   ar
    73    62    61    1
    74    73    72    1
    75    68    69    1
    76    58    61    1
    77    58    59    1
    78    58    57    1
    79   128   127    1
    80    59    60    2
    81    72    69    1
    82   101    99   ar
    83   100    99   ar
    84   126   125    2
    85    84    82   ar
    86    84    85   ar
    87   140   138    1
    88    69    70    1
    89    82    80   ar
    90    99    98    1
    91   127   124    1
    92   122   121    1
    93   125   124    1
    94   125   133   am
    95    85    83   ar
    96   136   135    2
    97   124   123    1
    98   121   120    1
    99   134   133    1
   100   134   135    1
   101   134   137    1
   102    75    70   am
   103    75    76    1
   104    70    71    2
   105   138   137    1
   106   138   139    1
   107    91    90    1
   108    91    92    1
   109    80    79    1
   110    80    81   ar
   111    98    95    1
   112    90    87    1
   113    94    95    1
   114    83    81   ar
   115    93    92    1
   116    79    76    1
   117    89    88    2
   118    78    77    2
   119    76    77    1
   120    95    96    1
   121   120   119    1
   122   118   117    2
   123    88    87    1
   124    87    86    1
   125   116   119    1
   126   116   117    1
   127   116   115    1
   128   108   107    2
   129    96    97    2
   130   107   115   am
   131   107   106    1
   132   109   106    1
   133   109   110    1
   134   112   110   ar
   135   112   114   ar
   136   106   105    1
   137   110   111   ar
   138   114   113   ar
   139   111   113   ar
