@<TRIPOS>MOLECULE
tmp/3tvwB00.pdb
 128 122 0 0 0
SMALL
GASTEIGER

@<TRIPOS>ATOM
      1  N         31.2130  -35.3300   53.7180 N.3   441  ALA441     -0.1245
      2  CA        30.9750  -34.3910   54.8120 C.3   441  ALA441      0.1562
      3  C         31.7640  -33.0740   54.6220 C.2   441  ALA441      0.2260
      4  O         32.8670  -33.0690   54.0750 O.2   441  ALA441     -0.2867
      5  CB        31.3850  -35.0360   56.1250 C.3   441  ALA441      0.0290
      6  N         35.9250  -31.5720   55.9340 N.3   444  VAL444     -0.1245
      7  CA        36.8170  -32.7510   55.8750 C.3   444  VAL444      0.1561
      8  C         37.5360  -32.7640   54.5330 C.2   444  VAL444      0.2260
      9  O         36.8810  -32.6120   53.5090 O.2   444  VAL444     -0.2867
     10  CB        36.0980  -34.1120   56.1220 C.3   444  VAL444      0.0252
     11  CG1       37.0770  -35.2820   56.0270 C.3   444  VAL444      0.0019
     12  CG2       35.3640  -34.1270   57.4510 C.3   444  VAL444      0.0019
     13  N         39.0920  -34.6410   51.5550 N.3   446  PHE446     -0.1241
     14  CA        39.0090  -35.9290   50.8820 C.3   446  PHE446      0.1605
     15  C         40.0760  -35.9220   49.7760 C.2   446  PHE446      0.2264
     16  O         40.6330  -34.8550   49.5130 O.2   446  PHE446     -0.2867
     17  CB        37.6000  -36.1400   50.3120 C.3   446  PHE446      0.0534
     18  CG        36.5810  -36.4560   51.3730 C.ar  446  PHE446     -0.0203
     19  CD1       35.9140  -35.4320   52.0520 C.ar  446  PHE446     -0.0042
     20  CD2       36.2900  -37.7770   51.7140 C.ar  446  PHE446     -0.0042
     21  CE1       34.9610  -35.7280   53.0470 C.ar  446  PHE446     -0.0003
     22  CE2       35.3460  -38.0650   52.7160 C.ar  446  PHE446     -0.0003
     23  CZ        34.6880  -37.0400   53.3680 C.ar  446  PHE446     -0.0000
     24  N         38.2960  -30.3270   59.9770 N.3   475  ARG475     -0.1231
     25  CA        38.3260  -31.2350   61.1260 C.3   475  ARG475      0.1694
     26  C         39.5030  -32.2000   60.9820 C.2   475  ARG475      0.2593
     27  O         40.0050  -32.7310   61.9710 O.2   475  ARG475     -0.2718
     28  CB        37.0060  -32.0100   61.2240 C.3   475  ARG475      0.0321
     29  CG        35.8240  -31.1320   61.6360 C.3   475  ARG475      0.0489
     30  CD        34.4980  -31.8320   61.4750 C.3   475  ARG475      0.2205
     31  NE        34.3250  -32.8800   62.4780 N.pl3 475  ARG475     -0.0865
     32  CZ        33.5760  -33.9620   62.3040 C.cat 475  ARG475      0.5346
     33  NH1       32.9390  -34.1620   61.1530 N.pl3 475  ARG475      0.1354
     34  NH2       33.4670  -34.8620   63.2740 N.pl3 475  ARG475      0.1354
     35  N         39.9350  -32.3960   59.7410 N.am  476  GLY476     -0.1942
     36  CA        41.0600  -33.2400   59.3690 C.3   476  GLY476      0.2014
     37  C         40.8870  -33.8200   57.9870 C.2   476  GLY476      0.2639
     38  O         40.1600  -33.2700   57.1550 O.2   476  GLY476     -0.2714
     39  N         41.5710  -34.9340   57.7310 N.am  477  PHE477     -0.1959
     40  CA        41.4790  -35.6650   56.4670 C.3   477  PHE477      0.1771
     41  C         40.5730  -36.8730   56.7170 C.2   477  PHE477      0.2620
     42  O         40.4930  -37.3470   57.8570 O.2   477  PHE477     -0.2715
     43  CB        42.8750  -36.1420   56.0150 C.3   477  PHE477      0.0574
     44  CG        43.7730  -35.0320   55.5330 C.ar  477  PHE477     -0.0200
     45  CD1       43.8290  -34.6980   54.1890 C.ar  477  PHE477     -0.0042
     46  CD2       44.5550  -34.3050   56.4290 C.ar  477  PHE477     -0.0042
     47  CE1       44.6190  -33.6370   53.7460 C.ar  477  PHE477     -0.0003
     48  CE2       45.3670  -33.2560   55.9770 C.ar  477  PHE477     -0.0003
     49  CZ        45.4090  -32.9500   54.6330 C.ar  477  PHE477     -0.0000
     50  N         39.9230  -37.3970   55.6620 N.am  478  SER478     -0.1936
     51  CA        39.1390  -38.6110   55.8060 C.3   478  SER478      0.2055
     52  C         40.1020  -39.8110   55.9210 C.2   478  SER478      0.2644
     53  O         40.8270  -40.1350   54.9690 O.2   478  SER478     -0.2714
     54  CB        38.2050  -38.8020   54.6250 C.3   478  SER478      0.2130
     55  OG        37.3810  -39.9240   54.9110 O.3   478  SER478     -0.2179
     56  N         40.1460  -40.3980   57.1100 N.am  479  GLY479     -0.1939
     57  CA        40.9980  -41.5440   57.3920 C.3   479  GLY479      0.2014
     58  C         40.3290  -42.8830   57.1570 C.2   479  GLY479      0.2639
     59  O         40.8990  -43.9120   57.5150 O.2   479  GLY479     -0.2714
     60  N         39.1290  -42.8600   56.5630 N.am  480  GLY480     -0.1954
     61  CA        38.3530  -44.0500   56.2450 C.3   480  GLY480      0.1869
     62  C         38.9710  -44.8820   55.1490 C.2   480  GLY480      0.2309
     63  O         39.7910  -44.3800   54.3760 O.2   480  GLY480     -0.2863
     64  N         42.2600  -29.1630   63.4150 N.3   517  ARG517     -0.1245
     65  CA        42.6070  -30.2650   64.3200 C.3   517  ARG517      0.1563
     66  C         43.9030  -30.9750   63.9140 C.2   517  ARG517      0.2260
     67  O         44.5500  -30.5770   62.9520 O.2   517  ARG517     -0.2867
     68  CB        41.4380  -31.2640   64.4420 C.3   517  ARG517      0.0307
     69  CG        40.0990  -30.6490   64.8130 C.3   517  ARG517      0.0489
     70  CD        40.0270  -30.4080   66.2890 C.3   517  ARG517      0.2205
     71  NE        38.8750  -29.5890   66.6560 N.pl3 517  ARG517     -0.0865
     72  CZ        38.6940  -29.0790   67.8640 C.cat 517  ARG517      0.5346
     73  NH1       39.5830  -29.2980   68.8230 N.pl3 517  ARG517      0.1354
     74  NH2       37.6220  -28.3420   68.1250 N.pl3 517  ARG517      0.1354
     75  N         44.6050  -31.0810   69.1530 N.3   545  VAL545     -0.1231
     76  CA        44.9790  -32.3380   68.4580 C.3   545  VAL545      0.1692
     77  C         43.7040  -33.1360   68.0810 C.2   545  VAL545      0.2592
     78  O         43.5060  -33.4930   66.9190 O.2   545  VAL545     -0.2718
     79  CB        46.0230  -33.1870   69.2350 C.3   545  VAL545      0.0266
     80  CG1       46.4680  -34.3930   68.4060 C.3   545  VAL545      0.0020
     81  CG2       47.2250  -32.3420   69.6540 C.3   545  VAL545      0.0020
     82  N         42.8230  -33.3630   69.0650 N.am  546  LEU546     -0.1966
     83  CA        41.5510  -34.0340   68.8440 C.3   546  LEU546      0.1728
     84  C         40.4100  -33.0390   69.1110 C.2   546  LEU546      0.2616
     85  O         40.6570  -31.9040   69.5310 O.2   546  LEU546     -0.2715
     86  CB        41.4500  -35.2260   69.8010 C.3   546  LEU546      0.0311
     87  CG        42.2560  -36.5190   69.5380 C.3   546  LEU546      0.0022
     88  CD1       43.2630  -36.4880   68.3950 C.3   546  LEU546      0.0001
     89  CD2       42.8150  -37.0770   70.8030 C.3   546  LEU546      0.0001
     90  N         39.1710  -33.4580   68.8370 N.am  547  GLU547     -0.1977
     91  CA        37.9620  -32.6860   69.1420 C.3   547  GLU547      0.1602
     92  C         37.6520  -33.0390   70.6200 C.2   547  GLU547      0.2287
     93  O         38.1300  -34.0870   71.0790 O.2   547  GLU547     -0.2864
     94  CB        36.7880  -33.0700   68.2020 C.3   547  GLU547      0.0415
     95  CG        37.1090  -32.8480   66.7320 C.3   547  GLU547      0.1163
     96  CD        36.0060  -33.0180   65.7070 C.2   547  GLU547      0.3649
     97  OE1       35.7650  -32.0550   64.9430 O.co2 547  GLU547     -0.2457
     98  OE2       35.4400  -34.1310   65.6100 O.co2 547  GLU547     -0.2457
     99  N         35.3820  -34.6200   72.2640 N.3   549  GLU549     -0.1231
    100  CA        34.9690  -36.0310   72.3830 C.3   549  GLU549      0.1699
    101  C         36.1770  -36.9890   72.4140 C.2   549  GLU549      0.2592
    102  O         36.2130  -37.9210   73.2270 O.2   549  GLU549     -0.2718
    103  CB        33.9930  -36.4290   71.2630 C.3   549  GLU549      0.0402
    104  CG        33.0900  -37.5970   71.6510 C.3   549  GLU549      0.1161
    105  CD        32.5980  -38.5380   70.5620 C.2   549  GLU549      0.3649
    106  OE1       32.4010  -38.0810   69.4090 O.co2 549  GLU549     -0.2457
    107  OE2       32.3590  -39.7280   70.8830 O.co2 549  GLU549     -0.2457
    108  N         37.1490  -36.7210   71.5440 N.am  550  GLY550     -0.1957
    109  CA        38.3890  -37.4840   71.4520 C.3   550  GLY550      0.1869
    110  C         39.3020  -37.3110   72.6520 C.2   550  GLY550      0.2309
    111  O         39.7690  -38.3060   73.2200 O.2   550  GLY550     -0.2863
    112  N         37.9560  -39.0750   75.7790 N.3   553  GLU553     -0.1231
    113  CA        38.1230  -40.5180   75.5550 C.3   553  GLU553      0.1699
    114  C         39.5320  -41.0010   75.9560 C.2   553  GLU553      0.2592
    115  O         39.6730  -42.0950   76.5130 O.2   553  GLU553     -0.2718
    116  CB        37.8290  -40.8730   74.0940 C.3   553  GLU553      0.0402
    117  CG        37.5320  -42.3340   73.8510 C.3   553  GLU553      0.1161
    118  CD        36.1270  -42.4450   73.3030 C.2   553  GLU553      0.3649
    119  OE1       35.1900  -42.6710   74.1030 O.co2 553  GLU553     -0.2457
    120  OE2       35.9470  -42.2190   72.0830 O.co2 553  GLU553     -0.2457
    121  N         40.5540  -40.1650   75.7240 N.am  554  ILE554     -0.1980
    122  CA        41.9420  -40.4700   76.0680 C.3   554  ILE554      0.1595
    123  C         42.3770  -39.9260   77.4480 C.2   554  ILE554      0.2287
    124  O         43.0490  -40.6410   78.1930 O.2   554  ILE554     -0.2864
    125  CB        42.9160  -40.0860   74.8990 C.3   554  ILE554      0.0276
    126  CG1       44.3390  -40.6100   75.1220 C.3   554  ILE554      0.0022
    127  CG2       42.9140  -38.6070   74.5130 C.3   554  ILE554      0.0022
    128  CD1       44.7590  -41.6720   74.1620 C.3   554  ILE554      0.0001
@<TRIPOS>BOND
     1    16    15    2
     2    15    14    1
     3    17    14    1
     4    17    18    1
     5    14    13    1
     6    18    20   ar
     7    18    19   ar
     8    20    22   ar
     9    19    21   ar
    10    22    23   ar
    11    21    23   ar
    12     9     8    2
    13     1     2    1
    14    47    45   ar
    15    47    49   ar
    16     4     3    2
    17    45    44   ar
    18    63    62    2
    19     8     7    1
    20     3     2    1
    21    54    55    1
    22    54    51    1
    23    49    48   ar
    24     2     5    1
    25    53    52    2
    26    62    61    1
    27    44    43    1
    28    44    46   ar
    29    50    51    1
    30    50    41   am
    31    51    52    1
    32     7     6    1
    33     7    10    1
    34    52    56   am
    35    48    46   ar
    36    43    40    1
    37    11    10    1
    38    10    12    1
    39    61    60    1
    40    40    41    1
    41    40    39    1
    42    60    58   am
    43    41    42    2
    44    56    57    1
    45    38    37    2
    46    58    57    1
    47    58    59    2
    48    39    37   am
    49    37    36    1
    50    36    35    1
    51    35    26   am
    52    24    25    1
    53    26    25    1
    54    26    27    2
    55    25    28    1
    56    33    32    1
    57    28    29    1
    58    30    29    1
    59    30    31    1
    60    32    31    2
    61    32    34    1
    62    67    66    2
    63    64    65    1
    64    66    65    1
    65    65    68    1
    66    68    69    1
    67    69    70    1
    68    97    96   ar
    69    98    96   ar
    70    96    95    1
    71    70    71    1
    72    71    72    2
    73    95    94    1
    74    78    77    2
    75    72    74    1
    76    72    73    1
    77    77    76    1
    78    77    82   am
    79    94    91    1
    80    88    87    1
    81    80    79    1
    82    76    75    1
    83    76    79    1
    84    90    84   am
    85    90    91    1
    86    83    82    1
    87    83    84    1
    88    83    86    1
    89    84    85    2
    90    91    92    1
    91    79    81    1
    92   106   105   ar
    93    87    86    1
    94    87    89    1
    95   105   107   ar
    96   105   104    1
    97    92    93    2
    98   103   104    1
    99   103   100    1
   100   109   108    1
   101   109   110    1
   102   108   101   am
   103   120   118   ar
   104    99   100    1
   105   100   101    1
   106   101   102    2
   107   110   111    2
   108   118   117    1
   109   118   119   ar
   110   117   116    1
   111   116   113    1
   112   128   126    1
   113   127   125    1
   114   125   126    1
   115   125   122    1
   116   113   112    1
   117   113   114    1
   118   121   114   am
   119   121   122    1
   120   114   115    2
   121   122   123    1
   122   123   124    2
