@<TRIPOS>MOLECULE
tmp/3tvxA00.pdb
 173 169 0 0 0
SMALL
GASTEIGER

@<TRIPOS>ATOM
      1  N         33.7740   22.9780  -26.1130 N.3    83  TYR83      -0.1227
      2  CA        33.9110   21.5330  -26.0150 C.3    83  TYR83       0.1736
      3  C         33.1350   20.9450  -24.8510 C.2    83  TYR83       0.2595
      4  O         32.3920   19.9870  -25.0300 O.2    83  TYR83      -0.2718
      5  CB        35.3830   21.1420  -25.9210 C.3    83  TYR83       0.0548
      6  CG        35.6200   19.6610  -25.7350 C.ar   83  TYR83      -0.0200
      7  CD1       35.7360   18.8090  -26.8350 C.ar   83  TYR83      -0.0009
      8  CD2       35.7380   19.1120  -24.4580 C.ar   83  TYR83      -0.0009
      9  CE1       35.9600   17.4510  -26.6640 C.ar   83  TYR83       0.0417
     10  CE2       35.9580   17.7600  -24.2780 C.ar   83  TYR83       0.0417
     11  CZ        36.0690   16.9340  -25.3810 C.ar   83  TYR83       0.1957
     12  OH        36.2960   15.5920  -25.1930 O.3    83  TYR83      -0.2866
     13  N         33.3180   21.5080  -23.6600 N.am   84  HIS84      -0.1975
     14  CA        32.7390   20.9420  -22.4430 C.3    84  HIS84       0.1656
     15  C         31.2920   21.3640  -22.2180 C.2    84  HIS84       0.2291
     16  O         30.9520   21.8710  -21.1500 O.2    84  HIS84      -0.2864
     17  CB        33.5890   21.3010  -21.2290 C.3    84  HIS84       0.0771
     18  CG        34.8810   20.5490  -21.1460 C.ar   84  HIS84       0.0820
     19  ND1       36.1090   21.1670  -21.2410 N.ar   84  HIS84      -0.2267
     20  CD2       35.1360   19.2330  -20.9630 C.ar   84  HIS84       0.1154
     21  CE1       37.0650   20.2660  -21.1210 C.ar   84  HIS84       0.1986
     22  NE2       36.5020   19.0830  -20.9550 N.ar   84  HIS84      -0.2212
     23  N         29.4110   17.0000  -25.2330 N.3    88  HIS88      -0.1241
     24  CA        30.4850   16.1910  -24.6510 C.3    88  HIS88       0.1621
     25  C         29.9470   15.1740  -23.6330 C.2    88  HIS88       0.2264
     26  O         30.4110   14.0310  -23.5850 O.2    88  HIS88      -0.2867
     27  CB        31.5510   17.0820  -24.0010 C.3    88  HIS88       0.0745
     28  CG        32.5540   16.3220  -23.1850 C.ar   88  HIS88       0.0817
     29  ND1       33.5440   15.5480  -23.7500 N.ar   88  HIS88      -0.2268
     30  CD2       32.7040   16.2000  -21.8440 C.ar   88  HIS88       0.1154
     31  CE1       34.2670   14.9930  -22.7940 C.ar   88  HIS88       0.1986
     32  NE2       33.7780   15.3720  -21.6280 N.ar   88  HIS88      -0.2212
     33  N         42.4400   14.7320  -14.8160 N.3   197  MET197     -0.1245
     34  CA        43.5980   14.2350  -15.5560 C.3   197  MET197      0.1570
     35  C         44.8400   13.9560  -14.7100 C.2   197  MET197      0.2261
     36  O         45.6580   13.1210  -15.0800 O.2   197  MET197     -0.2867
     37  CB        43.9330   15.1570  -16.7200 C.3   197  MET197      0.0387
     38  CG        43.1240   14.8440  -17.9660 C.3   197  MET197      0.0595
     39  SD        43.4360   13.1710  -18.5620 S.3   197  MET197     -0.1393
     40  CE        45.2220   13.2100  -18.7960 C.3   197  MET197      0.0692
     41  N         35.8970    9.1520  -21.4870 N.3   242  ASP242     -0.1225
     42  CA        36.1760   10.5850  -21.4310 C.3   242  ASP242      0.1805
     43  C         37.2750   10.9700  -22.4240 C.2   242  ASP242      0.2597
     44  O         37.2330   12.0400  -23.0340 O.2   242  ASP242     -0.2718
     45  CB        36.5740   10.9920  -20.0120 C.3   242  ASP242      0.1424
     46  CG        36.4330   12.4810  -19.7680 C.2   242  ASP242      0.3668
     47  OD1       35.6930   13.1500  -20.5160 O.co2 242  ASP242     -0.2456
     48  OD2       37.0550   12.9870  -18.8100 O.co2 242  ASP242     -0.2456
     49  N         38.2550   10.0890  -22.5770 N.am  243  LEU243     -0.1979
     50  CA        39.3130   10.2740  -23.5530 C.3   243  LEU243      0.1596
     51  C         39.1460    9.2720  -24.7000 C.2   243  LEU243      0.2287
     52  O         40.0930    8.5820  -25.0780 O.2   243  LEU243     -0.2864
     53  CB        40.6810   10.1160  -22.8840 C.3   243  LEU243      0.0297
     54  CG        41.0120   11.0250  -21.6930 C.3   243  LEU243      0.0022
     55  CD1       42.3600   10.6440  -21.1160 C.3   243  LEU243      0.0001
     56  CD2       40.9820   12.5110  -22.0590 C.3   243  LEU243      0.0001
     57  N         37.5640   10.2740  -27.6440 N.3   245  ASN245     -0.1226
     58  CA        37.5240   11.0690  -28.8670 C.3   245  ASN245      0.1770
     59  C         38.4740   10.5790  -29.9640 C.2   245  ASN245      0.2439
     60  O         38.0310   10.3690  -31.0880 O.2   245  ASN245     -0.2733
     61  CB        37.7410   12.5600  -28.5700 C.3   245  ASN245      0.1168
     62  CG        36.5090   13.2330  -27.9790 C.2   245  ASN245      0.2627
     63  OD1       36.5470   14.4200  -27.6680 O.2   245  ASN245     -0.2716
     64  ND2       35.4100   12.4810  -27.8290 N.am  245  ASN245     -0.0877
     65  N         39.7710   10.3750  -29.6440 N.am  246  PRO246     -0.2729
     66  CA        40.6960    9.9270  -30.6860 C.3   246  PRO246      0.1401
     67  C         40.5410    8.4620  -31.1040 C.2   246  PRO246      0.2269
     68  O         41.3340    7.9780  -31.9130 O.2   246  PRO246     -0.2865
     69  CB        42.0750   10.1470  -30.0510 C.3   246  PRO246      0.0296
     70  CG        41.8390   11.0320  -28.8710 C.3   246  PRO246      0.0237
     71  CD        40.4900   10.6450  -28.3880 C.3   246  PRO246      0.0939
     72  N         36.4390   12.7330  -34.5750 N.3   253  TYR253     -0.1241
     73  CA        37.6230   13.1230  -33.8060 C.3   253  TYR253      0.1605
     74  C         38.1350   14.5120  -34.1670 C.2   253  TYR253      0.2264
     75  O         38.4880   15.2980  -33.2860 O.2   253  TYR253     -0.2867
     76  CB        38.7200   12.0650  -33.9840 C.3   253  TYR253      0.0534
     77  CG        40.0670   12.3490  -33.3410 C.ar  253  TYR253     -0.0201
     78  CD1       40.1810   13.1350  -32.2010 C.ar  253  TYR253     -0.0009
     79  CD2       41.2280   11.7830  -33.8600 C.ar  253  TYR253     -0.0009
     80  CE1       41.4130   13.3810  -31.6180 C.ar  253  TYR253      0.0417
     81  CE2       42.4700   12.0180  -33.2760 C.ar  253  TYR253      0.0417
     82  CZ        42.5510   12.8200  -32.1560 C.ar  253  TYR253      0.1957
     83  OH        43.7710   13.0580  -31.5700 O.3   253  TYR253     -0.2866
     84  N         35.8230   17.0500  -32.6940 N.3   256  TRP256     -0.1227
     85  CA        36.1380   17.1380  -31.2740 C.3   256  TRP256      0.1737
     86  C         37.3960   17.9620  -31.0550 C.2   256  TRP256      0.2596
     87  O         37.4400   18.8070  -30.1580 O.2   256  TRP256     -0.2718
     88  CB        36.3330   15.7530  -30.6540 C.3   256  TRP256      0.0564
     89  CG        35.0870   14.9090  -30.5650 C.ar  256  TRP256      0.0003
     90  CD1       34.9250   13.6360  -31.0390 C.ar  256  TRP256      0.0946
     91  CD2       33.8400   15.2740  -29.9620 C.ar  256  TRP256      0.0152
     92  NE1       33.6550   13.1910  -30.7760 N.ar  256  TRP256     -0.2442
     93  CE2       32.9670   14.1740  -30.1140 C.ar  256  TRP256      0.0810
     94  CE3       33.3720   16.4250  -29.3130 C.ar  256  TRP256      0.0012
     95  CZ2       31.6520   14.1880  -29.6340 C.ar  256  TRP256      0.0191
     96  CZ3       32.0630   16.4430  -28.8400 C.ar  256  TRP256      0.0001
     97  CH2       31.2180   15.3310  -29.0050 C.ar  256  TRP256      0.0015
     98  N         38.4110   17.7150  -31.8780 N.am  257  THR257     -0.1953
     99  CA        39.6890   18.4000  -31.7540 C.3   257  THR257      0.1897
    100  C         39.5180   19.8940  -31.9800 C.2   257  THR257      0.2313
    101  O         40.1580   20.7100  -31.3120 O.2   257  THR257     -0.2863
    102  CB        40.7340   17.8200  -32.7270 C.3   257  THR257      0.1794
    103  OG1       40.9730   16.4450  -32.4010 O.3   257  THR257     -0.2208
    104  CG2       42.0500   18.5810  -32.6480 C.3   257  THR257      0.0378
    105  N         37.8310   21.3830  -28.7930 N.3   260  ILE260     -0.1231
    106  CA        38.7390   21.4960  -27.6420 C.3   260  ILE260      0.1692
    107  C         39.7710   22.6250  -27.7820 C.2   260  ILE260      0.2591
    108  O         40.0950   23.2850  -26.8020 O.2   260  ILE260     -0.2718
    109  CB        39.4250   20.1340  -27.2730 C.3   260  ILE260      0.0266
    110  CG1       40.0890   20.1980  -25.8950 C.3   260  ILE260      0.0019
    111  CG2       40.4540   19.7070  -28.3170 C.3   260  ILE260      0.0020
    112  CD1       39.1430   20.0130  -24.7170 C.3   260  ILE260      0.0001
    113  N         40.2680   22.8560  -28.9950 N.am  261  MET261     -0.1979
    114  CA        41.2610   23.9070  -29.2250 C.3   261  MET261      0.1605
    115  C         40.6470   25.2970  -29.1190 C.2   261  MET261      0.2287
    116  O         41.2740   26.2150  -28.5990 O.2   261  MET261     -0.2864
    117  CB        41.9590   23.7260  -30.5760 C.3   261  MET261      0.0413
    118  CG        42.8930   22.5330  -30.6370 C.3   261  MET261      0.0598
    119  SD        43.9770   22.3590  -29.1940 S.3   261  MET261     -0.1393
    120  CE        45.3260   23.4680  -29.5710 C.3   261  MET261      0.0692
    121  N         40.3500   25.7670  -25.5480 N.3   264  PHE264     -0.1241
    122  CA        41.7120   25.9630  -25.0710 C.3   264  PHE264      0.1605
    123  C         42.2340   27.3670  -25.3650 C.2   264  PHE264      0.2264
    124  O         42.7560   28.0330  -24.4740 O.2   264  PHE264     -0.2867
    125  CB        42.6420   24.9090  -25.6740 C.3   264  PHE264      0.0534
    126  CG        42.6800   23.6060  -24.9120 C.ar  264  PHE264     -0.0203
    127  CD1       41.6930   23.2830  -23.9740 C.ar  264  PHE264     -0.0042
    128  CD2       43.6970   22.6860  -25.1490 C.ar  264  PHE264     -0.0042
    129  CE1       41.7320   22.0780  -23.2730 C.ar  264  PHE264     -0.0003
    130  CE2       43.7420   21.4740  -24.4590 C.ar  264  PHE264     -0.0003
    131  CZ        42.7530   21.1700  -23.5160 C.ar  264  PHE264     -0.0000
    132  N         49.1530   24.4460  -24.3640 N.3   281  MET281     -0.1245
    133  CA        48.2490   24.2700  -25.5120 C.3   281  MET281      0.1570
    134  C         47.2070   25.3790  -25.6700 C.2   281  MET281      0.2261
    135  O         46.2770   25.2510  -26.4730 O.2   281  MET281     -0.2867
    136  CB        47.5600   22.8970  -25.4800 C.3   281  MET281      0.0387
    137  CG        48.5010   21.7140  -25.6400 C.3   281  MET281      0.0595
    138  SD        47.7000   20.1390  -25.2860 S.3   281  MET281     -0.1393
    139  CE        47.4720   20.2680  -23.5060 C.3   281  MET281      0.0692
    140  N         50.1910   18.3380  -30.8190 N.3   292  SER292     -0.1202
    141  CA        49.5620   18.1420  -29.5190 C.3   292  SER292      0.2020
    142  C         48.7890   16.8350  -29.4350 C.2   292  SER292      0.2618
    143  O         48.8950   16.1180  -28.4410 O.2   292  SER292     -0.2717
    144  CB        48.6400   19.3170  -29.1910 C.3   292  SER292      0.2103
    145  OG        49.3830   20.5030  -28.9760 O.3   292  SER292     -0.2182
    146  N         48.0230   16.5270  -30.4790 N.am  293  GLN293     -0.1979
    147  CA        47.2300   15.3000  -30.5160 C.3   293  GLN293      0.1601
    148  C         48.0940   14.0420  -30.6030 C.2   293  GLN293      0.2287
    149  O         47.7180   12.9930  -30.0920 O.2   293  GLN293     -0.2864
    150  CB        46.2240   15.3300  -31.6680 C.3   293  GLN293      0.0394
    151  CG        45.1130   16.3710  -31.5180 C.3   293  GLN293      0.0908
    152  CD        44.2340   16.1560  -30.2820 C.2   293  GLN293      0.2608
    153  OE1       43.8820   15.0270  -29.9440 O.2   293  GLN293     -0.2717
    154  NE2       43.8740   17.2490  -29.6130 N.am  293  GLN293     -0.0878
    155  N         49.6080   13.7230  -27.1070 N.3   296  PHE296     -0.1241
    156  CA        48.4750   13.2820  -26.2990 C.3   296  PHE296      0.1605
    157  C         48.2010   11.7990  -26.4670 C.2   296  PHE296      0.2264
    158  O         48.1150   11.0710  -25.4780 O.2   296  PHE296     -0.2867
    159  CB        47.2270   14.0880  -26.6760 C.3   296  PHE296      0.0534
    160  CG        46.0240   13.8240  -25.8050 C.ar  296  PHE296     -0.0203
    161  CD1       46.1230   13.8390  -24.4180 C.ar  296  PHE296     -0.0042
    162  CD2       44.7780   13.6030  -26.3800 C.ar  296  PHE296     -0.0042
    163  CE1       45.0020   13.6110  -23.6150 C.ar  296  PHE296     -0.0003
    164  CE2       43.6530   13.3770  -25.5850 C.ar  296  PHE296     -0.0003
    165  CZ        43.7700   13.3790  -24.2000 C.ar  296  PHE296     -0.0000
    166  N         49.3660    9.5190  -23.4530 N.3   300  ILE300     -0.1245
    167  CA        48.1720    9.3520  -22.6230 C.3   300  ILE300      0.1561
    168  C         47.1590    8.3620  -23.2020 C.2   300  ILE300      0.2260
    169  O         46.7990    7.3900  -22.5390 O.2   300  ILE300     -0.2867
    170  CB        47.4700   10.7280  -22.3150 C.3   300  ILE300      0.0252
    171  CG1       48.4420   11.7610  -21.7030 C.3   300  ILE300      0.0019
    172  CG2       46.2250   10.5390  -21.4570 C.3   300  ILE300      0.0019
    173  CD1       49.0800   11.3700  -20.3740 C.3   300  ILE300      0.0001
@<TRIPOS>BOND
     1    72    73    1
     2    74    73    1
     3    74    75    2
     4    76    73    1
     5    76    77    1
     6    79    77   ar
     7    79    81   ar
     8    77    78   ar
     9    81    82   ar
    10   102   104    1
    11   102   103    1
    12   102    99    1
    13    84    85    1
    14    78    80   ar
    15    82    80   ar
    16    82    83    1
    17   100    99    1
    18   100   101    2
    19    68    67    2
    20    98    99    1
    21    98    86   am
    22   150   151    1
    23   150   147    1
    24   151   152    1
    25    85    86    1
    26    85    88    1
    27    67    66    1
    28    60    59    2
    29    86    87    2
    30    90    92   ar
    31    90    89   ar
    32   140   141    1
    33    92    93   ar
    34    66    69    1
    35    66    65    1
    36    88    89    1
    37   118   117    1
    38   118   119    1
    39   148   147    1
    40   148   149    2
    41   117   114    1
    42    89    91   ar
    43   147   146    1
    44   146   142   am
    45   152   153    2
    46   152   154   am
    47    93    91   ar
    48    93    95   ar
    49    69    70    1
    50    59    65   am
    51    59    58    1
    52    91    94   ar
    53    65    71    1
    54    95    97   ar
    55   120   119    1
    56   141   142    1
    57   141   144    1
    58   142   143    2
    59    94    96   ar
    60   114   115    1
    61   114   113    1
    62   144   145    1
    63   115   116    2
    64    97    96   ar
    65   113   107   am
    66    70    71    1
    67    58    61    1
    68    58    57    1
    69   105   106    1
    70    61    62    1
    71   111   109    1
    72    62    64   am
    73    62    63    2
    74   107   106    1
    75   107   108    2
    76   106   109    1
    77   109   110    1
    78   155   156    1
    79     7     9   ar
    80     7     6   ar
    81   159   156    1
    82   159   160    1
    83     9    11   ar
    84   135   134    2
    85   157   156    1
    86   157   158    2
    87   162   160   ar
    88   162   164   ar
    89     1     2    1
    90     2     5    1
    91     2     3    1
    92     5     6    1
    93   110   112    1
    94   160   161   ar
    95     6     8   ar
    96   125   122    1
    97   125   126    1
    98   134   133    1
    99   137   136    1
   100   137   138    1
   101   164   165   ar
   102   121   122    1
   103   133   136    1
   104   133   132    1
   105    11    12    1
   106    11    10   ar
   107   123   122    1
   108   123   124    2
   109   138   139    1
   110    23    24    1
   111   128   126   ar
   112   128   130   ar
   113    52    51    2
   114     4     3    2
   115   126   127   ar
   116     3    13   am
   117    51    50    1
   118    24    27    1
   119    24    25    1
   120   130   131   ar
   121     8    10   ar
   122   161   163   ar
   123   165   163   ar
   124    27    28    1
   125   127   129   ar
   126    29    28   ar
   127    29    31   ar
   128    13    14    1
   129    25    26    2
   130    50    53    1
   131    50    49    1
   132   131   129   ar
   133   166   167    1
   134   168   167    1
   135   168   169    2
   136    28    30   ar
   137    44    43    2
   138    53    54    1
   139    31    32   ar
   140   167   170    1
   141    49    43   am
   142    14    15    1
   143    14    17    1
   144    43    42    1
   145   170   171    1
   146   170   172    1
   147    15    16    2
   148    56    54    1
   149    30    32   ar
   150   171   173    1
   151    54    55    1
   152    41    42    1
   153    42    45    1
   154    19    18   ar
   155    19    21   ar
   156    17    18    1
   157    18    20   ar
   158    21    22   ar
   159    20    22   ar
   160    47    46   ar
   161    45    46    1
   162    46    48   ar
   163    40    39    1
   164    39    38    1
   165    38    37    1
   166    37    34    1
   167    34    33    1
   168    34    35    1
   169    36    35    2
