@<TRIPOS>MOLECULE
tmp/3tvyA00.pdb
 99 99 0 0 0
SMALL
GASTEIGER

@<TRIPOS>ATOM
      1  N        -31.8960   -6.7750   -4.4950 N.3   177  ASN177     -0.1226
      2  CA       -33.3190   -6.9550   -4.2450 C.3   177  ASN177      0.1770
      3  C        -33.4500   -7.9250   -3.0820 C.2   177  ASN177      0.2439
      4  O        -33.0880   -9.1160   -3.2330 O.2   177  ASN177     -0.2733
      5  CB       -34.0540   -7.4620   -5.5060 C.3   177  ASN177      0.1168
      6  CG       -35.5710   -7.5920   -5.3120 C.2   177  ASN177      0.2627
      7  OD1      -36.0660   -7.6950   -4.1810 O.2   177  ASN177     -0.2716
      8  ND2      -36.3090   -7.6390   -6.4250 N.am  177  ASN177     -0.0877
      9  N        -33.9350   -7.4170   -1.9140 N.am  178  PRO178     -0.2718
     10  CA       -34.0690   -8.2520   -0.7260 C.3   178  PRO178      0.1535
     11  C        -35.2820   -9.1810   -0.7080 C.2   178  PRO178      0.2599
     12  O        -35.3480  -10.0440    0.1580 O.2   178  PRO178     -0.2715
     13  CB       -34.1450   -7.2310    0.4290 C.3   178  PRO178      0.0310
     14  CG       -34.7350   -5.9940   -0.1780 C.3   178  PRO178      0.0237
     15  CD       -34.2750   -5.9980   -1.6390 C.3   178  PRO178      0.0939
     16  N        -36.1960   -9.0390   -1.6730 N.am  179  TYR179     -0.1960
     17  CA       -37.4930   -9.7370   -1.6510 C.3   179  TYR179      0.1771
     18  C        -37.5720  -10.8730   -2.6820 C.2   179  TYR179      0.2619
     19  O        -38.6380  -11.3930   -2.9640 O.2   179  TYR179     -0.2715
     20  CB       -38.6470   -8.7280   -1.8370 C.3   179  TYR179      0.0574
     21  CG       -38.5490   -7.5870   -0.8480 C.ar  179  TYR179     -0.0198
     22  CD1      -38.0870   -7.8120    0.4570 C.ar  179  TYR179     -0.0009
     23  CD2      -38.8890   -6.2870   -1.2150 C.ar  179  TYR179     -0.0009
     24  CE1      -37.9760   -6.7860    1.3690 C.ar  179  TYR179      0.0417
     25  CE2      -38.7910   -5.2450   -0.3050 C.ar  179  TYR179      0.0417
     26  CZ       -38.3320   -5.4990    0.9870 C.ar  179  TYR179      0.1957
     27  OH       -38.2310   -4.4690    1.8960 O.3   179  TYR179     -0.2866
     28  N        -36.4250  -11.2590   -3.2400 N.am  180  ILE180     -0.1963
     29  CA       -36.3660  -12.4740   -4.0490 C.3   180  ILE180      0.1727
     30  C        -35.4170  -13.5160   -3.4440 C.2   180  ILE180      0.2617
     31  O        -34.5550  -13.1990   -2.6220 O.2   180  ILE180     -0.2715
     32  CB       -35.9820  -12.1780   -5.5000 C.3   180  ILE180      0.0290
     33  CG1      -34.5720  -11.5720   -5.5420 C.3   180  ILE180      0.0022
     34  CG2      -37.0630  -11.2780   -6.1730 C.3   180  ILE180      0.0023
     35  CD1      -34.0440  -11.2970   -6.9310 C.3   180  ILE180      0.0001
     36  N        -35.5580  -14.7650   -3.8600 N.am  181  SER181     -0.1936
     37  CA       -34.7410  -15.8350   -3.2810 C.3   181  SER181      0.2055
     38  C        -33.2930  -15.8770   -3.8090 C.2   181  SER181      0.2644
     39  O        -32.4260  -16.4850   -3.1640 O.2   181  SER181     -0.2714
     40  CB       -35.4280  -17.1930   -3.4970 C.3   181  SER181      0.2130
     41  OG       -35.5980  -17.3930   -4.8770 O.3   181  SER181     -0.2179
     42  N        -33.0400  -15.2880   -4.9800 N.am  182  THR182     -0.1936
     43  CA       -31.7010  -15.2570   -5.5710 C.3   182  THR182      0.2028
     44  C        -30.7300  -14.6730   -4.5660 C.2   182  THR182      0.2643
     45  O        -30.9610  -13.5990   -4.0110 O.2   182  THR182     -0.2714
     46  CB       -31.6380  -14.3970   -6.8530 C.3   182  THR182      0.1808
     47  OG1      -32.6970  -14.7580   -7.7370 O.3   182  THR182     -0.2208
     48  CG2      -30.2960  -14.5740   -7.6060 C.3   182  THR182      0.0379
     49  N        -29.6320  -15.3660   -4.3410 N.am  183  SER183     -0.1935
     50  CA       -28.6530  -14.8830   -3.3680 C.3   183  SER183      0.2055
     51  C        -28.1080  -13.5150   -3.7750 C.2   183  SER183      0.2643
     52  O        -28.1760  -13.1150   -4.9450 O.2   183  SER183     -0.2714
     53  CB       -27.5010  -15.8710   -3.2200 C.3   183  SER183      0.2130
     54  OG       -26.6810  -15.8440   -4.3700 O.3   183  SER183     -0.2179
     55  N        -27.5700  -12.7950   -2.7970 N.am  184  TYR184     -0.1973
     56  CA       -26.9470  -11.5200   -3.0870 C.3   184  TYR184      0.1639
     57  C        -25.6970  -11.6880   -3.9840 C.2   184  TYR184      0.2290
     58  O        -25.4370  -10.8390   -4.8190 O.2   184  TYR184     -0.2864
     59  CB       -26.6550  -10.7670   -1.7880 C.3   184  TYR184      0.0560
     60  CG       -27.9180  -10.2160   -1.0970 C.ar  184  TYR184     -0.0198
     61  CD1      -28.8850   -9.4640   -1.7900 C.ar  184  TYR184     -0.0009
     62  CD2      -28.1150  -10.4330    0.2480 C.ar  184  TYR184     -0.0009
     63  CE1      -30.0440   -8.9750   -1.1160 C.ar  184  TYR184      0.0417
     64  CE2      -29.2170   -9.9710    0.9120 C.ar  184  TYR184      0.0417
     65  CZ       -30.1820   -9.2330    0.2510 C.ar  184  TYR184      0.1957
     66  OH       -31.2430   -8.7890    1.0090 O.3   184  TYR184     -0.2866
     67  N        -31.2480   -7.3120    5.2440 N.3   278  ASP278     -0.1239
     68  CA       -32.6910   -7.4540    5.1670 C.3   278  ASP278      0.1674
     69  C        -33.2860   -6.2000    5.8020 C.2   278  ASP278      0.2266
     70  O        -32.9330   -5.8760    6.9340 O.2   278  ASP278     -0.2867
     71  CB       -33.1160   -8.7150    5.9400 C.3   278  ASP278      0.1410
     72  CG       -34.6160   -8.9820    5.8680 C.2   278  ASP278      0.3668
     73  OD1      -34.9610  -10.1100    5.5260 O.co2 278  ASP278     -0.2456
     74  OD2      -35.4600   -8.0910    6.1410 O.co2 278  ASP278     -0.2456
     75  N        -27.7110   -9.0970    7.9260 N.3   284  VAL284     -0.1231
     76  CA       -26.7520   -8.7760    6.8610 C.3   284  VAL284      0.1692
     77  C        -26.6570   -9.9580    5.8700 C.2   284  VAL284      0.2593
     78  O        -26.8460  -11.1260    6.2530 O.2   284  VAL284     -0.2718
     79  CB       -25.3560   -8.4480    7.4680 C.3   284  VAL284      0.0266
     80  CG1      -24.7230   -9.6980    8.0750 C.3   284  VAL284      0.0020
     81  CG2      -24.4270   -7.7930    6.4420 C.3   284  VAL284      0.0020
     82  N        -26.3660   -9.6570    4.6110 N.am  285  SER285     -0.1938
     83  CA       -26.0900  -10.6970    3.6250 C.3   285  SER285      0.2055
     84  C        -25.1420  -11.7580    4.1400 C.2   285  SER285      0.2643
     85  O        -24.1430  -11.4460    4.7820 O.2   285  SER285     -0.2714
     86  CB       -25.4380  -10.0720    2.4000 C.3   285  SER285      0.2130
     87  OG       -24.8970  -11.0750    1.5570 O.3   285  SER285     -0.2179
     88  N        -25.4350  -13.0140    3.8120 N.am  286  ALA286     -0.1963
     89  CA       -24.5690  -14.1340    4.1550 C.3   286  ALA286      0.1728
     90  C        -23.7180  -14.5360    2.9350 C.2   286  ALA286      0.2616
     91  O        -23.0080  -15.5230    2.9840 O.2   286  ALA286     -0.2715
     92  CB       -25.4170  -15.3470    4.6490 C.3   286  ALA286      0.0334
     93  N        -23.8190  -13.7960    1.8330 N.am  287  THR287     -0.1951
     94  CA       -22.9580  -14.0520    0.6740 C.3   287  THR287      0.1897
     95  C        -22.2550  -12.7510    0.3340 C.2   287  THR287      0.2313
     96  O        -21.3190  -12.3570    1.0600 O.2   287  THR287     -0.2863
     97  CB       -23.7290  -14.6680   -0.5810 C.3   287  THR287      0.1794
     98  OG1      -24.8410  -13.8320   -0.9700 O.3   287  THR287     -0.2208
     99  CG2      -24.2610  -16.0970   -0.2700 C.3   287  THR287      0.0378
@<TRIPOS>BOND
     1    47    46    1
     2    48    46    1
     3    35    33    1
     4    46    43    1
     5     8     6   am
     6    34    32    1
     7    43    42    1
     8    43    44    1
     9    33    32    1
    10     5     6    1
    11     5     2    1
    12    32    29    1
    13     6     7    2
    14    42    38   am
    15    52    51    2
    16    41    40    1
    17    58    57    2
    18    44    49   am
    19    44    45    2
    20     1     2    1
    21    54    53    1
    22    49    50    1
    23     2     3    1
    24    29    30    1
    25    29    28    1
    26    57    56    1
    27    36    30   am
    28    36    37    1
    29    38    37    1
    30    38    39    2
    31    51    50    1
    32    51    55   am
    33    40    37    1
    34    30    31    2
    35    50    53    1
    36    28    18   am
    37     4     3    2
    38    56    55    1
    39    56    59    1
    40     3     9   am
    41    19    18    2
    42    18    17    1
    43     9    15    1
    44     9    10    1
    45    20    17    1
    46    20    21    1
    47    61    63   ar
    48    61    60   ar
    49    59    60    1
    50    16    17    1
    51    16    11   am
    52    15    14    1
    53    23    21   ar
    54    23    25   ar
    55    63    65   ar
    56    60    62   ar
    57    98    97    1
    58    21    22   ar
    59    10    11    1
    60    10    13    1
    61    11    12    2
    62    97    99    1
    63    97    94    1
    64    25    26   ar
    65    14    13    1
    66    62    64   ar
    67    65    64   ar
    68    65    66    1
    69    95    94    1
    70    95    96    2
    71    22    24   ar
    72    94    93    1
    73    26    24   ar
    74    26    27    1
    75    87    86    1
    76    93    90   am
    77    86    83    1
    78    90    91    2
    79    90    89    1
    80    83    84    1
    81    83    82    1
    82    88    84   am
    83    88    89    1
    84    84    85    2
    85    89    92    1
    86    82    77   am
    87    68    67    1
    88    68    69    1
    89    68    71    1
    90    73    72   ar
    91    69    70    2
    92    72    71    1
    93    72    74   ar
    94    77    78    2
    95    77    76    1
    96    81    79    1
    97    76    79    1
    98    76    75    1
    99    79    80    1
