@<TRIPOS>MOLECULE
tmp/3tw1A01.pdb
 98 92 0 0 0
SMALL
GASTEIGER

@<TRIPOS>ATOM
      1  N         16.7680   74.8290   17.5850 N.3     7  LEU7       -0.1231
      2  CA        17.1910   75.8960   18.4930 C.3     7  LEU7        0.1693
      3  C         16.0720   76.1580   19.4690 C.2     7  LEU7        0.2592
      4  O         14.9380   76.4210   19.0710 O.2     7  LEU7       -0.2718
      5  CB        17.4430   77.1790   17.6970 C.3     7  LEU7        0.0284
      6  CG        18.7800   77.2360   16.9420 C.3     7  LEU7        0.0019
      7  CD1       18.8850   78.5780   16.1680 C.3     7  LEU7        0.0001
      8  CD2       20.0140   77.0720   17.8810 C.3     7  LEU7        0.0001
      9  N         16.3890   76.1180   20.7560 N.am    8  GLU8       -0.1966
     10  CA        15.3860   76.3690   21.7840 C.3     8  GLU8        0.1733
     11  C         15.2250   77.8560   22.1130 C.2     8  GLU8        0.2617
     12  O         16.1890   78.6260   22.0830 O.2     8  GLU8       -0.2715
     13  CB        15.7600   75.6120   23.0570 C.3     8  GLU8        0.0429
     14  CG        17.1560   75.8850   23.4950 C.3     8  GLU8        0.1163
     15  CD        17.5650   75.0930   24.7130 C.2     8  GLU8        0.3649
     16  OE1       16.9510   74.0340   24.9770 O.co2   8  GLU8       -0.2457
     17  OE2       18.5100   75.5380   25.4010 O.co2   8  GLU8       -0.2457
     18  N         13.9990   78.2510   22.4480 N.am    9  GLY9       -0.1940
     19  CA        13.7400   79.5920   22.9360 C.3     9  GLY9        0.2014
     20  C         14.1860   80.7060   22.0140 C.2     9  GLY9        0.2639
     21  O         14.8810   81.6240   22.4440 O.2     9  GLY9       -0.2714
     22  N         13.7900   80.6030   20.7500 N.am   10  VAL10      -0.1963
     23  CA        14.0540   81.6560   19.7960 C.3    10  VAL10       0.1727
     24  C         12.9670   82.7210   19.9370 C.2    10  VAL10       0.2616
     25  O         11.7870   82.4010   20.0300 O.2    10  VAL10      -0.2715
     26  CB        14.0490   81.1360   18.3550 C.3    10  VAL10       0.0290
     27  CG1       14.3320   82.2600   17.4160 C.3    10  VAL10       0.0023
     28  CG2       15.1120   80.0260   18.1800 C.3    10  VAL10       0.0023
     29  N         13.3740   83.9820   19.9210 N.am   11  SER11      -0.1950
     30  CA        12.4160   85.0840   19.9890 C.3    11  SER11       0.1924
     31  C         11.8150   85.3320   18.6160 C.2    11  SER11       0.2314
     32  O         12.4770   85.8610   17.7270 O.2    11  SER11      -0.2863
     33  CB        13.0880   86.3600   20.4910 C.3    11  SER11       0.2116
     34  OG        12.1250   87.3730   20.7060 O.3    11  SER11      -0.2180
     35  N          8.2010   83.3800   22.3040 N.3    19  LYS19      -0.1245
     36  CA         9.4230   82.6060   22.3910 C.3    19  LYS19       0.1561
     37  C          9.0390   81.1780   22.0400 C.2    19  LYS19       0.2260
     38  O          8.1770   80.5960   22.7150 O.2    19  LYS19      -0.2867
     39  CB        10.0290   82.6820   23.7930 C.3    19  LYS19       0.0271
     40  CG        11.4250   82.0790   23.8520 C.3    19  LYS19       0.0035
     41  CD        12.1970   82.4440   25.1450 C.3    19  LYS19       0.0206
     42  CE        12.6660   83.8970   25.1640 C.3    19  LYS19       0.1093
     43  NZ        13.5860   84.2270   24.0280 N.3    19  LYS19      -0.1314
     44  N         22.9570   90.5060   18.4250 N.3    67  LEU67      -0.1245
     45  CA        21.7620   89.7950   17.9250 C.3    67  LEU67       0.1561
     46  C         21.7430   89.7740   16.3960 C.2    67  LEU67       0.2260
     47  O         22.4560   90.5340   15.7600 O.2    67  LEU67      -0.2867
     48  CB        20.5070   90.5360   18.3890 C.3    67  LEU67       0.0270
     49  CG        20.3470   90.7530   19.9020 C.3    67  LEU67       0.0019
     50  CD1       19.0630   91.6190   20.1540 C.3    67  LEU67       0.0001
     51  CD2       20.3390   89.4180   20.7100 C.3    67  LEU67       0.0001
     52  N         14.6110   86.7340   16.1300 N.3    87  THR87      -0.1203
     53  CA        15.8310   87.3310   16.6230 C.3    87  THR87       0.1994
     54  C         16.6590   86.2140   17.2520 C.2    87  THR87       0.2618
     55  O         16.1530   85.4860   18.0930 O.2    87  THR87      -0.2717
     56  CB        15.4840   88.4030   17.6880 C.3    87  THR87       0.1784
     57  OG1       14.5120   89.3040   17.1440 O.3    87  THR87      -0.2211
     58  CG2       16.6980   89.1820   18.0480 C.3    87  THR87       0.0376
     59  N         17.9120   86.0390   16.8140 N.am   88  LEU88      -0.1965
     60  CA        18.7980   85.0860   17.4370 C.3    88  LEU88       0.1728
     61  C         19.8430   85.8680   18.2670 C.2    88  LEU88       0.2616
     62  O         20.3050   86.9160   17.8490 O.2    88  LEU88      -0.2715
     63  CB        19.5070   84.2220   16.4170 C.3    88  LEU88       0.0311
     64  CG        18.5750   83.4480   15.4700 C.3    88  LEU88       0.0022
     65  CD1       19.4520   82.8030   14.3510 C.3    88  LEU88       0.0001
     66  CD2       17.7330   82.4380   16.2290 C.3    88  LEU88       0.0001
     67  N         20.1370   85.3650   19.4490 N.am   89  ASN89      -0.1972
     68  CA        21.2390   85.8630   20.2420 C.3    89  ASN89       0.1688
     69  C         22.4430   85.0660   19.7840 C.2    89  ASN89       0.2292
     70  O         22.4300   83.8240   19.8300 O.2    89  ASN89      -0.2864
     71  CB        20.9570   85.6080   21.7420 C.3    89  ASN89       0.1181
     72  CG        22.1160   86.0830   22.6210 C.2    89  ASN89       0.2629
     73  OD1       23.1980   85.4980   22.5810 O.2    89  ASN89      -0.2716
     74  ND2       21.9200   87.1960   23.3260 N.am   89  ASN89      -0.0877
     75  N         24.2300   82.7690   22.4440 N.3    92  ASN92      -0.1225
     76  CA        23.2860   81.6890   22.7510 C.3    92  ASN92       0.1785
     77  C         23.2890   80.6490   21.6310 C.2    92  ASN92       0.2597
     78  O         23.3470   79.4550   21.9030 O.2    92  ASN92      -0.2718
     79  CB        21.9060   82.3040   22.9560 C.3    92  ASN92       0.1169
     80  CG        20.8350   81.3010   23.2950 C.2    92  ASN92       0.2627
     81  OD1       20.6630   80.3140   22.6110 O.2    92  ASN92      -0.2716
     82  ND2       20.0440   81.6060   24.3240 N.am   92  ASN92      -0.0877
     83  N         23.2070   81.1220   20.3860 N.am   93  THR93      -0.1953
     84  CA        23.1730   80.2180   19.2290 C.3    93  THR93       0.1897
     85  C         24.4390   79.3890   19.1360 C.2    93  THR93       0.2313
     86  O         24.3900   78.1960   18.8750 O.2    93  THR93      -0.2863
     87  CB        22.9090   81.0050   17.9500 C.3    93  THR93       0.1794
     88  OG1       21.6110   81.5990   18.0720 O.3    93  THR93      -0.2208
     89  CG2       22.9130   80.1030   16.7150 C.3    93  THR93       0.0378
     90  N         24.3140   76.6770   21.7360 N.3    96  GLN96      -0.1245
     91  CA        23.4670   75.5360   21.3820 C.3    96  GLN96       0.1566
     92  C         24.0770   74.6570   20.3060 C.2    96  GLN96       0.2260
     93  O         23.9980   73.4270   20.4060 O.2    96  GLN96      -0.2867
     94  CB        22.0520   75.9820   20.9460 C.3    96  GLN96       0.0367
     95  CG        21.3090   76.8250   22.0190 C.3    96  GLN96       0.0905
     96  CD        19.8060   76.8640   21.7180 C.2    96  GLN96       0.2608
     97  OE1       19.2440   75.8420   21.2940 O.2    96  GLN96      -0.2717
     98  NE2       19.1570   77.9930   21.9860 N.am   96  GLN96      -0.0878
@<TRIPOS>BOND
     1    65    64    1
     2    64    66    1
     3    64    63    1
     4    47    46    2
     5    52    53    1
     6     7     6    1
     7    46    45    1
     8    63    60    1
     9    53    54    1
    10    53    56    1
    11    89    87    1
    12    59    54   am
    13    59    60    1
    14     6     5    1
    15     6     8    1
    16    57    56    1
    17    54    55    2
    18    27    26    1
    19    60    61    1
    20     1     2    1
    21    56    58    1
    22     5     2    1
    23    32    31    2
    24    62    61    2
    25    45    48    1
    26    45    44    1
    27    87    88    1
    28    87    84    1
    29    28    26    1
    30    61    67   am
    31    26    23    1
    32    48    49    1
    33     2     3    1
    34    31    30    1
    35    86    85    2
    36     4     3    2
    37    85    84    1
    38    84    83    1
    39    67    68    1
    40     3     9   am
    41    69    70    2
    42    69    68    1
    43    23    24    1
    44    23    22    1
    45    49    50    1
    46    49    51    1
    47    29    24   am
    48    29    30    1
    49    24    25    2
    50    30    33    1
    51    68    71    1
    52    92    93    2
    53    92    91    1
    54    83    77   am
    55    33    34    1
    56    22    20   am
    57     9    10    1
    58    94    91    1
    59    94    95    1
    60    97    96    2
    61    91    90    1
    62    77    78    2
    63    77    76    1
    64    96    98   am
    65    96    95    1
    66    71    72    1
    67    10    11    1
    68    10    13    1
    69    20    21    2
    70    20    19    1
    71    37    36    1
    72    37    38    2
    73    12    11    2
    74    11    18   am
    75    35    36    1
    76    36    39    1
    77    75    76    1
    78    18    19    1
    79    73    72    2
    80    81    80    2
    81    72    74   am
    82    76    79    1
    83    79    80    1
    84    13    14    1
    85    80    82   am
    86    14    15    1
    87    39    40    1
    88    40    41    1
    89    43    42    1
    90    15    16   ar
    91    15    17   ar
    92    41    42    1
