@<TRIPOS>MOLECULE
tmp/3tw1A00.pdb
 81 77 0 0 0
SMALL
GASTEIGER

@<TRIPOS>ATOM
      1  N         28.3950   93.2500   -3.4680 N.3   135  ILE135     -0.1245
      2  CA        27.5360   94.4350   -3.5180 C.3   135  ILE135      0.1561
      3  C         27.3580   94.9990   -2.1020 C.2   135  ILE135      0.2260
      4  O         27.2880   94.2430   -1.1350 O.2   135  ILE135     -0.2867
      5  CB        26.1490   94.1040   -4.1610 C.3   135  ILE135      0.0252
      6  CG1       26.3360   93.6760   -5.6220 C.3   135  ILE135      0.0019
      7  CG2       25.2060   95.3030   -4.0900 C.3   135  ILE135      0.0019
      8  CD1       25.0640   93.1620   -6.2620 C.3   135  ILE135      0.0001
      9  N         20.7820   93.4390   -2.2870 N.3   155  PRO155     -0.2102
     10  CA        21.0940   93.3680   -3.7260 C.3   155  PRO155      0.1504
     11  C         19.8570   93.2190   -4.6250 C.2   155  PRO155      0.2575
     12  O         19.8040   93.8520   -5.6680 O.2   155  PRO155     -0.2718
     13  CB        21.9870   92.1290   -3.8190 C.3   155  PRO155      0.0282
     14  CG        22.7110   92.1290   -2.4780 C.3   155  PRO155      0.0208
     15  CD        21.6420   92.5570   -1.4760 C.3   155  PRO155      0.0893
     16  N         18.8930   92.3880   -4.2510 N.am  156  ASP156     -0.1974
     17  CA        17.7260   92.2240   -5.1310 C.3   156  ASP156      0.1708
     18  C         16.3770   92.5980   -4.4810 C.2   156  ASP156      0.2293
     19  O         15.3230   92.3550   -5.0570 O.2   156  ASP156     -0.2864
     20  CB        17.6730   90.8080   -5.6580 C.3   156  ASP156      0.1436
     21  CG        18.9100   90.4490   -6.5020 C.2   156  ASP156      0.3671
     22  OD1       19.1500   91.1460   -7.4800 O.co2 156  ASP156     -0.2456
     23  OD2       19.6430   89.4860   -6.1670 O.co2 156  ASP156     -0.2456
     24  N         13.7910   94.5130   -6.0730 N.3   171  ALA171     -0.1231
     25  CA        14.4850   95.6730   -6.6240 C.3   171  ALA171      0.1694
     26  C         14.1910   95.9180   -8.1260 C.2   171  ALA171      0.2592
     27  O         14.1640   97.0680   -8.5960 O.2   171  ALA171     -0.2718
     28  CB        16.0160   95.4880   -6.4170 C.3   171  ALA171      0.0304
     29  N         14.0250   94.8430   -8.8910 N.am  172  SER172     -0.1952
     30  CA        13.8350   94.9940  -10.3410 C.3   172  SER172      0.1924
     31  C         12.4290   95.5070  -10.6810 C.2   172  SER172      0.2314
     32  O         12.1290   95.8780  -11.8230 O.2   172  SER172     -0.2863
     33  CB        14.1810   93.7030  -11.0680 C.3   172  SER172      0.2116
     34  OG        13.3490   92.6030  -10.6820 O.3   172  SER172     -0.2180
     35  N         11.2100   98.2780   -9.1660 N.3   174  ILE174     -0.1245
     36  CA        11.1850   99.7240   -8.9750 C.3   174  ILE174      0.1561
     37  C         11.3060  100.4200  -10.3140 C.2   174  ILE174      0.2260
     38  O         12.2030  100.1040  -11.0740 O.2   174  ILE174     -0.2867
     39  CB        12.3650  100.1880   -8.1090 C.3   174  ILE174      0.0252
     40  CG1       12.4310   99.3870   -6.8160 C.3   174  ILE174      0.0019
     41  CG2       12.2530  101.6970   -7.8010 C.3   174  ILE174      0.0019
     42  CD1       11.1220   99.3210   -6.0410 C.3   174  ILE174      0.0001
     43  N         21.3490  103.4430   -5.4520 N.3   214  TYR214     -0.1227
     44  CA        20.7340  102.1280   -5.4270 C.3   214  TYR214      0.1736
     45  C         19.6840  101.9940   -6.5310 C.2   214  TYR214      0.2595
     46  O         19.7020  101.0380   -7.3090 O.2   214  TYR214     -0.2718
     47  CB        20.1090  101.8680   -4.0900 C.3   214  TYR214      0.0548
     48  CG        19.4370  100.5070   -3.9830 C.ar  214  TYR214     -0.0200
     49  CD1       20.1070   99.4090   -3.4210 C.ar  214  TYR214     -0.0009
     50  CD2       18.1420  100.3150   -4.4180 C.ar  214  TYR214     -0.0009
     51  CE1       19.4810   98.1730   -3.3030 C.ar  214  TYR214      0.0417
     52  CE2       17.5070   99.0470   -4.3130 C.ar  214  TYR214      0.0417
     53  CZ        18.1920   98.0050   -3.7530 C.ar  214  TYR214      0.1957
     54  OH        17.5800   96.7990   -3.6640 O.3   214  TYR214     -0.2866
     55  N         18.8110  102.9970   -6.6370 N.am  215  VAL215     -0.1980
     56  CA        17.7530  102.9670   -7.6480 C.3   215  VAL215      0.1595
     57  C         18.2450  103.0400   -9.0800 C.2   215  VAL215      0.2287
     58  O         17.6010  102.5070  -10.0070 O.2   215  VAL215     -0.2864
     59  CB        16.7330  104.0820   -7.3730 C.3   215  VAL215      0.0276
     60  CG1       15.6940  104.1120   -8.4970 C.3   215  VAL215      0.0022
     61  CG2       16.0910  103.8390   -5.9810 C.3   215  VAL215      0.0022
     62  N         21.0830  101.6820  -10.0220 N.3   217  ARG217     -0.1231
     63  CA        21.9090  100.5150  -10.3260 C.3   217  ARG217      0.1694
     64  C         21.4450   99.8190  -11.6180 C.2   217  ARG217      0.2591
     65  O         20.2680   99.4770  -11.7660 O.2   217  ARG217     -0.2718
     66  CB        21.8710   99.5030   -9.1840 C.3   217  ARG217      0.0321
     67  CG        22.8960   99.7160   -8.0860 C.3   217  ARG217      0.0489
     68  CD        22.6190   98.7200   -6.9140 C.3   217  ARG217      0.2205
     69  NE        23.2770   99.1450   -5.6850 N.pl3 217  ARG217     -0.0865
     70  CZ        23.2380   98.4960   -4.5230 C.cat 217  ARG217      0.5346
     71  NH1       22.5520   97.3540   -4.3980 N.pl3 217  ARG217      0.1354
     72  NH2       23.8890   99.0090   -3.4750 N.pl3 217  ARG217      0.1354
     73  N         22.3810   99.5980  -12.5320 N.am  218  LYS218     -0.1980
     74  CA        22.0740   99.0110  -13.8270 C.3   218  LYS218      0.1596
     75  C         22.2650   97.5020  -13.7800 C.2   218  LYS218      0.2287
     76  O         21.3400   96.7610  -13.4440 O.2   218  LYS218     -0.2864
     77  CB        22.9620   99.6430  -14.9160 C.3   218  LYS218      0.0298
     78  CG        22.7910  101.1630  -15.0250 C.3   218  LYS218      0.0038
     79  CD        23.6250  101.7930  -16.1440 C.3   218  LYS218      0.0206
     80  CE        23.3770  103.2970  -16.2430 C.3   218  LYS218      0.1093
     81  NZ        24.2510  104.0030  -17.2330 N.3   218  LYS218     -0.1314
@<TRIPOS>BOND
     1    81    80    1
     2    80    79    1
     3    79    78    1
     4    78    77    1
     5    77    74    1
     6    74    75    1
     7    74    73    1
     8    75    76    2
     9    73    64   am
    10    32    31    2
    11    65    64    2
    12    64    63    1
    13    38    37    2
    14    33    34    1
    15    33    30    1
    16    31    30    1
    17    30    29    1
    18    63    62    1
    19    63    66    1
    20    37    36    1
    21    58    57    2
    22    66    67    1
    23    35    36    1
    24    57    56    1
    25    36    39    1
    26    29    26   am
    27    27    26    2
    28    60    59    1
    29    26    25    1
    30    39    41    1
    31    39    40    1
    32    67    68    1
    33    56    59    1
    34    56    55    1
    35    22    21   ar
    36    59    61    1
    37    46    45    2
    38    68    69    1
    39    40    42    1
    40    55    45   am
    41    25    28    1
    42    25    24    1
    43    45    44    1
    44    21    23   ar
    45    21    20    1
    46     8     6    1
    47    69    70    2
    48    12    11    2
    49    20    17    1
    50     6     5    1
    51    43    44    1
    52    44    47    1
    53    17    18    1
    54    17    16    1
    55    19    18    2
    56    11    16   am
    57    11    10    1
    58    70    71    1
    59    70    72    1
    60    50    52   ar
    61    50    48   ar
    62    52    53   ar
    63     5     7    1
    64     5     2    1
    65    47    48    1
    66    48    49   ar
    67    13    10    1
    68    13    14    1
    69    53    54    1
    70    53    51   ar
    71    10     9    1
    72     2     1    1
    73     2     3    1
    74    49    51   ar
    75    14    15    1
    76     9    15    1
    77     3     4    2
