@<TRIPOS>MOLECULE
tmp/3tw3A00.pdb
 217 210 0 0 0
SMALL
GASTEIGER

@<TRIPOS>ATOM
      1  N          3.5840  -11.1550  -12.1460 N.3    11  GLU11      -0.1245
      2  CA         3.7150  -11.7780  -13.4590 C.3    11  GLU11       0.1567
      3  C          4.0130  -13.2750  -13.3630 C.2    11  GLU11       0.2260
      4  O          4.1810  -13.9470  -14.3790 O.2    11  GLU11      -0.2867
      5  CB         4.7990  -11.0770  -14.2850 C.3    11  GLU11       0.0388
      6  CG         6.1800  -11.1150  -13.6510 C.3    11  GLU11       0.1160
      7  CD         7.2860  -10.7910  -14.6370 C.2    11  GLU11       0.3649
      8  OE1        7.3480   -9.6360  -15.1150 O.co2  11  GLU11      -0.2457
      9  OE2        8.0900  -11.6990  -14.9390 O.co2  11  GLU11      -0.2457
     10  N          6.6500  -14.9960  -12.2970 N.3    13  GLY13      -0.1210
     11  CA         7.9690  -15.4270  -12.7230 C.3    13  GLY13       0.1956
     12  C          8.8830  -15.7690  -11.5620 C.2    13  GLY13       0.2612
     13  O          8.4270  -15.9580  -10.4360 O.2    13  GLY13      -0.2717
     14  N         10.1820  -15.8370  -11.8370 N.am   14  GLY14      -0.1942
     15  CA        11.1550  -16.2550  -10.8440 C.3    14  GLY14       0.2014
     16  C         11.5260  -15.2120   -9.8030 C.2    14  GLY14       0.2638
     17  O         12.1470  -15.5460   -8.7950 O.2    14  GLY14      -0.2714
     18  N         11.1430  -13.9590  -10.0340 N.am   15  GLN15      -0.1977
     19  CA        11.5300  -12.8630   -9.1410 C.3    15  GLN15       0.1601
     20  C         11.1150  -13.0720   -7.6860 C.2    15  GLN15       0.2287
     21  O         11.9060  -12.8210   -6.7750 O.2    15  GLN15      -0.2864
     22  CB        10.9910  -11.5190   -9.6360 C.3    15  GLN15       0.0394
     23  CG        11.5260  -10.3330   -8.8350 C.3    15  GLN15       0.0908
     24  CD        13.0440  -10.2390   -8.8780 C.2    15  GLN15       0.2608
     25  OE1       13.6270   -9.9370   -9.9200 O.2    15  GLN15      -0.2717
     26  NE2       13.6920  -10.5120   -7.7470 N.am   15  GLN15      -0.0878
     27  N         13.6030  -15.4840   -5.9530 N.3    18  ARG18      -0.1245
     28  CA        14.9250  -14.9170   -5.7040 C.3    18  ARG18       0.1563
     29  C         14.8930  -13.9510   -4.5280 C.2    18  ARG18       0.2260
     30  O         15.7350  -14.0260   -3.6370 O.2    18  ARG18      -0.2867
     31  CB        15.4740  -14.2230   -6.9530 C.3    18  ARG18       0.0307
     32  CG        15.7980  -15.1750   -8.0950 C.3    18  ARG18       0.0489
     33  CD        16.5210  -14.4560   -9.2220 C.3    18  ARG18       0.2205
     34  NE        15.7310  -13.3460   -9.7450 N.pl3  18  ARG18      -0.0865
     35  CZ        14.9280  -13.4320  -10.7980 C.cat  18  ARG18       0.5346
     36  NH1       14.8100  -14.5800  -11.4500 N.pl3  18  ARG18       0.1354
     37  NH2       14.2480  -12.3670  -11.2010 N.pl3  18  ARG18       0.1354
     38  N          6.4860  -20.2970  -11.1370 N.3    37  ARG37      -0.1245
     39  CA         6.4950  -20.1400  -12.5940 C.3    37  ARG37       0.1563
     40  C          5.5180  -21.0870  -13.2910 C.2    37  ARG37       0.2260
     41  O          5.7660  -21.5290  -14.4120 O.2    37  ARG37      -0.2867
     42  CB         7.9090  -20.3440  -13.1480 C.3    37  ARG37       0.0307
     43  CG         8.9620  -19.4510  -12.5060 C.3    37  ARG37       0.0489
     44  CD        10.3220  -19.6040  -13.1760 C.3    37  ARG37       0.2205
     45  NE        10.3180  -19.1340  -14.5600 N.pl3  37  ARG37      -0.0865
     46  CZ        10.2540  -19.9330  -15.6220 C.cat  37  ARG37       0.5346
     47  NH1       10.1970  -21.2480  -15.4610 N.pl3  37  ARG37       0.1354
     48  NH2       10.2500  -19.4180  -16.8450 N.pl3  37  ARG37       0.1354
     49  N          4.2210  -20.5140  -17.0110 N.3    40  ARG40      -0.1245
     50  CA         5.2210  -20.2800  -18.0510 C.3    40  ARG40       0.1563
     51  C          5.2240  -21.3510  -19.1390 C.2    40  ARG40       0.2260
     52  O          4.6280  -22.4160  -18.9790 O.2    40  ARG40      -0.2867
     53  CB         6.6140  -20.1780  -17.4240 C.3    40  ARG40       0.0307
     54  CG         6.7690  -19.0160  -16.4610 C.3    40  ARG40       0.0489
     55  CD         6.8590  -17.7040  -17.2070 C.3    40  ARG40       0.2205
     56  NE         6.5050  -16.5720  -16.3600 N.pl3  40  ARG40      -0.0865
     57  CZ         6.8950  -15.3230  -16.5890 C.cat  40  ARG40       0.5346
     58  NH1        7.6660  -15.0520  -17.6340 N.pl3  40  ARG40       0.1354
     59  NH2        6.5250  -14.3490  -15.7690 N.pl3  40  ARG40       0.1354
     60  N         18.7060  -21.7520  -13.9190 N.3    48  GLN48      -0.1231
     61  CA        19.0230  -20.4970  -13.2450 C.3    48  GLN48       0.1698
     62  C         18.4730  -20.4990  -11.8230 C.2    48  GLN48       0.2592
     63  O         19.1910  -20.2000  -10.8660 O.2    48  GLN48      -0.2718
     64  CB        18.4490  -19.3010  -14.0130 C.3    48  GLN48       0.0381
     65  CG        18.6710  -17.9600  -13.3180 C.3    48  GLN48       0.0905
     66  CD        17.3940  -17.1480  -13.1600 C.2    48  GLN48       0.2608
     67  OE1       16.9940  -16.8130  -12.0450 O.2    48  GLN48      -0.2717
     68  NE2       16.7530  -16.8250  -14.2780 N.am   48  GLN48      -0.0878
     69  N         17.1970  -20.8540  -11.6970 N.am   49  HIS49      -0.1976
     70  CA        16.5040  -20.8300  -10.4130 C.3    49  HIS49       0.1656
     71  C         17.0190  -21.9060   -9.4640 C.2    49  HIS49       0.2291
     72  O         17.2030  -21.6520   -8.2740 O.2    49  HIS49      -0.2864
     73  CB        14.9930  -20.9710  -10.6210 C.3    49  HIS49       0.0771
     74  CG        14.4420  -20.0330  -11.6480 C.ar   49  HIS49       0.0820
     75  ND1       14.1670  -20.4230  -12.9410 N.ar   49  HIS49      -0.2267
     76  CD2       14.1400  -18.7140  -11.5800 C.ar   49  HIS49       0.1154
     77  CE1       13.7100  -19.3870  -13.6230 C.ar   49  HIS49       0.1986
     78  NE2       13.6810  -18.3380  -12.8190 N.ar   49  HIS49      -0.2212
     79  N         21.3450  -12.9830  -12.1740 N.3    98  LEU98      -0.1245
     80  CA        20.1370  -13.2490  -11.4030 C.3    98  LEU98       0.1561
     81  C         20.4220  -14.2230  -10.2630 C.2    98  LEU98       0.2260
     82  O         19.8070  -14.1480   -9.2020 O.2    98  LEU98      -0.2867
     83  CB        19.0070  -13.7540  -12.3070 C.3    98  LEU98       0.0270
     84  CG        18.3700  -12.6730  -13.1930 C.3    98  LEU98       0.0019
     85  CD1       17.2260  -13.2400  -14.0260 C.3    98  LEU98       0.0001
     86  CD2       17.8960  -11.4910  -12.3510 C.3    98  LEU98       0.0001
     87  N         22.0660  -11.9020   -7.8880 N.3   101  GLN101     -0.1245
     88  CA        21.0300  -11.0640   -7.2840 C.3   101  GLN101      0.1566
     89  C         20.4170  -11.7440   -6.0630 C.2   101  GLN101      0.2260
     90  O         20.0230  -11.0910   -5.0980 O.2   101  GLN101     -0.2867
     91  CB        19.9330  -10.7590   -8.3090 C.3   101  GLN101      0.0367
     92  CG        18.7600   -9.9490   -7.7610 C.3   101  GLN101      0.0905
     93  CD        17.5780   -9.9020   -8.7160 C.2   101  GLN101      0.2608
     94  OE1       16.7240  -10.7880   -8.7050 O.2   101  GLN101     -0.2717
     95  NE2       17.5220   -8.8610   -9.5450 N.am  101  GLN101     -0.0878
     96  N         18.4580  -11.5240  -22.7770 N.3   125  PRO125     -0.2102
     97  CA        17.5710  -10.4070  -23.1320 C.3   125  PRO125      0.1504
     98  C         16.7140   -9.8850  -21.9750 C.2   125  PRO125      0.2576
     99  O         16.3970   -8.6950  -21.9480 O.2   125  PRO125     -0.2718
    100  CB        16.6790  -11.0020  -24.2300 C.3   125  PRO125      0.0282
    101  CG        16.7840  -12.4880  -24.0550 C.3   125  PRO125      0.0208
    102  CD        18.1820  -12.7230  -23.5850 C.3   125  PRO125      0.0893
    103  N         16.3470  -10.7520  -21.0370 N.am  126  SER126     -0.1938
    104  CA        15.4540  -10.3510  -19.9510 C.3   126  SER126      0.2055
    105  C         16.0910  -10.5190  -18.5740 C.2   126  SER126      0.2643
    106  O         15.4780  -11.0570  -17.6530 O.2   126  SER126     -0.2714
    107  CB        14.1360  -11.1270  -20.0230 C.3   126  SER126      0.2130
    108  OG        13.2900  -10.7850  -18.9400 O.3   126  SER126     -0.2179
    109  N         17.3280  -10.0510  -18.4490 N.am  127  ALA127     -0.1963
    110  CA        18.0500  -10.0740  -17.1850 C.3   127  ALA127      0.1713
    111  C         19.0040   -8.8890  -17.1720 C.2   127  ALA127      0.2458
    112  O         19.3750   -8.3860  -18.2330 O.2   127  ALA127     -0.2730
    113  CB        18.8210  -11.3780  -17.0370 C.3   127  ALA127      0.0333
    114  N         19.4040   -8.4280  -15.9770 N.am  128  PRO128     -0.2716
    115  CA        20.3710   -7.3270  -15.9560 C.3   128  PRO128      0.1521
    116  C         21.7540   -7.8120  -16.3870 C.2   128  PRO128      0.2440
    117  O         22.2840   -8.7440  -15.7790 O.2   128  PRO128     -0.2731
    118  CB        20.3820   -6.8990  -14.4850 C.3   128  PRO128      0.0310
    119  CG        19.9830   -8.1240  -13.7310 C.3   128  PRO128      0.0237
    120  CD        19.0250   -8.8670  -14.6210 C.3   128  PRO128      0.0939
    121  N         22.3200   -7.2040  -17.4440 N.am  129  PRO129     -0.2727
    122  CA        23.6820   -7.5400  -17.8730 C.3   129  PRO129      0.1402
    123  C         24.6670   -7.1640  -16.7810 C.2   129  PRO129      0.2269
    124  O         24.3590   -6.2790  -15.9810 O.2   129  PRO129     -0.2865
    125  CB        23.9010   -6.6400  -19.0940 C.3   129  PRO129      0.0296
    126  CG        22.5370   -6.2710  -19.5590 C.3   129  PRO129      0.0237
    127  CD        21.6910   -6.2080  -18.3270 C.3   129  PRO129      0.0939
    128  N         25.2600   -3.6140  -16.5660 N.3   132  PHE132     -0.1241
    129  CA        24.1790   -2.8690  -15.9320 C.3   132  PHE132      0.1605
    130  C         24.3400   -2.9010  -14.4200 C.2   132  PHE132      0.2264
    131  O         24.1850   -1.8790  -13.7530 O.2   132  PHE132     -0.2867
    132  CB        22.8130   -3.4360  -16.3310 C.3   132  PHE132      0.0534
    133  CG        21.6540   -2.8290  -15.5780 C.ar  132  PHE132     -0.0203
    134  CD1       21.1730   -3.4200  -14.4180 C.ar  132  PHE132     -0.0042
    135  CD2       21.0360   -1.6760  -16.0390 C.ar  132  PHE132     -0.0042
    136  CE1       20.1070   -2.8660  -13.7270 C.ar  132  PHE132     -0.0003
    137  CE2       19.9680   -1.1170  -15.3540 C.ar  132  PHE132     -0.0003
    138  CZ        19.5030   -1.7130  -14.1960 C.ar  132  PHE132     -0.0000
    139  N         21.0110    2.5770  -17.9390 N.3   246  ARG246     -0.1231
    140  CA        21.5440    1.8500  -19.0860 C.3   246  ARG246      0.1694
    141  C         20.4930    0.9120  -19.6700 C.2   246  ARG246      0.2592
    142  O         19.8770    0.1220  -18.9530 O.2   246  ARG246     -0.2718
    143  CB        22.7930    1.0650  -18.6860 C.3   246  ARG246      0.0321
    144  CG        23.5440    0.4180  -19.8310 C.3   246  ARG246      0.0489
    145  CD        24.7570   -0.3430  -19.3080 C.3   246  ARG246      0.2205
    146  NE        25.4810   -1.0430  -20.3650 N.pl3 246  ARG246     -0.0865
    147  CZ        26.5520   -0.5580  -20.9840 C.cat 246  ARG246      0.5346
    148  NH1       27.0270    0.6340  -20.6510 N.pl3 246  ARG246      0.1354
    149  NH2       27.1490   -1.2640  -21.9350 N.pl3 246  ARG246      0.1354
    150  N         20.2910    1.0110  -20.9780 N.am  247  PHE247     -0.1962
    151  CA        19.2930    0.2030  -21.6630 C.3   247  PHE247      0.1771
    152  C         19.9880   -0.5870  -22.7590 C.2   247  PHE247      0.2619
    153  O         20.9380   -0.1000  -23.3680 O.2   247  PHE247     -0.2715
    154  CB        18.2040    1.1030  -22.2510 C.3   247  PHE247      0.0574
    155  CG        17.5440    1.9930  -21.2330 C.ar  247  PHE247     -0.0200
    156  CD1       18.0620    3.2460  -20.9460 C.ar  247  PHE247     -0.0042
    157  CD2       16.4110    1.5730  -20.5560 C.ar  247  PHE247     -0.0042
    158  CE1       17.4640    4.0620  -20.0050 C.ar  247  PHE247     -0.0003
    159  CE2       15.8080    2.3860  -19.6160 C.ar  247  PHE247     -0.0003
    160  CZ        16.3360    3.6290  -19.3400 C.ar  247  PHE247     -0.0000
    161  N         19.5300   -1.8110  -23.0030 N.am  248  PHE248     -0.1974
    162  CA        20.1650   -2.6570  -24.0050 C.3   248  PHE248      0.1639
    163  C         19.1620   -3.5390  -24.7400 C.2   248  PHE248      0.2290
    164  O         18.0880   -3.8470  -24.2220 O.2   248  PHE248     -0.2864
    165  CB        21.2550   -3.5260  -23.3670 C.3   248  PHE248      0.0560
    166  CG        20.7430   -4.8160  -22.7900 C.ar  248  PHE248     -0.0200
    167  CD1       19.9040   -4.8150  -21.6890 C.ar  248  PHE248     -0.0042
    168  CD2       21.1050   -6.0320  -23.3490 C.ar  248  PHE248     -0.0042
    169  CE1       19.4310   -6.0010  -21.1590 C.ar  248  PHE248     -0.0003
    170  CE2       20.6380   -7.2200  -22.8210 C.ar  248  PHE248     -0.0003
    171  CZ        19.7990   -7.2050  -21.7260 C.ar  248  PHE248     -0.0000
    172  N         12.8470    2.4910  -26.7070 N.3   267  GLU267     -0.1245
    173  CA        12.8720    2.1920  -25.2800 C.3   267  GLU267      0.1567
    174  C         13.5270    3.3240  -24.4900 C.2   267  GLU267      0.2260
    175  O         13.1080    3.6420  -23.3780 O.2   267  GLU267     -0.2867
    176  CB        13.6070    0.8750  -25.0260 C.3   267  GLU267      0.0388
    177  CG        13.5700    0.4070  -23.5840 C.3   267  GLU267      0.1160
    178  CD        14.3200   -0.8950  -23.3730 C.2   267  GLU267      0.3649
    179  OE1       14.9900   -1.3580  -24.3200 O.co2 267  GLU267     -0.2457
    180  OE2       14.2390   -1.4560  -22.2590 O.co2 267  GLU267     -0.2457
    181  N         13.2440   -1.3850  -14.8020 N.3   281  TYR281     -0.1241
    182  CA        13.9690   -2.5560  -14.3140 C.3   281  TYR281      0.1605
    183  C         14.7660   -2.2510  -13.0530 C.2   281  TYR281      0.2264
    184  O         14.6820   -2.9870  -12.0740 O.2   281  TYR281     -0.2867
    185  CB        14.8690   -3.1430  -15.4080 C.3   281  TYR281      0.0534
    186  CG        14.1160   -3.4310  -16.6820 C.ar  281  TYR281     -0.0201
    187  CD1       13.2030   -4.4740  -16.7460 C.ar  281  TYR281     -0.0009
    188  CD2       14.3010   -2.6480  -17.8160 C.ar  281  TYR281     -0.0009
    189  CE1       12.4980   -4.7360  -17.9040 C.ar  281  TYR281      0.0417
    190  CE2       13.5980   -2.9050  -18.9820 C.ar  281  TYR281      0.0417
    191  CZ        12.7000   -3.9490  -19.0190 C.ar  281  TYR281      0.1957
    192  OH        11.9980   -4.2120  -20.1730 O.3   281  TYR281     -0.2866
    193  N         12.7820   -2.2800   -9.6100 N.3   284  ASP284     -0.1225
    194  CA        12.5220   -3.4720   -8.8060 C.3   284  ASP284      0.1805
    195  C         13.7670   -3.9790   -8.0760 C.2   284  ASP284      0.2597
    196  O         13.6620   -4.7310   -7.1050 O.2   284  ASP284     -0.2718
    197  CB        11.8280   -4.5840   -9.6190 C.3   284  ASP284      0.1424
    198  CG        12.7690   -5.3250  -10.5690 C.2   284  ASP284      0.3668
    199  OD1       13.7780   -5.9120  -10.1140 O.co2 284  ASP284     -0.2456
    200  OD2       12.4710   -5.3500  -11.7830 O.co2 284  ASP284     -0.2456
    201  N         14.9390   -3.5600   -8.5450 N.am  285  GLN285     -0.1979
    202  CA        16.2060   -4.0020   -7.9650 C.3   285  GLN285      0.1601
    203  C         16.6740   -3.1010   -6.8210 C.2   285  GLN285      0.2287
    204  O         17.6460   -3.4200   -6.1330 O.2   285  GLN285     -0.2864
    205  CB        17.2930   -4.1000   -9.0470 C.3   285  GLN285      0.0394
    206  CG        17.0050   -5.1470  -10.1230 C.3   285  GLN285      0.0908
    207  CD        17.9570   -5.0680  -11.3000 C.2   285  GLN285      0.2608
    208  OE1       19.1760   -5.1850  -11.1440 O.2   285  GLN285     -0.2717
    209  NE2       17.4040   -4.8610  -12.4890 N.am  285  GLN285     -0.0878
    210  N          7.0300   -6.8760  -11.1240 N.3   306  ASN306     -0.1240
    211  CA         8.1800   -7.3050  -10.3330 C.3   306  ASN306      0.1653
    212  C          8.4910   -6.3300   -9.2040 C.2   306  ASN306      0.2266
    213  O          8.8730   -6.7380   -8.1040 O.2   306  ASN306     -0.2867
    214  CB         9.4140   -7.5170  -11.2150 C.3   306  ASN306      0.1155
    215  CG         9.3560   -8.8190  -11.9890 C.2   306  ASN306      0.2627
    216  OD1        8.5930   -9.7240  -11.6460 O.2   306  ASN306     -0.2716
    217  ND2       10.1730   -8.9250  -13.0320 N.am  306  ASN306     -0.0877
@<TRIPOS>BOND
     1   172   173    1
     2   173   176    1
     3   173   174    1
     4   176   177    1
     5   163   164    2
     6   163   162    1
     7   174   175    2
     8   179   178   ar
     9   100   101    1
    10   100    97    1
    11   101   102    1
    12   162   165    1
    13   162   161    1
    14   102    96    1
    15   177   178    1
    16   178   180   ar
    17   153   152    2
    18   165   166    1
    19   168   170   ar
    20   168   166   ar
    21    97    96    1
    22    97    98    1
    23   161   152   am
    24   170   171   ar
    25   166   167   ar
    26   152   151    1
    27   154   151    1
    28   154   155    1
    29    98    99    2
    30    98   103   am
    31   149   147    1
    32   171   169   ar
    33   167   169   ar
    34   151   150    1
    35   155   156   ar
    36   155   157   ar
    37   103   104    1
    38   147   148    1
    39   147   146    2
    40   150   141   am
    41   156   158   ar
    42   157   159   ar
    43   146   145    1
    44   192   191    1
    45   107   104    1
    46   107   108    1
    47   158   160   ar
    48   104   105    1
    49   144   145    1
    50   144   143    1
    51   141   140    1
    52   141   142    2
    53   159   160   ar
    54   126   125    1
    55   126   127    1
    56    51    52    2
    57    51    50    1
    58   125   122    1
    59   140   143    1
    60   140   139    1
    61   191   190   ar
    62   191   189   ar
    63   190   188   ar
    64   105   109   am
    65   105   106    2
    66   109   110    1
    67   127   121    1
    68   112   111    2
    69    50    53    1
    70    50    49    1
    71   189   187   ar
    72   122   121    1
    73   122   123    1
    74   188   186   ar
    75    58    57    1
    76   121   116   am
    77    53    54    1
    78    55    54    1
    79    55    56    1
    80   110   111    1
    81   110   113    1
    82   111   114   am
    83    48    46    1
    84   123   124    2
    85   187   186   ar
    86   186   185    1
    87    57    56    2
    88    57    59    1
    89   128   129    1
    90   116   115    1
    91   116   117    2
    92   132   129    1
    93   132   133    1
    94   135   133   ar
    95   135   137   ar
    96   114   115    1
    97   114   120    1
    98   115   118    1
    99   129   130    1
   100    46    47    1
   101    46    45    2
   102   133   134   ar
   103   185   182    1
   104   137   138   ar
   105     8     7   ar
   106     9     7   ar
   107   181   182    1
   108     7     6    1
   109   120   119    1
   110    45    44    1
   111   118   119    1
   112   130   131    2
   113   134   136   ar
   114    41    40    2
   115     4     3    2
   116   182   183    1
   117     5     6    1
   118     5     2    1
   119    68    66   am
   120   138   136   ar
   121    85    84    1
   122    64    65    1
   123    64    61    1
   124    60    61    1
   125    77    75   ar
   126    77    78   ar
   127     2     3    1
   128     2     1    1
   129    65    66    1
   130    40    39    1
   131    61    62    1
   132    84    86    1
   133    84    83    1
   134    44    43    1
   135    66    67    2
   136    42    39    1
   137    42    43    1
   138   183   184    2
   139   217   215   am
   140    75    74   ar
   141    78    76   ar
   142    11    10    1
   143    11    12    1
   144    39    38    1
   145   209   207   am
   146    83    80    1
   147    79    80    1
   148   215   216    2
   149   215   214    1
   150    14    12   am
   151    14    15    1
   152    62    69   am
   153    62    63    2
   154   200   198   ar
   155    69    70    1
   156    74    76   ar
   157    74    73    1
   158    12    13    2
   159    36    35    1
   160    80    81    1
   161   207   208    2
   162   207   206    1
   163   214   211    1
   164    37    35    1
   165   210   211    1
   166    15    16    1
   167    35    34    2
   168    73    70    1
   169   198   199   ar
   170   198   197    1
   171    70    71    1
   172   211   212    1
   173    81    82    2
   174   206   205    1
   175    18    16   am
   176    18    19    1
   177    25    24    2
   178    16    17    2
   179    34    33    1
   180    22    19    1
   181    22    23    1
   182   197   194    1
   183   193   194    1
   184    95    93   am
   185    71    72    2
   186    33    32    1
   187   212   213    2
   188    19    20    1
   189   205   202    1
   190    24    23    1
   191    24    26   am
   192   194   195    1
   193    93    94    2
   194    93    92    1
   195   201   195   am
   196   201   202    1
   197    91    92    1
   198    91    88    1
   199    32    31    1
   200   195   196    2
   201   202   203    1
   202    87    88    1
   203    20    21    2
   204    88    89    1
   205    31    28    1
   206   203   204    2
   207    89    90    2
   208    27    28    1
   209    28    29    1
   210    29    30    2
