@<TRIPOS>MOLECULE
tmp/3tw5A01.pdb
 71 68 0 0 0
SMALL
GASTEIGER

@<TRIPOS>ATOM
      1  N         63.3300   -7.0190   21.2230 N.3    70  LYS70      -0.1231
      2  CA        64.2630   -6.2080   20.4410 C.3    70  LYS70       0.1693
      3  C         64.4130   -6.7850   19.0370 C.2    70  LYS70       0.2592
      4  O         64.1990   -7.9780   18.8280 O.2    70  LYS70      -0.2718
      5  CB        65.6220   -6.1220   21.1420 C.3    70  LYS70       0.0285
      6  CG        65.5700   -5.4330   22.5050 C.3    70  LYS70       0.0035
      7  CD        66.7540   -5.8100   23.3820 C.3    70  LYS70       0.0206
      8  CE        67.9060   -4.8350   23.2310 C.3    70  LYS70       0.1093
      9  NZ        67.6580   -3.5620   23.9670 N.3    70  LYS70      -0.1314
     10  N         64.7650   -5.9370   18.0760 N.am   71  ASP71      -0.1974
     11  CA        64.9560   -6.3890   16.7000 C.3    71  ASP71       0.1709
     12  C         66.2350   -7.2170   16.5910 C.2    71  ASP71       0.2293
     13  O         67.3210   -6.7410   16.9270 O.2    71  ASP71      -0.2864
     14  CB        64.9860   -5.2010   15.7290 C.3    71  ASP71       0.1436
     15  CG        65.1940   -5.6260   14.2790 C.2    71  ASP71       0.3671
     16  OD1       64.3220   -6.3300   13.7220 O.co2  71  ASP71      -0.2456
     17  OD2       66.2290   -5.2450   13.6930 O.co2  71  ASP71      -0.2456
     18  N         69.2090   -5.7300   14.3280 N.3    74  THR74      -0.1203
     19  CA        69.9210   -4.5680   14.8820 C.3    74  THR74       0.1994
     20  C         70.6670   -4.8670   16.1800 C.2    74  THR74       0.2617
     21  O         71.7300   -4.2920   16.4230 O.2    74  THR74      -0.2717
     22  CB        69.0070   -3.3230   15.0870 C.3    74  THR74       0.1784
     23  OG1       67.8780   -3.6710   15.8950 O.3    74  THR74      -0.2211
     24  CG2       68.5340   -2.7490   13.7470 C.3    74  THR74       0.0376
     25  N         70.1150   -5.7550   17.0080 N.am   75  PHE75      -0.1975
     26  CA        70.7830   -6.1490   18.2510 C.3    75  PHE75       0.1639
     27  C         72.0420   -6.9690   17.9830 C.2    75  PHE75       0.2290
     28  O         73.0700   -6.7540   18.6230 O.2    75  PHE75      -0.2864
     29  CB        69.8440   -6.9070   19.1940 C.3    75  PHE75       0.0560
     30  CG        70.5080   -7.3630   20.4690 C.ar   75  PHE75      -0.0200
     31  CD1       70.8010   -6.4550   21.4840 C.ar   75  PHE75      -0.0042
     32  CD2       70.8490   -8.6990   20.6540 C.ar   75  PHE75      -0.0042
     33  CE1       71.4210   -6.8740   22.6620 C.ar   75  PHE75      -0.0003
     34  CE2       71.4690   -9.1240   21.8300 C.ar   75  PHE75      -0.0003
     35  CZ        71.7550   -8.2110   22.8320 C.ar   75  PHE75      -0.0000
     36  N         74.6490   -4.7220   16.6930 N.3    78  ALA78      -0.1245
     37  CA        75.2350   -3.9760   17.8000 C.3    78  ALA78       0.1562
     38  C         76.3230   -4.8000   18.4700 C.2    78  ALA78       0.2260
     39  O         77.4110   -4.2930   18.7480 O.2    78  ALA78      -0.2867
     40  CB        74.1720   -3.5910   18.8010 C.3    78  ALA78       0.0290
     41  N         73.0270   -1.2150   31.9160 N.3   323  VAL323     -0.1231
     42  CA        72.7550   -1.5970   30.5340 C.3   323  VAL323      0.1692
     43  C         74.0000   -1.3240   29.6910 C.2   323  VAL323      0.2593
     44  O         74.5200   -0.2080   29.6750 O.2   323  VAL323     -0.2718
     45  CB        71.5210   -0.8630   29.9510 C.3   323  VAL323      0.0266
     46  CG1       71.2630   -1.3000   28.5200 C.3   323  VAL323      0.0020
     47  CG2       70.2900   -1.1330   30.7940 C.3   323  VAL323      0.0020
     48  N         74.4800   -2.3620   29.0140 N.am  324  THR324     -0.1939
     49  CA        75.6550   -2.2800   28.1520 C.3   324  THR324      0.2028
     50  C         75.3580   -1.4190   26.9190 C.2   324  THR324      0.2643
     51  O         74.1960   -1.2280   26.5530 O.2   324  THR324     -0.2714
     52  CB        76.1140   -3.7050   27.7450 C.3   324  THR324      0.1808
     53  OG1       76.5270   -4.4180   28.9150 O.3   324  THR324     -0.2208
     54  CG2       77.2720   -3.6750   26.7580 C.3   324  THR324      0.0379
     55  N         76.4060   -0.8920   26.2910 N.am  325  SER325     -0.1935
     56  CA        76.2480   -0.0920   25.0810 C.3   325  SER325      0.2055
     57  C         75.7330   -0.9200   23.8990 C.2   325  SER325      0.2643
     58  O         75.3470   -0.3620   22.8700 O.2   325  SER325     -0.2714
     59  CB        77.5580    0.6130   24.7190 C.3   325  SER325      0.2130
     60  OG        78.4830   -0.2820   24.1330 O.3   325  SER325     -0.2179
     61  N         75.7310   -2.2450   24.0500 N.am  326  VAL326     -0.1963
     62  CA        75.1580   -3.1420   23.0380 C.3   326  VAL326      0.1727
     63  C         73.6580   -3.3420   23.2680 C.2   326  VAL326      0.2616
     64  O         72.9630   -3.9090   22.4250 O.2   326  VAL326     -0.2715
     65  CB        75.8840   -4.5250   22.9600 C.3   326  VAL326      0.0290
     66  CG1       77.3950   -4.3530   22.9060 C.3   326  VAL326      0.0023
     67  CG2       75.4890   -5.4270   24.1170 C.3   326  VAL326      0.0023
     68  N         73.1700   -2.8730   24.4130 N.am  327  GLY327     -0.1955
     69  CA        71.7560   -2.9750   24.7530 C.3   327  GLY327      0.1869
     70  C         71.4490   -4.1490   25.6560 C.2   327  GLY327      0.2309
     71  O         70.2940   -4.5560   25.7920 O.2   327  GLY327     -0.2863
@<TRIPOS>BOND
     1    17    15   ar
     2    16    15   ar
     3    24    22    1
     4    15    14    1
     5    18    19    1
     6    19    22    1
     7    19    20    1
     8    22    23    1
     9    14    11    1
    10    20    21    2
    11    20    25   am
    12    12    11    1
    13    12    13    2
    14    36    37    1
    15    11    10    1
    16    25    26    1
    17    37    38    1
    18    37    40    1
    19    27    26    1
    20    27    28    2
    21    10     3   am
    22    26    29    1
    23    38    39    2
    24     4     3    2
    25     3     2    1
    26    29    30    1
    27     2     5    1
    28     2     1    1
    29    30    32   ar
    30    30    31   ar
    31    32    34   ar
    32     5     6    1
    33    31    33   ar
    34    34    35   ar
    35    64    63    2
    36     6     7    1
    37    33    35   ar
    38    58    57    2
    39    66    65    1
    40    65    62    1
    41    65    67    1
    42    62    63    1
    43    62    61    1
    44     8     7    1
    45     8     9    1
    46    63    68   am
    47    57    61   am
    48    57    56    1
    49    60    59    1
    50    68    69    1
    51    59    56    1
    52    69    70    1
    53    56    55    1
    54    70    71    2
    55    55    50   am
    56    51    50    2
    57    54    52    1
    58    50    49    1
    59    52    49    1
    60    52    53    1
    61    49    48    1
    62    46    45    1
    63    48    43   am
    64    44    43    2
    65    43    42    1
    66    45    42    1
    67    45    47    1
    68    42    41    1
