@<TRIPOS>MOLECULE
tmp/3twbC00.pdb
 168 160 0 0 0
SMALL
GASTEIGER

@<TRIPOS>ATOM
      1  N         43.1740  -45.9530   76.1690 N.3    42  THR42      -0.1203
      2  CA        42.0070  -45.5300   75.3740 C.3    42  THR42       0.1994
      3  C         40.7900  -46.4550   75.5780 C.2    42  THR42       0.2617
      4  O         39.6480  -45.9960   75.5900 O.2    42  THR42      -0.2717
      5  CB        42.4050  -45.4190   73.8570 C.3    42  THR42       0.1784
      6  OG1       41.3790  -44.7600   73.1100 O.3    42  THR42      -0.2211
      7  CG2       42.6670  -46.8220   73.2170 C.3    42  THR42       0.0376
      8  N         41.0430  -47.7570   75.7380 N.am   43  GLN43      -0.1979
      9  CA        39.9700  -48.7500   75.8900 C.3    43  GLN43       0.1601
     10  C         39.2320  -48.6490   77.2250 C.2    43  GLN43       0.2287
     11  O         38.1850  -49.2700   77.3790 O.2    43  GLN43      -0.2864
     12  CB        40.5120  -50.1860   75.7630 C.3    43  GLN43       0.0394
     13  CG        41.1520  -50.5740   74.3890 C.3    43  GLN43       0.0908
     14  CD        42.6040  -50.1230   74.2480 C.2    43  GLN43       0.2608
     15  OE1       43.1800  -49.4910   75.1580 O.2    43  GLN43      -0.2717
     16  NE2       43.2020  -50.4040   73.0730 N.am   43  GLN43      -0.0878
     17  N         54.3590  -46.2650   60.4360 N.3   127  HIS127     -0.1241
     18  CA        53.7560  -47.5320   60.0280 C.3   127  HIS127      0.1621
     19  C         53.4520  -47.5730   58.5310 C.2   127  HIS127      0.2264
     20  O         52.9870  -46.5880   57.9800 O.2   127  HIS127     -0.2867
     21  CB        52.4720  -47.8120   60.7940 C.3   127  HIS127      0.0745
     22  CG        52.6640  -47.9330   62.2750 C.ar  127  HIS127      0.0817
     23  ND1       51.6100  -47.9690   63.1630 N.ar  127  HIS127     -0.2268
     24  CD2       53.7870  -48.0240   63.0230 C.ar  127  HIS127      0.1154
     25  CE1       52.0760  -48.0790   64.3930 C.ar  127  HIS127      0.1986
     26  NE2       53.3950  -48.1040   64.3370 N.ar  127  HIS127     -0.2212
     27  N         57.9260  -49.5380   59.9880 N.3   152  ARG152     -0.1245
     28  CA        57.3500  -50.8230   60.3530 C.3   152  ARG152      0.1563
     29  C         56.5600  -51.3290   59.1510 C.2   152  ARG152      0.2260
     30  O         55.8410  -50.5550   58.5230 O.2   152  ARG152     -0.2867
     31  CB        56.4090  -50.7100   61.5470 C.3   152  ARG152      0.0307
     32  CG        55.8550  -52.0880   61.9780 C.3   152  ARG152      0.0489
     33  CD        54.9380  -51.9810   63.1520 C.3   152  ARG152      0.2205
     34  NE        53.5680  -51.6780   62.7390 N.pl3 152  ARG152     -0.0865
     35  CZ        52.5320  -51.6680   63.5690 C.cat 152  ARG152      0.5346
     36  NH1       52.7230  -51.8800   64.8770 N.pl3 152  ARG152      0.1354
     37  NH2       51.3040  -51.4380   63.0870 N.pl3 152  ARG152      0.1354
     38  N         48.0300  -55.7540   58.7590 N.3   157  MET157     -0.1230
     39  CA        48.2260  -55.3400   60.1700 C.3   157  MET157      0.1702
     40  C         48.7410  -56.4600   61.0980 C.2   157  MET157      0.2592
     41  O         49.8090  -57.0070   60.8300 O.2   157  MET157     -0.2718
     42  CB        46.9910  -54.6200   60.7100 C.3   157  MET157      0.0401
     43  CG        47.3270  -53.6340   61.8430 C.3   157  MET157      0.0596
     44  SD        45.7840  -52.9490   62.4620 S.3   157  MET157     -0.1393
     45  CE        46.4830  -51.5100   63.3170 C.3   157  MET157      0.0692
     46  N         47.9610  -56.8550   62.1090 N.am  158  TYR158     -0.1976
     47  CA        48.3280  -57.9370   63.0480 C.3   158  TYR158      0.1639
     48  C         47.6980  -59.2870   62.7020 C.2   158  TYR158      0.2290
     49  O         46.4660  -59.3960   62.5150 O.2   158  TYR158     -0.2864
     50  CB        47.9850  -57.5300   64.4960 C.3   158  TYR158      0.0560
     51  CG        48.5390  -56.1720   64.8360 C.ar  158  TYR158     -0.0198
     52  CD1       49.8770  -55.8620   64.5470 C.ar  158  TYR158     -0.0009
     53  CD2       47.7320  -55.1920   65.4060 C.ar  158  TYR158     -0.0009
     54  CE1       50.4020  -54.5990   64.8140 C.ar  158  TYR158      0.0417
     55  CE2       48.2470  -53.9070   65.7040 C.ar  158  TYR158      0.0417
     56  CZ        49.5720  -53.6290   65.3950 C.ar  158  TYR158      0.1957
     57  OH        50.1160  -52.3970   65.6660 O.3   158  TYR158     -0.2866
     58  N         40.8490  -48.5990   66.9070 N.3   168  LEU168     -0.1231
     59  CA        42.2770  -48.9640   66.9520 C.3   168  LEU168      0.1693
     60  C         43.2070  -47.8320   66.4830 C.2   168  LEU168      0.2591
     61  O         44.0220  -47.3320   67.2640 O.2   168  LEU168     -0.2718
     62  CB        42.5180  -50.2680   66.1850 C.3   168  LEU168      0.0284
     63  CG        43.9330  -50.8670   66.1000 C.3   168  LEU168      0.0019
     64  CD1       44.7120  -50.8770   67.4390 C.3   168  LEU168      0.0001
     65  CD2       43.7580  -52.2680   65.5620 C.3   168  LEU168      0.0001
     66  N         43.0960  -47.4230   65.2310 N.am  169  ILE169     -0.1980
     67  CA        43.9530  -46.3370   64.7160 C.3   169  ILE169      0.1595
     68  C         43.1740  -45.2820   63.9210 C.2   169  ILE169      0.2287
     69  O         43.7820  -44.4780   63.2190 O.2   169  ILE169     -0.2864
     70  CB        45.1340  -46.8540   63.8400 C.3   169  ILE169      0.0276
     71  CG1       44.6150  -47.6530   62.6270 C.3   169  ILE169      0.0022
     72  CG2       46.1260  -47.6930   64.6480 C.3   169  ILE169      0.0022
     73  CD1       45.7320  -47.9010   61.5810 C.3   169  ILE169      0.0001
     74  N         55.9690  -56.2550   63.6670 N.3   223  ASP223     -0.1239
     75  CA        55.3060  -56.4500   64.9480 C.3   223  ASP223      0.1674
     76  C         54.4990  -57.7530   64.9000 C.2   223  ASP223      0.2266
     77  O         53.5090  -57.8570   64.1670 O.2   223  ASP223     -0.2867
     78  CB        54.3790  -55.2520   65.2120 C.3   223  ASP223      0.1410
     79  CG        53.9040  -55.1450   66.6590 C.2   223  ASP223      0.3668
     80  OD1       53.9880  -56.1230   67.4350 O.co2 223  ASP223     -0.2456
     81  OD2       53.4120  -54.0350   67.0240 O.co2 223  ASP223     -0.2456
     82  N         52.9570  -58.9380   67.5360 N.3   225  HIS225     -0.1241
     83  CA        51.7790  -58.5170   68.2950 C.3   225  HIS225      0.1621
     84  C         51.1380  -59.7090   68.9720 C.2   225  HIS225      0.2264
     85  O         49.9140  -59.8900   68.9220 O.2   225  HIS225     -0.2867
     86  CB        50.7700  -57.7890   67.3860 C.3   225  HIS225      0.0745
     87  CG        49.9450  -56.7630   68.1010 C.ar  225  HIS225      0.0817
     88  ND1       48.8130  -57.0850   68.8190 N.ar  225  HIS225     -0.2268
     89  CD2       50.0870  -55.4190   68.2000 C.ar  225  HIS225      0.1154
     90  CE1       48.2890  -55.9790   69.3240 C.ar  225  HIS225      0.1986
     91  NE2       49.0400  -54.9550   68.9590 N.ar  225  HIS225     -0.2212
     92  N         59.1350  -57.2330   66.9880 N.3   249  GLU249     -0.1245
     93  CA        58.4510  -56.7370   68.1770 C.3   249  GLU249      0.1567
     94  C         57.4260  -57.7180   68.7140 C.2   249  GLU249      0.2260
     95  O         56.7010  -58.3230   67.9220 O.2   249  GLU249     -0.2867
     96  CB        57.7320  -55.4370   67.7880 C.3   249  GLU249      0.0388
     97  CG        56.9360  -54.7910   68.9240 C.3   249  GLU249      0.1160
     98  CD        56.2930  -53.4970   68.4540 C.2   249  GLU249      0.3649
     99  OE1       56.7360  -52.9340   67.4280 O.co2 249  GLU249     -0.2457
    100  OE2       55.3240  -53.0550   69.0980 O.co2 249  GLU249     -0.2457
    101  N         55.1440  -52.9760   75.1330 N.3   275  GLU275     -0.1245
    102  CA        53.9960  -52.0460   75.1600 C.3   275  GLU275      0.1567
    103  C         52.9110  -52.4700   76.1570 C.2   275  GLU275      0.2260
    104  O         52.2410  -51.6170   76.7330 O.2   275  GLU275     -0.2867
    105  CB        53.4100  -51.7750   73.7640 C.3   275  GLU275      0.0388
    106  CG        52.6530  -52.9770   73.1940 C.3   275  GLU275      0.1160
    107  CD        52.3320  -52.8300   71.7540 C.2   275  GLU275      0.3649
    108  OE1       53.2790  -52.5150   70.9660 O.co2 275  GLU275     -0.2457
    109  OE2       51.1550  -53.0800   71.3870 O.co2 275  GLU275     -0.2457
    110  N         59.7550  -51.3610   75.2030 N.3   296  ARG296     -0.1245
    111  CA        58.6970  -50.7250   74.4300 C.3   296  ARG296      0.1563
    112  C         57.5520  -50.1270   75.2390 C.2   296  ARG296      0.2260
    113  O         56.4790  -49.9060   74.6910 O.2   296  ARG296     -0.2867
    114  CB        58.0770  -51.7580   73.4800 C.3   296  ARG296      0.0307
    115  CG        59.0380  -52.2480   72.3930 C.3   296  ARG296      0.0489
    116  CD        58.9820  -51.3440   71.1600 C.3   296  ARG296      0.2205
    117  NE        57.6380  -51.3040   70.5870 N.pl3 296  ARG296     -0.0865
    118  CZ        57.0270  -50.2030   70.1430 C.cat 296  ARG296      0.5346
    119  NH1       57.6200  -48.9980   70.2180 N.pl3 296  ARG296      0.1354
    120  NH2       55.7970  -50.3070   69.6320 N.pl3 296  ARG296      0.1354
    121  N         56.4330  -46.7440   73.3470 N.3   325  HIS325     -0.1241
    122  CA        55.2540  -46.9050   72.5470 C.3   325  HIS325      0.1621
    123  C         54.7470  -45.5590   71.9630 C.2   325  HIS325      0.2264
    124  O         54.5410  -44.6460   72.6920 O.2   325  HIS325     -0.2867
    125  CB        54.1530  -47.5610   73.3900 C.3   325  HIS325      0.0745
    126  CG        53.0760  -48.2360   72.5980 C.ar  325  HIS325      0.0817
    127  ND1       51.7900  -48.3970   73.0520 N.ar  325  HIS325     -0.2268
    128  CD2       53.1150  -48.8370   71.3910 C.ar  325  HIS325      0.1154
    129  CE1       51.0750  -49.0170   72.1410 C.ar  325  HIS325      0.1986
    130  NE2       51.8540  -49.2850   71.1190 N.ar  325  HIS325     -0.2212
    131  N         51.7990  -45.0940   69.5220 N.3   327  PRO327     -0.2116
    132  CA        50.6800  -45.4480   68.6300 C.3   327  PRO327      0.1372
    133  C         49.7790  -44.2450   68.3550 C.2   327  PRO327      0.2244
    134  O         50.2180  -43.1170   68.5470 O.2   327  PRO327     -0.2868
    135  CB        49.8980  -46.4490   69.4620 C.3   327  PRO327      0.0268
    136  CG        50.0070  -45.8930   70.8680 C.3   327  PRO327      0.0207
    137  CD        51.4720  -45.3950   70.9360 C.3   327  PRO327      0.0892
    138  N         46.8300  -44.0810   70.0370 N.3   329  ASP329     -0.1239
    139  CA        46.2400  -43.9460   71.3650 C.3   329  ASP329      0.1674
    140  C         47.2570  -43.4550   72.4220 C.2   329  ASP329      0.2266
    141  O         47.6260  -44.1300   73.3920 O.2   329  ASP329     -0.2867
    142  CB        45.4670  -45.2120   71.7800 C.3   329  ASP329      0.1410
    143  CG        46.2890  -46.4980   71.6540 C.2   329  ASP329      0.3668
    144  OD1       46.9750  -46.7060   70.6310 O.co2 329  ASP329     -0.2456
    145  OD2       46.2050  -47.3000   72.6000 O.co2 329  ASP329     -0.2456
    146  N         58.8750  -44.6400   67.7150 N.3   352  GLU352     -0.1245
    147  CA        57.6450  -44.8970   66.9630 C.3   352  GLU352      0.1567
    148  C         56.7970  -43.6300   66.9510 C.2   352  GLU352      0.2260
    149  O         56.6010  -42.9590   67.9930 O.2   352  GLU352     -0.2867
    150  CB        56.8610  -46.0230   67.6260 C.3   352  GLU352      0.0388
    151  CG        55.5560  -46.3890   66.9100 C.3   352  GLU352      0.1160
    152  CD        54.8590  -47.5570   67.5790 C.2   352  GLU352      0.3649
    153  OE1       55.0210  -47.7200   68.8100 O.co2 352  GLU352     -0.2457
    154  OE2       54.1540  -48.2990   66.8580 O.co2 352  GLU352     -0.2457
    155  N         38.2220  -55.1050   67.8390 N.3   404  TRP404     -0.1241
    156  CA        39.4350  -55.7590   67.3020 C.3   404  TRP404      0.1605
    157  C         40.0630  -56.7380   68.2880 C.2   404  TRP404      0.2264
    158  O         40.7670  -57.6720   67.8930 O.2   404  TRP404     -0.2867
    159  CB        40.4730  -54.7210   66.8130 C.3   404  TRP404      0.0550
    160  CG        41.1710  -53.9300   67.9100 C.ar  404  TRP404      0.0003
    161  CD1       40.7520  -52.7540   68.4780 C.ar  404  TRP404      0.0946
    162  CD2       42.4090  -54.2730   68.5560 C.ar  404  TRP404      0.0152
    163  NE1       41.6610  -52.3450   69.4370 N.ar  404  TRP404     -0.2442
    164  CE2       42.6810  -53.2680   69.5040 C.ar  404  TRP404      0.0810
    165  CE3       43.3130  -55.3420   68.4220 C.ar  404  TRP404      0.0012
    166  CZ2       43.8410  -53.2820   70.3090 C.ar  404  TRP404      0.0191
    167  CZ3       44.4500  -55.3690   69.2200 C.ar  404  TRP404      0.0001
    168  CH2       44.7090  -54.3370   70.1610 C.ar  404  TRP404      0.0015
@<TRIPOS>BOND
     1    20    19    2
     2    30    29    2
     3    19    18    1
     4    38    39    1
     5    29    28    1
     6    27    28    1
     7    18    17    1
     8    18    21    1
     9    39    42    1
    10    39    40    1
    11    28    31    1
    12    42    43    1
    13    21    22    1
    14    41    40    2
    15    40    46   am
    16    31    32    1
    17    73    71    1
    18    43    44    1
    19    32    33    1
    20    46    47    1
    21    22    24   ar
    22    22    23   ar
    23    44    45    1
    24    49    48    2
    25    71    70    1
    26    48    47    1
    27    34    33    1
    28    34    35    2
    29    24    26   ar
    30    47    50    1
    31    37    35    1
    32    23    25   ar
    33    69    68    2
    34    35    36    1
    35    74    75    1
    36    70    72    1
    37    70    67    1
    38    68    67    1
    39    77    76    2
    40    26    25   ar
    41    50    51    1
    42    52    54   ar
    43    52    51   ar
    44    67    66    1
    45    54    56   ar
    46    51    53   ar
    47    76    75    1
    48    75    78    1
    49    78    79    1
    50    66    60   am
    51    56    57    1
    52    56    55   ar
    53    53    55   ar
    54    65    63    1
    55    63    62    1
    56    63    64    1
    57    62    59    1
    58    60    59    1
    59    60    61    2
    60    79    81   ar
    61    79    80   ar
    62   159   156    1
    63   159   160    1
    64   154   152   ar
    65    58    59    1
    66   151   152    1
    67   151   150    1
    68   148   147    1
    69   148   149    2
    70   147   150    1
    71   147   146    1
    72    92    93    1
    73   156   155    1
    74   156   157    1
    75    86    87    1
    76    86    83    1
    77    99    98   ar
    78    82    83    1
    79   152   153   ar
    80    96    93    1
    81    96    97    1
    82   158   157    2
    83   160   161   ar
    84   160   162   ar
    85    95    94    2
    86    87    89   ar
    87    87    88   ar
    88    93    94    1
    89    89    91   ar
    90    83    84    1
    91   133   134    2
    92   133   132    1
    93   165   162   ar
    94   165   167   ar
    95    98    97    1
    96    98   100   ar
    97   161   163   ar
    98   162   164   ar
    99   132   135    1
   100   132   131    1
   101    88    90   ar
   102    85    84    2
   103    91    90   ar
   104   167   168   ar
   105   163   164   ar
   106   135   136    1
   107   164   166   ar
   108   131   137    1
   109   120   118    1
   110   138   139    1
   111   118   119    1
   112   118   117    2
   113   168   166   ar
   114   117   116    1
   115   144   143   ar
   116   136   137    1
   117   108   107   ar
   118   130   128   ar
   119   130   129   ar
   120   116   115    1
   121   139   142    1
   122   139   140    1
   123   109   107   ar
   124   128   126   ar
   125   143   142    1
   126   143   145   ar
   127   107   106    1
   128   123   122    1
   129   123   124    2
   130   129   127   ar
   131   115   114    1
   132   140   141    2
   133   122   121    1
   134   122   125    1
   135   126   127   ar
   136   126   125    1
   137    16    14   am
   138     6     5    1
   139   106   105    1
   140     7     5    1
   141   114   111    1
   142   105   102    1
   143     5     2    1
   144    14    13    1
   145    14    15    2
   146    13    12    1
   147   111   110    1
   148   111   112    1
   149   113   112    2
   150   101   102    1
   151   102   103    1
   152     2     3    1
   153     2     1    1
   154     3     4    2
   155     3     8   am
   156     8     9    1
   157    12     9    1
   158     9    10    1
   159   103   104    2
   160    10    11    2
