@<TRIPOS>MOLECULE
tmp/3twdB00.pdb
 98 97 0 0 0
SMALL
GASTEIGER

@<TRIPOS>ATOM
      1  N         38.2550   15.9480    6.6860 N.3   135  TYR135     -0.1241
      2  CA        38.9430   14.7480    6.2760 C.3   135  TYR135      0.1605
      3  C         38.3240   13.5690    7.0080 C.2   135  TYR135      0.2264
      4  O         38.2720   13.5470    8.2520 O.2   135  TYR135     -0.2867
      5  CB        40.4420   14.8170    6.5810 C.3   135  TYR135      0.0534
      6  CG        41.1470   13.4670    6.4110 C.ar  135  TYR135     -0.0201
      7  CD1       41.2350   12.8560    5.1810 C.ar  135  TYR135     -0.0009
      8  CD2       41.7060   12.8110    7.4870 C.ar  135  TYR135     -0.0009
      9  CE1       41.8460   11.6230    5.0190 C.ar  135  TYR135      0.0417
     10  CE2       42.3320   11.5730    7.3250 C.ar  135  TYR135      0.0417
     11  CZ        42.4020   10.9980    6.1040 C.ar  135  TYR135      0.1957
     12  OH        43.0570    9.7750    5.9530 O.3   135  TYR135     -0.2866
     13  N         37.6580   16.2200   11.5060 N.3   152  ILE152     -0.1231
     14  CA        38.7730   15.4120   11.0600 C.3   152  ILE152      0.1692
     15  C         38.8300   14.1060   11.8220 C.2   152  ILE152      0.2593
     16  O         38.7820   14.0950   13.0680 O.2   152  ILE152     -0.2718
     17  CB        40.0800   16.1880   11.2880 C.3   152  ILE152      0.0266
     18  CG1       40.1860   17.3810   10.3100 C.3   152  ILE152      0.0019
     19  CG2       41.3050   15.2890   11.1900 C.3   152  ILE152      0.0020
     20  CD1       41.3810   18.3160   10.6100 C.3   152  ILE152      0.0001
     21  N         38.9760   13.0060   11.0850 N.am  153  THR153     -0.1939
     22  CA        39.3640   11.7150   11.6950 C.3   153  THR153      0.2028
     23  C         40.8710   11.6450   11.8920 C.2   153  THR153      0.2642
     24  O         41.6290   11.7710   10.9300 O.2   153  THR153     -0.2714
     25  CB        38.9720   10.5410   10.8400 C.3   153  THR153      0.1808
     26  OG1       39.5080   10.7220    9.5230 O.3   153  THR153     -0.2208
     27  CG2       37.4320   10.4070   10.7870 C.3   153  THR153      0.0379
     28  N         41.3010   11.4510   13.1420 N.am  154  CYS154     -0.1953
     29  CA        42.7150   11.3050   13.4420 C.3   154  CYS154      0.1843
     30  C         42.9760    9.8100   13.3760 C.2   154  CYS154      0.2625
     31  O         42.8160    9.1090   14.3650 O.2   154  CYS154     -0.2714
     32  CB        43.0740   11.8900   14.8140 C.3   154  CYS154      0.0997
     33  SG        42.4510   13.5750   15.1140 S.3   154  CYS154     -0.0797
     34  N         43.3200    9.3350   12.1840 N.am  155  ASN155     -0.1958
     35  CA        43.3390    7.8930   11.9110 C.3   155  ASN155      0.1819
     36  C         44.7140    7.2600   11.9620 C.2   155  ASN155      0.2621
     37  O         44.8160    6.0440   11.9840 O.2   155  ASN155     -0.2715
     38  CB        42.7040    7.5620   10.5570 C.3   155  ASN155      0.1195
     39  CG        43.3580    8.2990    9.3700 C.2   155  ASN155      0.2630
     40  OD1       43.9110    9.3960    9.5060 O.2   155  ASN155     -0.2716
     41  ND2       43.2830    7.6870    8.2100 N.am  155  ASN155     -0.0877
     42  N         45.7530    8.0920   11.9300 N.am  156  TYR156     -0.1960
     43  CA        47.1200    7.6600   11.7350 C.3   156  TYR156      0.1771
     44  C         47.9260    8.1310   12.9120 C.2   156  TYR156      0.2619
     45  O         47.9580    9.3170   13.1960 O.2   156  TYR156     -0.2715
     46  CB        47.6470    8.2980   10.4540 C.3   156  TYR156      0.0574
     47  CG        49.1060    8.1110   10.1820 C.ar  156  TYR156     -0.0198
     48  CD1       49.6640    6.8390   10.0750 C.ar  156  TYR156     -0.0009
     49  CD2       49.9390    9.2140    9.9880 C.ar  156  TYR156     -0.0009
     50  CE1       50.9980    6.6720    9.7950 C.ar  156  TYR156      0.0417
     51  CE2       51.2810    9.0490    9.7310 C.ar  156  TYR156      0.0417
     52  CZ        51.8000    7.7750    9.6220 C.ar  156  TYR156      0.1957
     53  OH        53.1380    7.6170    9.3430 O.3   156  TYR156     -0.2866
     54  N         48.5890    7.2110   13.5960 N.am  157  ASP157     -0.1971
     55  CA        49.3600    7.5760   14.7940 C.3   157  ASP157      0.1709
     56  C         50.8560    7.6410   14.5520 C.2   157  ASP157      0.2293
     57  O         51.6340    7.7110   15.5100 O.2   157  ASP157     -0.2864
     58  CB        49.0410    6.6180   15.9460 C.3   157  ASP157      0.1436
     59  CG        49.5940    5.2230   15.7320 C.2   157  ASP157      0.3671
     60  OD1       50.1510    4.9440   14.6590 O.co2 157  ASP157     -0.2456
     61  OD2       49.4720    4.4040   16.6590 O.co2 157  ASP157     -0.2456
     62  N         43.8050    3.5020   12.2880 N.3   162  PHE162     -0.1241
     63  CA        42.7220    2.9890   13.1440 C.3   162  PHE162      0.1605
     64  C         41.3600    3.4960   12.6850 C.2   162  PHE162      0.2264
     65  O         41.2630    4.5390   12.0420 O.2   162  PHE162     -0.2867
     66  CB        42.9490    3.4040   14.5830 C.3   162  PHE162      0.0534
     67  CG        44.2020    2.8410   15.1770 C.ar  162  PHE162     -0.0203
     68  CD1       45.3930    3.5240   15.0650 C.ar  162  PHE162     -0.0042
     69  CD2       44.1980    1.6110   15.8020 C.ar  162  PHE162     -0.0042
     70  CE1       46.5560    3.0150   15.5960 C.ar  162  PHE162     -0.0003
     71  CE2       45.3720    1.0980   16.3370 C.ar  162  PHE162     -0.0003
     72  CZ        46.5360    1.8060   16.2350 C.ar  162  PHE162     -0.0000
     73  N         39.3950   10.9370   17.5190 N.3   179  VAL179     -0.1231
     74  CA        40.6920   10.2990   17.7030 C.3   179  VAL179      0.1692
     75  C         40.5340    8.7690   17.6970 C.2   179  VAL179      0.2592
     76  O         40.0250    8.1600   18.6480 O.2   179  VAL179     -0.2718
     77  CB        41.3940   10.7640   18.9600 C.3   179  VAL179      0.0266
     78  CG1       42.8020   10.1760   18.9940 C.3   179  VAL179      0.0020
     79  CG2       41.4140   12.2990   19.0310 C.3   179  VAL179      0.0020
     80  N         40.9550    8.1640   16.6000 N.am  180  ALA180     -0.1966
     81  CA        40.6840    6.7450   16.3710 C.3   180  ALA180      0.1713
     82  C         41.6270    5.8660   17.1520 C.2   180  ALA180      0.2458
     83  O         42.7640    6.2660   17.4520 O.2   180  ALA180     -0.2730
     84  CB        40.7470    6.4070   14.8800 C.3   180  ALA180      0.0333
     85  N         41.1720    4.6430   17.4910 N.am  181  PRO181     -0.2727
     86  CA        39.8320    4.1230   17.2580 C.3   181  PRO181      0.1402
     87  C         38.8230    4.6850   18.2300 C.2   181  PRO181      0.2269
     88  O         39.1030    4.8130   19.4420 O.2   181  PRO181     -0.2865
     89  CB        39.9910    2.6050   17.5060 C.3   181  PRO181      0.0296
     90  CG        41.0520    2.5160   18.4980 C.3   181  PRO181      0.0237
     91  CD        42.0310    3.6310   18.1450 C.3   181  PRO181      0.0939
     92  N         38.2660   11.4180   22.4330 N.3   197  THR197     -0.1218
     93  CA        39.2760   10.4020   22.7200 C.3   197  THR197      0.1862
     94  C         38.6570    9.1200   23.2880 C.2   197  THR197      0.2287
     95  O         39.3570    8.1130   23.4060 O.2   197  THR197     -0.2866
     96  CB        40.2990   10.9170   23.7510 C.3   197  THR197      0.1770
     97  OG1       39.6200   11.1910   24.9900 O.3   197  THR197     -0.2211
     98  CG2       40.9770   12.1990   23.2330 C.3   197  THR197      0.0375
@<TRIPOS>BOND
     1     9     7   ar
     2     9    11   ar
     3     7     6   ar
     4    12    11    1
     5    11    10   ar
     6     2     5    1
     7     2     1    1
     8     2     3    1
     9     6     5    1
    10     6     8   ar
    11     3     4    2
    12    10     8   ar
    13    41    39   am
    14    53    52    1
    15    39    40    2
    16    39    38    1
    17    26    25    1
    18    52    51   ar
    19    52    50   ar
    20    51    49   ar
    21    50    48   ar
    22    49    47   ar
    23    48    47   ar
    24    47    46    1
    25    18    20    1
    26    18    17    1
    27    46    43    1
    28    38    35    1
    29    27    25    1
    30    25    22    1
    31    24    23    2
    32    14    17    1
    33    14    13    1
    34    14    15    1
    35    21    22    1
    36    21    15   am
    37    19    17    1
    38    22    23    1
    39    43    42    1
    40    43    44    1
    41    15    16    2
    42    23    28   am
    43    35    36    1
    44    35    34    1
    45    42    36   am
    46    36    37    2
    47    65    64    2
    48    34    30   am
    49    62    63    1
    50    64    63    1
    51    44    45    2
    52    44    54   am
    53    28    29    1
    54    63    66    1
    55    30    29    1
    56    30    31    2
    57    29    32    1
    58    54    55    1
    59    56    55    1
    60    56    57    2
    61    66    67    1
    62    60    59   ar
    63    55    58    1
    64    32    33    1
    65    84    81    1
    66    68    67   ar
    67    68    70   ar
    68    67    69   ar
    69    70    72   ar
    70    59    58    1
    71    59    61   ar
    72    69    71   ar
    73    72    71   ar
    74    81    80    1
    75    81    82    1
    76    80    75   am
    77    82    83    2
    78    82    85   am
    79    86    85    1
    80    86    89    1
    81    86    87    1
    82    85    91    1
    83    89    90    1
    84    73    74    1
    85    75    74    1
    86    75    76    2
    87    74    77    1
    88    91    90    1
    89    87    88    2
    90    77    78    1
    91    77    79    1
    92    92    93    1
    93    93    94    1
    94    93    96    1
    95    98    96    1
    96    94    95    2
    97    96    97    1
