@<TRIPOS>MOLECULE
tmp/3twdA00.pdb
 115 110 0 0 0
SMALL
GASTEIGER

@<TRIPOS>ATOM
      1  N         31.9180  -20.4870   -4.4220 N.3   132  HIS132     -0.1241
      2  CA        32.9980  -21.4730   -4.3530 C.3   132  HIS132      0.1621
      3  C         34.2580  -21.1390   -5.1310 C.2   132  HIS132      0.2264
      4  O         34.1840  -20.8320   -6.3140 O.2   132  HIS132     -0.2867
      5  CB        32.5620  -22.8560   -4.8850 C.3   132  HIS132      0.0745
      6  CG        31.1060  -23.0160   -5.1700 C.ar  132  HIS132      0.0817
      7  ND1       30.3610  -24.0260   -4.6000 N.ar  132  HIS132     -0.2268
      8  CD2       30.2850  -22.3950   -6.0540 C.ar  132  HIS132      0.1154
      9  CE1       29.1260  -23.9810   -5.0740 C.ar  132  HIS132      0.1986
     10  NE2       29.0500  -22.9990   -5.9550 N.ar  132  HIS132     -0.2212
     11  N         25.1490  -14.2810  -10.5000 N.3   146  ASN146     -0.1225
     12  CA        25.6880  -15.5610  -10.0700 C.3   146  ASN146      0.1785
     13  C         27.1390  -15.6760  -10.5080 C.2   146  ASN146      0.2597
     14  O         27.4370  -15.6790  -11.7150 O.2   146  ASN146     -0.2718
     15  CB        24.8900  -16.7380  -10.6140 C.3   146  ASN146      0.1169
     16  CG        25.4060  -18.0640  -10.0850 C.2   146  ASN146      0.2627
     17  OD1       25.2160  -18.3790   -8.9060 O.2   146  ASN146     -0.2716
     18  ND2       26.1190  -18.8280  -10.9310 N.am  146  ASN146     -0.0877
     19  N         28.0480  -15.7130   -9.5340 N.am  147  ILE147     -0.1966
     20  CA        29.4680  -15.8910   -9.8150 C.3   147  ILE147      0.1727
     21  C         29.8030  -17.3790   -9.6460 C.2   147  ILE147      0.2617
     22  O         29.9010  -17.9040   -8.5430 O.2   147  ILE147     -0.2715
     23  CB        30.3780  -14.9820   -8.9280 C.3   147  ILE147      0.0290
     24  CG1       30.0360  -13.4890   -9.0930 C.3   147  ILE147      0.0022
     25  CG2       31.8610  -15.2670   -9.2110 C.3   147  ILE147      0.0023
     26  CD1       30.3900  -12.8470  -10.4840 C.3   147  ILE147      0.0001
     27  N         29.9760  -18.0700  -10.7590 N.am  148  GLY148     -0.1940
     28  CA        30.1470  -19.4980  -10.7170 C.3   148  GLY148      0.2014
     29  C         31.4200  -19.9350  -10.0280 C.2   148  GLY148      0.2638
     30  O         32.3860  -19.1660   -9.9240 O.2   148  GLY148     -0.2714
     31  N         31.4240  -21.1810   -9.5680 N.am  149  ALA149     -0.1977
     32  CA        32.5980  -21.7420   -8.9180 C.3   149  ALA149      0.1597
     33  C         33.8120  -21.5720   -9.8080 C.2   149  ALA149      0.2287
     34  O         33.7110  -21.7620  -11.0420 O.2   149  ALA149     -0.2864
     35  CB        32.3730  -23.2180   -8.6190 C.3   149  ALA149      0.0319
     36  N         24.9930  -13.9440  -15.3260 N.3   171  PHE171     -0.1227
     37  CA        25.3880  -15.3010  -14.9550 C.3   171  PHE171      0.1736
     38  C         26.8350  -15.5050  -15.4150 C.2   171  PHE171      0.2595
     39  O         27.1290  -15.4250  -16.6200 O.2   171  PHE171     -0.2718
     40  CB        24.4980  -16.3060  -15.6410 C.3   171  PHE171      0.0547
     41  CG        24.7750  -17.7350  -15.2530 C.ar  171  PHE171     -0.0202
     42  CD1       24.0730  -18.3270  -14.2190 C.ar  171  PHE171     -0.0042
     43  CD2       25.7230  -18.4930  -15.9380 C.ar  171  PHE171     -0.0042
     44  CE1       24.3230  -19.6660  -13.8520 C.ar  171  PHE171     -0.0003
     45  CE2       25.9760  -19.8260  -15.5660 C.ar  171  PHE171     -0.0003
     46  CZ        25.2710  -20.4010  -14.5350 C.ar  171  PHE171     -0.0000
     47  N         27.7350  -15.7380  -14.4590 N.am  172  VAL172     -0.1966
     48  CA        29.1360  -16.0420  -14.7910 C.3   172  VAL172      0.1727
     49  C         29.3570  -17.5440  -14.6220 C.2   172  VAL172      0.2617
     50  O         29.3060  -18.1010  -13.4830 O.2   172  VAL172     -0.2715
     51  CB        30.1490  -15.2230  -13.9810 C.3   172  VAL172      0.0290
     52  CG1       31.5840  -15.5530  -14.4570 C.3   172  VAL172      0.0023
     53  CG2       29.8660  -13.7000  -14.1120 C.3   172  VAL172      0.0023
     54  N         29.5650  -18.2200  -15.7520 N.am  173  GLY173     -0.1940
     55  CA        29.7280  -19.6710  -15.7180 C.3   173  GLY173      0.2014
     56  C         31.0080  -20.0540  -14.9790 C.2   173  GLY173      0.2639
     57  O         31.9480  -19.2450  -14.8470 O.2   173  GLY173     -0.2714
     58  N         31.0610  -21.2960  -14.5160 N.am  174  SER174     -0.1949
     59  CA        32.2110  -21.7900  -13.7640 C.3   174  SER174      0.1924
     60  C         33.5480  -21.6410  -14.4790 C.2   174  SER174      0.2314
     61  O         33.6520  -21.8380  -15.6890 O.2   174  SER174     -0.2863
     62  CB        32.0530  -23.2830  -13.4780 C.3   174  SER174      0.2116
     63  OG        30.7920  -23.5630  -12.9440 O.3   174  SER174     -0.2180
     64  N         25.5200  -13.3860  -20.1580 N.3   189  THR189     -0.1203
     65  CA        25.8460  -14.7350  -19.7210 C.3   189  THR189      0.1994
     66  C         27.2630  -15.0050  -20.1840 C.2   189  THR189      0.2618
     67  O         27.5790  -14.7760  -21.3430 O.2   189  THR189     -0.2717
     68  CB        24.9100  -15.7900  -20.3320 C.3   189  THR189      0.1784
     69  OG1       23.5580  -15.5080  -19.9530 O.3   189  THR189     -0.2211
     70  CG2       25.2810  -17.2040  -19.8510 C.3   189  THR189      0.0376
     71  N         28.1300  -15.4180  -19.2630 N.am  190  ILE190     -0.1965
     72  CA        29.4440  -15.9430  -19.6170 C.3   190  ILE190      0.1727
     73  C         29.4660  -17.4770  -19.5240 C.2   190  ILE190      0.2616
     74  O         29.2120  -18.0610  -18.4730 O.2   190  ILE190     -0.2715
     75  CB        30.5630  -15.3660  -18.7350 C.3   190  ILE190      0.0290
     76  CG1       30.4170  -13.8520  -18.5430 C.3   190  ILE190      0.0022
     77  CG2       31.9460  -15.7370  -19.2980 C.3   190  ILE190      0.0023
     78  CD1       30.3790  -13.0450  -19.8120 C.3   190  ILE190      0.0001
     79  N         29.7830  -18.1300  -20.6360 N.am  191  ALA191     -0.1963
     80  CA        29.8590  -19.5780  -20.7010 C.3   191  ALA191      0.1728
     81  C         30.9190  -20.1080  -19.7450 C.2   191  ALA191      0.2616
     82  O         31.9750  -19.4800  -19.5330 O.2   191  ALA191     -0.2715
     83  CB        30.1330  -20.0420  -22.1450 C.3   191  ALA191      0.0334
     84  N         30.6590  -21.2570  -19.1380 N.am  192  ALA192     -0.1977
     85  CA        31.7090  -21.8820  -18.3060 C.3   192  ALA192      0.1597
     86  C         33.0310  -22.0030  -19.0610 C.2   192  ALA192      0.2287
     87  O         33.0570  -22.4190  -20.2190 O.2   192  ALA192     -0.2864
     88  CB        31.2610  -23.2820  -17.8050 C.3   192  ALA192      0.0319
     89  N         25.5900  -13.4570  -24.7590 N.3   205  LEU205     -0.1245
     90  CA        26.4670  -14.5600  -24.3520 C.3   205  LEU205      0.1561
     91  C         27.8950  -14.2510  -24.8010 C.2   205  LEU205      0.2260
     92  O         28.1220  -13.8470  -25.9610 O.2   205  LEU205     -0.2867
     93  CB        26.0350  -15.8570  -25.0190 C.3   205  LEU205      0.0270
     94  CG        26.9600  -17.0710  -24.8110 C.3   205  LEU205      0.0019
     95  CD1       26.7590  -17.6980  -23.4180 C.3   205  LEU205      0.0001
     96  CD2       26.8220  -18.1190  -25.9450 C.3   205  LEU205      0.0001
     97  N         31.6170  -16.3330  -25.0380 N.3   207  ILE207     -0.1245
     98  CA        32.0920  -17.7030  -25.0890 C.3   207  ILE207      0.1561
     99  C         33.4580  -17.7650  -25.8110 C.2   207  ILE207      0.2260
    100  O         33.7400  -16.9510  -26.6690 O.2   207  ILE207     -0.2867
    101  CB        31.0160  -18.6120  -25.7540 C.3   207  ILE207      0.0252
    102  CG1       31.3230  -20.1040  -25.5240 C.3   207  ILE207      0.0019
    103  CG2       30.8160  -18.2590  -27.2630 C.3   207  ILE207      0.0019
    104  CD1       30.1930  -21.0290  -26.0200 C.3   207  ILE207      0.0001
    105  N         35.3170  -21.2380  -26.5840 N.3   209  ARG209     -0.1245
    106  CA        35.2710  -22.6500  -26.2850 C.3   209  ARG209      0.1563
    107  C         35.6470  -23.4720  -27.5110 C.2   209  ARG209      0.2260
    108  O         35.1090  -23.2500  -28.5960 O.2   209  ARG209     -0.2867
    109  CB        33.8460  -22.9660  -25.8290 C.3   209  ARG209      0.0307
    110  CG        33.6150  -24.4070  -25.4920 C.3   209  ARG209      0.0489
    111  CD        32.2200  -24.5940  -25.0050 C.3   209  ARG209      0.2205
    112  NE        32.0370  -24.0600  -23.6570 N.pl3 209  ARG209     -0.0865
    113  CZ        30.8810  -24.0690  -23.0250 C.cat 209  ARG209      0.5346
    114  NH1       29.8150  -24.5770  -23.6130 N.pl3 209  ARG209      0.1354
    115  NH2       30.8010  -23.5990  -21.7990 N.pl3 209  ARG209      0.1354
@<TRIPOS>BOND
     1   108   107    2
     2   107   106    1
     3   103   101    1
     4   100    99    2
     5   105   106    1
     6   106   109    1
     7   104   102    1
     8    92    91    2
     9    96    94    1
    10   109   110    1
    11    99    98    1
    12   101   102    1
    13   101    98    1
    14   110   111    1
    15    98    97    1
    16    93    94    1
    17    93    90    1
    18   111   112    1
    19    94    95    1
    20    91    90    1
    21    89    90    1
    22   112   113    2
    23   114   113    1
    24   113   115    1
    25    83    80    1
    26    67    66    2
    27    80    79    1
    28    80    81    1
    29    79    73   am
    30    68    69    1
    31    68    70    1
    32    68    65    1
    33    87    86    2
    34    66    65    1
    35    66    71   am
    36    64    65    1
    37    78    76    1
    38    81    82    2
    39    81    84   am
    40    72    73    1
    41    72    71    1
    42    72    75    1
    43    73    74    2
    44    77    75    1
    45    84    85    1
    46    86    85    1
    47    75    76    1
    48    85    88    1
    49    39    38    2
    50    43    45   ar
    51    43    41   ar
    52    54    55    1
    53    54    49   am
    54    55    56    1
    55    61    60    2
    56    40    41    1
    57    40    37    1
    58    45    46   ar
    59    38    37    1
    60    38    47   am
    61    36    37    1
    62    41    42   ar
    63    56    57    2
    64    56    58   am
    65    48    49    1
    66    48    47    1
    67    48    51    1
    68    49    50    2
    69    46    44   ar
    70    58    59    1
    71    60    59    1
    72    52    51    1
    73    42    44   ar
    74    53    51    1
    75    59    62    1
    76    62    63    1
    77    14    13    2
    78    34    33    2
    79    18    16   am
    80    27    28    1
    81    27    21   am
    82    28    29    1
    83    15    16    1
    84    15    12    1
    85    13    12    1
    86    13    19   am
    87    11    12    1
    88    26    24    1
    89    16    17    2
    90    29    30    2
    91    29    31   am
    92    20    21    1
    93    20    19    1
    94    20    23    1
    95    33    32    1
    96    21    22    2
    97    31    32    1
    98    25    23    1
    99    24    23    1
   100    32    35    1
   101     4     3    2
   102     8    10   ar
   103     8     6   ar
   104    10     9   ar
   105     6     5    1
   106     6     7   ar
   107     3     2    1
   108     9     7   ar
   109     5     2    1
   110     1     2    1
