@<TRIPOS>MOLECULE
tmp/3twjA00.pdb
 208 199 0 0 0
SMALL
GASTEIGER

@<TRIPOS>ATOM
      1  N         11.6920   26.1860   15.5010 N.3    76  ILE76      -0.1231
      2  CA        11.0290   27.2320   16.2690 C.3    76  ILE76       0.1692
      3  C         11.1340   28.6300   15.6480 C.2    76  ILE76       0.2593
      4  O         10.6990   29.6270   16.2390 O.2    76  ILE76      -0.2718
      5  CB        11.5110   27.2220   17.7290 C.3    76  ILE76       0.0266
      6  CG1       11.3950   25.7980   18.2800 C.3    76  ILE76       0.0019
      7  CG2       10.7190   28.2230   18.5660 C.3    76  ILE76       0.0020
      8  CD1       10.1580   25.0220   17.7920 C.3    76  ILE76       0.0001
      9  N         11.7330   28.7020   14.4660 N.am   77  GLY77      -0.1942
     10  CA        11.7410   29.9360   13.7060 C.3    77  GLY77       0.2014
     11  C         12.6900   29.8390   12.5320 C.2    77  GLY77       0.2639
     12  O         13.5290   28.9400   12.4900 O.2    77  GLY77      -0.2714
     13  N         12.5520   30.7320   11.5580 N.am   78  ARG78      -0.1963
     14  CA        13.5130   30.7620   10.4640 C.3    78  ARG78       0.1729
     15  C         13.9060   32.1980   10.1170 C.2    78  ARG78       0.2616
     16  O         13.0900   32.9660    9.5980 O.2    78  ARG78      -0.2715
     17  CB        12.9860   29.9740    9.2450 C.3    78  ARG78       0.0348
     18  CG        12.7260   28.4680    9.5340 C.3    78  ARG78       0.0492
     19  CD        11.9510   27.7380    8.4220 C.3    78  ARG78       0.2205
     20  NE        12.5790   27.8860    7.1100 N.pl3  78  ARG78      -0.0865
     21  CZ        12.1910   27.2580    6.0000 C.cat  78  ARG78       0.5346
     22  NH1       11.1660   26.4120    6.0210 N.pl3  78  ARG78       0.1354
     23  NH2       12.8370   27.4760    4.8630 N.pl3  78  ARG78       0.1354
     24  N         15.1700   32.5430   10.3640 N.am   79  GLY79      -0.1955
     25  CA        15.6150   33.9220   10.2550 C.3    79  GLY79       0.1869
     26  C         16.3630   34.2600    8.9800 C.2    79  GLY79       0.2309
     27  O         17.0720   35.2720    8.9030 O.2    79  GLY79      -0.2863
     28  N         19.0480   33.6430    7.7650 N.3    81  PHE81      -0.1227
     29  CA        20.4250   33.1310    7.7690 C.3    81  PHE81       0.1736
     30  C         20.4650   31.7110    8.2760 C.2    81  PHE81       0.2596
     31  O         21.5200   31.0690    8.2710 O.2    81  PHE81      -0.2718
     32  CB        21.3980   33.9970    8.5720 C.3    81  PHE81       0.0547
     33  CG        21.9060   35.1720    7.8130 C.ar   81  PHE81      -0.0202
     34  CD1       22.3460   35.0360    6.5070 C.ar   81  PHE81      -0.0042
     35  CD2       21.8940   36.4340    8.3880 C.ar   81  PHE81      -0.0042
     36  CE1       22.8060   36.1510    5.7850 C.ar   81  PHE81      -0.0003
     37  CE2       22.3340   37.5510    7.6830 C.ar   81  PHE81      -0.0003
     38  CZ        22.7960   37.4100    6.3780 C.ar   81  PHE81      -0.0000
     39  N         19.3060   31.2240    8.7010 N.am   82  GLY82      -0.1942
     40  CA        19.2030   29.8750    9.2210 C.3    82  GLY82       0.2014
     41  C         17.9320   29.7330   10.0280 C.2    82  GLY82       0.2639
     42  O         17.0330   30.5760    9.9380 O.2    82  GLY82      -0.2714
     43  N         17.8610   28.6740   10.8230 N.am   83  GLU83      -0.1963
     44  CA        16.6530   28.3710   11.5740 C.3    83  GLU83       0.1733
     45  C         16.9340   28.0900   13.0440 C.2    83  GLU83       0.2616
     46  O         17.9520   27.4920   13.3950 O.2    83  GLU83      -0.2715
     47  CB        15.9410   27.1730   10.9450 C.3    83  GLU83       0.0429
     48  CG        16.8210   25.9540   10.7140 C.3    83  GLU83       0.1163
     49  CD        16.0500   24.7910   10.0860 C.2    83  GLU83       0.3649
     50  OE1       14.8060   24.8880    9.9190 O.co2  83  GLU83      -0.2457
     51  OE2       16.6970   23.7770    9.7520 O.co2  83  GLU83      -0.2457
     52  N         16.0260   28.5070   13.9120 N.am   84  VAL84      -0.1977
     53  CA        16.1160   28.0680   15.2990 C.3    84  VAL84       0.1596
     54  C         15.4040   26.7120   15.5040 C.2    84  VAL84       0.2287
     55  O         14.2540   26.5200   15.0720 O.2    84  VAL84      -0.2864
     56  CB        15.6330   29.1510   16.2800 C.3    84  VAL84       0.0276
     57  CG1       16.0450   28.7860   17.6800 C.3    84  VAL84       0.0022
     58  CG2       16.2200   30.4870   15.8870 C.3    84  VAL84       0.0022
     59  N         17.6520   25.4290   23.3070 N.3    97  ALA97      -0.1245
     60  CA        17.3140   26.0080   22.0100 C.3    97  ALA97       0.1562
     61  C         18.5920   26.3820   21.2350 C.2    97  ALA97       0.2260
     62  O         19.5680   26.8580   21.8270 O.2    97  ALA97      -0.2867
     63  CB        16.3840   27.2040   22.1650 C.3    97  ALA97       0.0290
     64  N         20.2170   28.2270   17.6540 N.3    99  LYS99      -0.1231
     65  CA        20.2530   29.0310   16.4290 C.3    99  LYS99       0.1693
     66  C         21.3840   28.6120   15.4620 C.2    99  LYS99       0.2592
     67  O         22.4960   28.2750   15.8900 O.2    99  LYS99      -0.2718
     68  CB        20.3900   30.5180   16.7970 C.3    99  LYS99       0.0285
     69  CG        20.2010   31.4970   15.6450 C.3    99  LYS99       0.0035
     70  CD        20.4680   32.9410   16.0870 C.3    99  LYS99       0.0206
     71  CE        20.2710   33.9360   14.9370 C.3    99  LYS99       0.1093
     72  NZ        20.1250   35.3460   15.3950 N.3    99  LYS99      -0.1314
     73  N         21.0930   28.6500   14.1620 N.am  100  LEU100     -0.1966
     74  CA        22.0200   28.1860   13.1270 C.3   100  LEU100      0.1728
     75  C         22.2330   29.2480   12.0390 C.2   100  LEU100      0.2616
     76  O         21.2800   29.7630   11.4620 O.2   100  LEU100     -0.2715
     77  CB        21.5140   26.8750   12.4990 C.3   100  LEU100      0.0311
     78  CG        21.3760   25.6350   13.3970 C.3   100  LEU100      0.0022
     79  CD1       20.1000   25.6880   14.2160 C.3   100  LEU100      0.0001
     80  CD2       21.4230   24.3370   12.5920 C.3   100  LEU100      0.0001
     81  N         23.4850   29.5830   11.7560 N.am  101  LEU101     -0.1977
     82  CA        23.7690   30.5980   10.7340 C.3   101  LEU101      0.1596
     83  C         24.6230   30.0370    9.5920 C.2   101  LEU101      0.2287
     84  O         25.7410   29.5430    9.7990 O.2   101  LEU101     -0.2864
     85  CB        24.4110   31.8380   11.3500 C.3   101  LEU101      0.0297
     86  CG        23.7010   32.2870   12.6260 C.3   101  LEU101      0.0022
     87  CD1       24.7170   32.7230   13.6380 C.3   101  LEU101      0.0001
     88  CD2       22.6760   33.4000   12.3620 C.3   101  LEU101      0.0001
     89  N         27.9570   40.3520   12.4310 N.3   114  PHE114     -0.1241
     90  CA        26.9500   40.8220   13.4100 C.3   114  PHE114      0.1605
     91  C         26.7050   39.9030   14.6200 C.2   114  PHE114      0.2264
     92  O         25.9960   40.2990   15.5580 O.2   114  PHE114     -0.2867
     93  CB        25.6120   41.0390   12.7070 C.3   114  PHE114      0.0534
     94  CG        24.9850   39.7620   12.2550 C.ar  114  PHE114     -0.0203
     95  CD1       24.1220   39.0620   13.1000 C.ar  114  PHE114     -0.0042
     96  CD2       25.3070   39.2150   11.0060 C.ar  114  PHE114     -0.0042
     97  CE1       23.5690   37.8520   12.6980 C.ar  114  PHE114     -0.0003
     98  CE2       24.7490   38.0070   10.5840 C.ar  114  PHE114     -0.0003
     99  CZ        23.8810   37.3210   11.4310 C.ar  114  PHE114     -0.0000
    100  N         26.0540   39.3360   19.6140 N.3   118  GLU118     -0.1245
    101  CA        24.9550   38.4480   19.9200 C.3   118  GLU118      0.1567
    102  C         25.4070   37.3120   20.8120 C.2   118  GLU118      0.2260
    103  O         24.7230   36.9710   21.7690 O.2   118  GLU118     -0.2867
    104  CB        24.3420   37.8870   18.6510 C.3   118  GLU118      0.0388
    105  CG        23.1380   36.9960   18.9220 C.3   118  GLU118      0.1160
    106  CD        22.4160   36.6300   17.6480 C.2   118  GLU118      0.3649
    107  OE1       21.3150   36.0430   17.7430 O.co2 118  GLU118     -0.2457
    108  OE2       22.9530   36.9320   16.5530 O.co2 118  GLU118     -0.2457
    109  N         25.0180   37.0420   25.2540 N.3   122  MET122     -0.1245
    110  CA        24.3840   35.8290   25.7690 C.3   122  MET122      0.1570
    111  C         25.2980   34.9960   26.6840 C.2   122  MET122      0.2261
    112  O         24.8470   34.3860   27.6640 O.2   122  MET122     -0.2867
    113  CB        23.8550   34.9780   24.6080 C.3   122  MET122      0.0387
    114  CG        22.5300   35.4830   24.0300 C.3   122  MET122      0.0595
    115  SD        21.8140   34.4370   22.7330 S.3   122  MET122     -0.1393
    116  CE        20.2650   35.2780   22.3780 C.3   122  MET122      0.0692
    117  N         18.5280   35.8540   27.7900 N.3   131  VAL131     -0.1245
    118  CA        18.7120   34.4610   27.3810 C.3   131  VAL131      0.1561
    119  C         20.1880   34.1290   27.4580 C.2   131  VAL131      0.2260
    120  O         21.0200   34.8770   26.9470 O.2   131  VAL131     -0.2867
    121  CB        18.2290   34.1920   25.9330 C.3   131  VAL131      0.0252
    122  CG1       18.5660   32.7710   25.5300 C.3   131  VAL131      0.0019
    123  CG2       16.7390   34.4600   25.7880 C.3   131  VAL131      0.0019
    124  N         21.1470   27.7930   23.3790 N.3   147  MET147     -0.1230
    125  CA        20.6710   28.7300   24.3710 C.3   147  MET147      0.1702
    126  C         19.7030   28.0740   25.3160 C.2   147  MET147      0.2592
    127  O         19.1940   26.9900   25.0090 O.2   147  MET147     -0.2718
    128  CB        19.9720   29.8560   23.6510 C.3   147  MET147      0.0401
    129  CG        20.7470   30.3480   22.4650 C.3   147  MET147      0.0596
    130  SD        19.6380   31.4070   21.5400 S.3   147  MET147     -0.1393
    131  CE        20.6310   31.7400   20.0720 C.3   147  MET147      0.0692
    132  N         19.4400   28.7180   26.4550 N.am  148  GLU148     -0.1966
    133  CA        18.3720   28.2250   27.3220 C.3   148  GLU148      0.1733
    134  C         17.0190   28.3750   26.6230 C.2   148  GLU148      0.2616
    135  O         16.6710   29.4490   26.1230 O.2   148  GLU148     -0.2715
    136  CB        18.3500   28.9470   28.6600 C.3   148  GLU148      0.0429
    137  CG        18.2420   30.4720   28.5430 C.3   148  GLU148      0.1163
    138  CD        18.0200   31.1560   29.8890 C.2   148  GLU148      0.3649
    139  OE1       18.8160   32.0690   30.2440 O.co2 148  GLU148     -0.2457
    140  OE2       17.0380   30.7780   30.5830 O.co2 148  GLU148     -0.2457
    141  N         16.2750   27.2760   26.5700 N.am  149  TYR149     -0.1960
    142  CA        14.9190   27.2790   26.0530 C.3   149  TYR149      0.1771
    143  C         14.0860   28.2460   26.8810 C.2   149  TYR149      0.2619
    144  O         14.3060   28.4200   28.1130 O.2   149  TYR149     -0.2715
    145  CB        14.3460   25.8870   26.1810 C.3   149  TYR149      0.0574
    146  CG        13.0210   25.6970   25.5130 C.ar  149  TYR149     -0.0198
    147  CD1       12.8480   26.0120   24.1780 C.ar  149  TYR149     -0.0009
    148  CD2       11.9430   25.1650   26.2080 C.ar  149  TYR149     -0.0009
    149  CE1       11.6260   25.8250   23.5530 C.ar  149  TYR149      0.0417
    150  CE2       10.7150   24.9840   25.5940 C.ar  149  TYR149      0.0417
    151  CZ        10.5670   25.3130   24.2650 C.ar  149  TYR149      0.1957
    152  OH         9.3690   25.1320   23.6200 O.3   149  TYR149     -0.2866
    153  N         13.1340   28.8730   26.1950 N.am  150  MET150     -0.1977
    154  CA        12.2840   29.8850   26.7930 C.3   150  MET150      0.1605
    155  C         10.8500   29.5080   26.4940 C.2   150  MET150      0.2287
    156  O         10.2440   30.0230   25.5450 O.2   150  MET150     -0.2864
    157  CB        12.6510   31.2300   26.2180 C.3   150  MET150      0.0413
    158  CG        13.8850   31.7740   26.8630 C.3   150  MET150      0.0598
    159  SD        13.4980   32.5660   28.4380 S.3   150  MET150     -0.1393
    160  CE        15.1380   32.5910   29.1570 C.3   150  MET150      0.0692
    161  N          9.1790   40.0490   19.5010 N.3   196  ASP196     -0.1225
    162  CA         9.8270   38.8220   19.0680 C.3   196  ASP196      0.1805
    163  C         11.0610   38.5060   19.9360 C.2   196  ASP196      0.2597
    164  O         11.2900   37.3480   20.3040 O.2   196  ASP196     -0.2718
    165  CB        10.2790   38.9580   17.6170 C.3   196  ASP196      0.1424
    166  CG         9.1620   39.3770   16.6870 C.2   196  ASP196      0.3668
    167  OD1        8.6250   40.4980   16.8790 O.co2 196  ASP196     -0.2456
    168  OD2        8.8450   38.5950   15.7520 O.co2 196  ASP196     -0.2456
    169  N         11.8550   39.5280   20.2680 N.am  197  ASN197     -0.1974
    170  CA        13.0620   39.3100   21.0750 C.3   197  ASN197      0.1688
    171  C         12.7200   39.2480   22.5340 C.2   197  ASN197      0.2292
    172  O         13.6070   39.1840   23.3750 O.2   197  ASN197     -0.2864
    173  CB        14.0910   40.4290   20.9090 C.3   197  ASN197      0.1181
    174  CG        14.3670   40.7540   19.4750 C.2   197  ASN197      0.2629
    175  OD1       14.2820   41.9170   19.0580 O.2   197  ASN197     -0.2716
    176  ND2       14.7060   39.7310   18.6980 N.am  197  ASN197     -0.0877
    177  N         11.0790   37.0370   25.2760 N.3   199  LEU199     -0.1245
    178  CA        10.7370   35.6390   25.5020 C.3   199  LEU199      0.1561
    179  C         10.3390   35.4130   26.9580 C.2   199  LEU199      0.2260
    180  O         10.7480   36.1640   27.8610 O.2   199  LEU199     -0.2867
    181  CB        11.9140   34.7400   25.1140 C.3   199  LEU199      0.0270
    182  CG        12.2880   34.7630   23.6220 C.3   199  LEU199      0.0019
    183  CD1       13.5340   33.9120   23.3300 C.3   199  LEU199      0.0001
    184  CD2       11.1350   34.3090   22.7540 C.3   199  LEU199      0.0001
    185  N         16.3630   38.2560   23.7410 N.3   209  ALA209     -0.1231
    186  CA        17.1220   37.3430   22.8980 C.3   209  ALA209      0.1694
    187  C         17.4150   37.9380   21.5290 C.2   209  ALA209      0.2592
    188  O         17.1850   39.1260   21.3020 O.2   209  ALA209     -0.2718
    189  CB        16.4050   35.9910   22.7660 C.3   209  ALA209      0.0304
    190  N         17.9360   37.0980   20.6330 N.am  210  ASP210     -0.1974
    191  CA        18.2960   37.4920   19.2740 C.3   210  ASP210      0.1709
    192  C         19.0250   38.8390   19.2690 C.2   210  ASP210      0.2293
    193  O         18.4940   39.8470   18.8180 O.2   210  ASP210     -0.2864
    194  CB        17.0780   37.5270   18.3780 C.3   210  ASP210      0.1436
    195  CG        17.4240   37.8560   16.9600 C.2   210  ASP210      0.3671
    196  OD1       18.6250   37.9440   16.6590 O.co2 210  ASP210     -0.2456
    197  OD2       16.4970   38.0270   16.1410 O.co2 210  ASP210     -0.2456
    198  N          4.7290   27.9390   20.3960 N.3   362  PHE362     -0.1241
    199  CA         5.2870   28.5550   19.1960 C.3   362  PHE362      0.1605
    200  C          4.5500   28.0870   17.9500 C.2   362  PHE362      0.2264
    201  O          3.6730   27.2170   18.0170 O.2   362  PHE362     -0.2867
    202  CB         6.7820   28.2140   19.0690 C.3   362  PHE362      0.0534
    203  CG         7.5680   28.4640   20.3360 C.ar  362  PHE362     -0.0203
    204  CD1        8.3140   29.6330   20.4890 C.ar  362  PHE362     -0.0042
    205  CD2        7.5370   27.5400   21.3910 C.ar  362  PHE362     -0.0042
    206  CE1        9.0310   29.8710   21.6700 C.ar  362  PHE362     -0.0003
    207  CE2        8.2450   27.7630   22.5730 C.ar  362  PHE362     -0.0003
    208  CZ         8.9940   28.9270   22.7190 C.ar  362  PHE362     -0.0000
@<TRIPOS>BOND
     1    23    21    1
     2    36    38   ar
     3    36    34   ar
     4    21    22    1
     5    21    20    2
     6    38    37   ar
     7    34    33   ar
     8    20    19    1
     9    37    35   ar
    10    28    29    1
    11    29    30    1
    12    29    32    1
    13    33    35   ar
    14    33    32    1
    15    31    30    2
    16    30    39   am
    17    19    18    1
    18    39    40    1
    19    27    26    2
    20    26    25    1
    21    40    41    1
    22    17    18    1
    23    17    14    1
    24    83    84    2
    25    83    82    1
    26    16    15    2
    27    51    49   ar
    28    50    49   ar
    29    42    41    2
    30    41    43   am
    31    49    48    1
    32    15    24   am
    33    15    14    1
    34    25    24    1
    35    14    13    1
    36    98    96   ar
    37    98    99   ar
    38    48    47    1
    39    82    85    1
    40    82    81    1
    41    43    44    1
    42    47    44    1
    43    96    94   ar
    44    85    86    1
    45    99    97   ar
    46    76    75    2
    47    13    11   am
    48    44    45    1
    49    81    75   am
    50    75    74    1
    51    94    93    1
    52    94    95   ar
    53    88    86    1
    54    89    90    1
    55    12    11    2
    56    77    74    1
    57    77    78    1
    58    11    10    1
    59    80    78    1
    60    86    87    1
    61    97    95   ar
    62    93    90    1
    63    45    46    2
    64    45    52   am
    65    74    73    1
    66    78    79    1
    67    90    91    1
    68    10     9    1
    69    52    53    1
    70    73    66   am
    71     9     3   am
    72    91    92    2
    73    71    72    1
    74    71    70    1
    75    55    54    2
    76    53    54    1
    77    53    56    1
    78    66    67    2
    79    66    65    1
    80     1     2    1
    81    69    70    1
    82    69    68    1
    83     3     4    2
    84     3     2    1
    85   168   166   ar
    86    58    56    1
    87   197   195   ar
    88     2     5    1
    89    56    57    1
    90    65    68    1
    91    65    64    1
    92   108   106   ar
    93   196   195   ar
    94   166   167   ar
    95   166   165    1
    96   195   194    1
    97   165   162    1
    98   106   107   ar
    99   106   105    1
   100     5     6    1
   101     5     7    1
   102     8     6    1
   103   200   201    2
   104   200   199    1
   105   194   191    1
   106   104   105    1
   107   104   101    1
   108   176   174   am
   109   193   192    2
   110   175   174    2
   111   162   161    1
   112   162   163    1
   113   202   199    1
   114   202   203    1
   115   199   198    1
   116   192   191    1
   117   191   190    1
   118   174   173    1
   119   100   101    1
   120   101   102    1
   121   163   169   am
   122   163   164    2
   123   131   130    1
   124   169   170    1
   125   203   204   ar
   126   203   205   ar
   127   204   206   ar
   128   190   187   am
   129   102   103    2
   130   173   170    1
   131   170   171    1
   132    61    62    2
   133    61    60    1
   134   188   187    2
   135   205   207   ar
   136   187   186    1
   137   130   129    1
   138   206   208   ar
   139    60    63    1
   140    60    59    1
   141   116   115    1
   142   129   128    1
   143   171   172    2
   144   207   208   ar
   145   115   114    1
   146   184   182    1
   147   189   186    1
   148   186   185    1
   149   183   182    1
   150   124   125    1
   151   149   147   ar
   152   149   151   ar
   153   152   151    1
   154   182   181    1
   155   128   125    1
   156   114   113    1
   157   147   146   ar
   158   151   150   ar
   159   125   126    1
   160   113   110    1
   161   127   126    2
   162   181   178    1
   163   109   110    1
   164   177   178    1
   165   126   132   am
   166   178   179    1
   167   146   145    1
   168   146   148   ar
   169   122   121    1
   170   156   155    2
   171   150   148   ar
   172   110   111    1
   173   123   121    1
   174   121   118    1
   175   142   145    1
   176   142   141    1
   177   142   143    1
   178   135   134    2
   179   153   154    1
   180   153   143   am
   181   157   154    1
   182   157   158    1
   183   132   133    1
   184   155   154    1
   185   141   134   am
   186   134   133    1
   187   111   112    2
   188   158   159    1
   189   143   144    2
   190   120   119    2
   191   179   180    2
   192   133   136    1
   193   118   119    1
   194   118   117    1
   195   159   160    1
   196   137   136    1
   197   137   138    1
   198   138   139   ar
   199   138   140   ar
