@<TRIPOS>MOLECULE
tmp/3twtC00.pdb
 85 83 0 0 0
SMALL
GASTEIGER

@<TRIPOS>ATOM
      1  N         -3.1270    5.6890   26.3380 N.3    85  TYR85      -0.1227
      2  CA        -3.1800    7.0970   26.6950 C.3    85  TYR85       0.1736
      3  C         -4.5970    7.6280   26.8640 C.2    85  TYR85       0.2596
      4  O         -4.8000    8.8290   26.9120 O.2    85  TYR85      -0.2718
      5  CB        -2.3850    7.9250   25.6860 C.3    85  TYR85       0.0548
      6  CG        -0.9330    7.5090   25.6680 C.ar   85  TYR85      -0.0200
      7  CD1       -0.1040    7.7830   26.7480 C.ar   85  TYR85      -0.0009
      8  CD2       -0.4000    6.8090   24.5920 C.ar   85  TYR85      -0.0009
      9  CE1        1.2240    7.3860   26.7500 C.ar   85  TYR85       0.0417
     10  CE2        0.9340    6.4080   24.5830 C.ar   85  TYR85       0.0417
     11  CZ         1.7350    6.7010   25.6630 C.ar   85  TYR85       0.1957
     12  OH         3.0530    6.3140   25.6640 O.3    85  TYR85      -0.2866
     13  N         -5.5650    6.7160   26.9370 N.am   86  GLY86      -0.1942
     14  CA        -6.9300    7.0570   27.3160 C.3    86  GLY86       0.2014
     15  C         -7.7520    7.7590   26.2580 C.2    86  GLY86       0.2638
     16  O         -8.7330    8.4500   26.5680 O.2    86  GLY86      -0.2714
     17  N         -7.3770    7.5680   24.9980 N.am   87  HIS87      -0.1973
     18  CA        -8.0560    8.2530   23.9170 C.3    87  HIS87       0.1656
     19  C         -9.2660    7.4490   23.4740 C.2    87  HIS87       0.2291
     20  O         -9.1670    6.5810   22.5980 O.2    87  HIS87      -0.2864
     21  CB        -7.0950    8.4900   22.7370 C.3    87  HIS87       0.0771
     22  CG        -5.8310    9.1910   23.1200 C.ar   87  HIS87       0.0820
     23  ND1       -5.7830   10.1480   24.1100 N.ar   87  HIS87      -0.2267
     24  CD2       -4.5650    9.0730   22.6500 C.ar   87  HIS87       0.1154
     25  CE1       -4.5480   10.5990   24.2270 C.ar   87  HIS87       0.1986
     26  NE2       -3.7870    9.9620   23.3530 N.ar   87  HIS87      -0.2212
     27  N         -2.7700    1.1650   32.6950 N.3   118  LYS118     -0.1231
     28  CA        -2.7230    2.6290   32.6880 C.3   118  LYS118      0.1693
     29  C         -3.8800    3.2640   33.4550 C.2   118  LYS118      0.2593
     30  O         -3.9820    4.4900   33.5180 O.2   118  LYS118     -0.2718
     31  CB        -2.6760    3.1750   31.2540 C.3   118  LYS118      0.0285
     32  CG        -1.4780    2.7120   30.4260 C.3   118  LYS118      0.0035
     33  CD        -0.1460    3.2050   30.9930 C.3   118  LYS118      0.0206
     34  CE         0.0340    4.6990   30.7910 C.3   118  LYS118      0.1093
     35  NZ         0.1640    5.1000   29.3530 N.3   118  LYS118     -0.1314
     36  N         -4.7490    2.4360   34.0290 N.am  119  GLY119     -0.1942
     37  CA        -5.8310    2.9300   34.8670 C.3   119  GLY119      0.2014
     38  C         -6.9420    3.6700   34.1340 C.2   119  GLY119      0.2639
     39  O         -7.5130    4.6350   34.6620 O.2   119  GLY119     -0.2714
     40  N         -7.2610    3.2080   32.9260 N.am  120  LYS120     -0.1963
     41  CA        -8.2860    3.8320   32.0880 C.3   120  LYS120      0.1728
     42  C         -9.6050    3.0670   32.1590 C.2   120  LYS120      0.2616
     43  O         -9.8260    2.1210   31.3920 O.2   120  LYS120     -0.2715
     44  CB        -7.8190    3.8930   30.6320 C.3   120  LYS120      0.0311
     45  CG        -6.4680    4.5950   30.4360 C.3   120  LYS120      0.0038
     46  CD        -6.5120    6.0290   30.9650 C.3   120  LYS120      0.0206
     47  CE        -5.1540    6.7040   30.8650 C.3   120  LYS120      0.1093
     48  NZ        -5.1960    8.0880   31.4240 N.3   120  LYS120     -0.1314
     49  N        -10.4790    3.4850   33.0710 N.am  121  TYR121     -0.1974
     50  CA       -11.7460    2.7960   33.2880 C.3   121  TYR121      0.1639
     51  C        -12.6290    2.7210   32.0380 C.2   121  TYR121      0.2290
     52  O        -13.0220    1.6300   31.6250 O.2   121  TYR121     -0.2864
     53  CB       -12.5320    3.4220   34.4550 C.3   121  TYR121      0.0560
     54  CG       -13.8350    2.7050   34.7360 C.ar  121  TYR121     -0.0198
     55  CD1      -13.9070    1.7150   35.7170 C.ar  121  TYR121     -0.0009
     56  CD2      -14.9910    3.0090   34.0200 C.ar  121  TYR121     -0.0009
     57  CE1      -15.0940    1.0470   35.9690 C.ar  121  TYR121      0.0417
     58  CE2      -16.1800    2.3420   34.2600 C.ar  121  TYR121      0.0417
     59  CZ       -16.2220    1.3610   35.2350 C.ar  121  TYR121      0.1957
     60  OH       -17.3950    0.6850   35.4740 O.3   121  TYR121     -0.2866
     61  N        -11.9910    3.1850   28.9020 N.3   123  ILE123     -0.1245
     62  CA       -11.3790    2.3670   27.8550 C.3   123  ILE123      0.1561
     63  C        -11.5430    0.8680   28.1440 C.2   123  ILE123      0.2260
     64  O        -11.9400    0.1080   27.2660 O.2   123  ILE123     -0.2867
     65  CB        -9.8820    2.6630   27.6750 C.3   123  ILE123      0.0252
     66  CG1       -9.6470    4.1470   27.3600 C.3   123  ILE123      0.0019
     67  CG2       -9.2850    1.7230   26.6120 C.3   123  ILE123      0.0019
     68  CD1       -9.9860    4.5540   25.9700 C.3   123  ILE123      0.0001
     69  N         -3.8840   -1.4900   39.0540 N.3   149  LYS149     -0.1245
     70  CA        -3.2380   -0.9520   40.2490 C.3   149  LYS149      0.1561
     71  C         -4.1160   -1.0490   41.5080 C.2   149  LYS149      0.2260
     72  O         -5.3400   -1.1690   41.4210 O.2   149  LYS149     -0.2867
     73  CB        -2.7820    0.4840   39.9970 C.3   149  LYS149      0.0271
     74  CG        -1.6320    0.5760   39.0030 C.3   149  LYS149      0.0035
     75  CD        -1.3730    2.0040   38.5500 C.3   149  LYS149      0.0206
     76  CE        -2.4480    2.4920   37.5900 C.3   149  LYS149      0.1093
     77  NZ        -1.9060    3.5010   36.6350 N.3   149  LYS149     -0.1314
     78  N         -7.0050    1.5250   41.8990 N.3   152  ASP152     -0.1239
     79  CA        -8.1060    1.4820   40.9390 C.3   152  ASP152      0.1674
     80  C         -9.0640    0.3340   41.2390 C.2   152  ASP152      0.2266
     81  O         -9.2170   -0.5890   40.4350 O.2   152  ASP152     -0.2867
     82  CB        -7.5720    1.3620   39.5060 C.3   152  ASP152      0.1410
     83  CG        -6.8540    2.6180   39.0430 C.2   152  ASP152      0.3668
     84  OD1       -7.2720    3.7280   39.4330 O.co2 152  ASP152     -0.2456
     85  OD2       -5.8710    2.4930   38.2830 O.co2 152  ASP152     -0.2456
@<TRIPOS>BOND
     1    20    19    2
     2    24    22   ar
     3    24    26   ar
     4    21    22    1
     5    21    18    1
     6    22    23   ar
     7    26    25   ar
     8    19    18    1
     9    18    17    1
    10    23    25   ar
    11    10     8   ar
    12    10    11   ar
    13     8     6   ar
    14    17    15   am
    15    11    12    1
    16    11     9   ar
    17     6     5    1
    18     6     7   ar
    19     5     2    1
    20    68    66    1
    21    15    16    2
    22    15    14    1
    23     1     2    1
    24    67    65    1
    25     2     3    1
    26     7     9   ar
    27     3     4    2
    28     3    13   am
    29    13    14    1
    30    64    63    2
    31    66    65    1
    32    65    62    1
    33    62    63    1
    34    62    61    1
    35    35    34    1
    36    32    33    1
    37    32    31    1
    38    45    44    1
    39    45    46    1
    40    44    41    1
    41    34    33    1
    42    47    46    1
    43    47    48    1
    44    31    28    1
    45    43    42    2
    46    52    51    2
    47    51    50    1
    48    41    42    1
    49    41    40    1
    50    42    49   am
    51    28    27    1
    52    28    29    1
    53    40    38   am
    54    49    50    1
    55    50    53    1
    56    29    30    2
    57    29    36   am
    58    56    58   ar
    59    56    54   ar
    60    36    37    1
    61    38    39    2
    62    38    37    1
    63    58    59   ar
    64    53    54    1
    65    54    55   ar
    66    59    60    1
    67    59    57   ar
    68    55    57   ar
    69    77    76    1
    70    76    75    1
    71    85    83   ar
    72    75    74    1
    73    74    73    1
    74    83    84   ar
    75    83    82    1
    76    69    70    1
    77    82    79    1
    78    73    70    1
    79    70    71    1
    80    81    80    2
    81    79    80    1
    82    79    78    1
    83    72    71    2
