@<TRIPOS>MOLECULE
tmp/3twuA00.pdb
 230 221 0 0 0
SMALL
GASTEIGER

@<TRIPOS>ATOM
      1  N         21.2430    2.6310    7.6990 N.3    36  GLY36      -0.1210
      2  CA        20.7610    3.9450    8.0760 C.3    36  GLY36       0.1956
      3  C         20.4940    4.0430    9.5680 C.2    36  GLY36       0.2611
      4  O         21.3960    3.8390   10.3860 O.2    36  GLY36      -0.2717
      5  N         19.2450    4.3390    9.9170 N.am   37  ARG37      -0.1979
      6  CA        18.8440    4.5420   11.3120 C.3    37  ARG37       0.1597
      7  C         17.8930    3.4570   11.8140 C.2    37  ARG37       0.2287
      8  O         17.0770    3.7150   12.7010 O.2    37  ARG37      -0.2864
      9  CB        18.1530    5.8990   11.4840 C.3    37  ARG37       0.0334
     10  CG        18.8650    7.0910   10.8680 C.3    37  ARG37       0.0492
     11  CD        18.0590    8.3690   11.0830 C.3    37  ARG37       0.2205
     12  NE        18.5450    9.4710   10.2530 N.pl3  37  ARG37      -0.0865
     13  CZ        18.0330   10.6990   10.2650 C.cat  37  ARG37       0.5346
     14  NH1       18.5340   11.6380    9.4740 N.pl3  37  ARG37       0.1354
     15  NH2       17.0260   10.9930   11.0760 N.pl3  37  ARG37       0.1354
     16  N         15.4710    2.3450   10.2610 N.3    39  SER39      -0.1217
     17  CA        14.1580    2.6700    9.7090 C.3    39  SER39       0.1889
     18  C         13.5140    1.4180    9.1300 C.2    39  SER39       0.2288
     19  O         14.2000    0.5710    8.5600 O.2    39  SER39      -0.2866
     20  CB        14.2950    3.7040    8.5840 C.3    39  SER39       0.2089
     21  OG        14.8870    4.9030    9.0440 O.3    39  SER39      -0.2183
     22  N          8.6850    3.5730    7.8670 N.3    43  HIS43      -0.1226
     23  CA         9.3540    4.8530    8.1380 C.3    43  HIS43       0.1752
     24  C          9.6970    5.5900    6.8400 C.2    43  HIS43       0.2596
     25  O          9.4970    6.8130    6.7280 O.2    43  HIS43      -0.2718
     26  CB        10.6620    4.6350    8.8960 C.3    43  HIS43       0.0759
     27  CG        10.4950    4.4660   10.3720 C.ar   43  HIS43       0.0818
     28  ND1       10.4230    3.2290   10.9730 N.ar   43  HIS43      -0.2268
     29  CD2       10.4210    5.3780   11.3710 C.ar   43  HIS43       0.1154
     30  CE1       10.3020    3.3850   12.2790 C.ar   43  HIS43       0.1986
     31  NE2       10.2980    4.6780   12.5470 N.ar   43  HIS43      -0.2212
     32  N         10.2500    4.8510    5.8780 N.am   44  PHE44      -0.1976
     33  CA        10.6670    5.4410    4.6110 C.3    44  PHE44       0.1639
     34  C          9.4470    5.8820    3.8010 C.2    44  PHE44       0.2290
     35  O          9.3910    7.0130    3.3190 O.2    44  PHE44      -0.2864
     36  CB        11.5090    4.4550    3.7900 C.3    44  PHE44       0.0560
     37  CG        12.9480    4.3410    4.2420 C.ar   44  PHE44      -0.0200
     38  CD1       13.7250    5.4700    4.4500 C.ar   44  PHE44      -0.0042
     39  CD2       13.5220    3.0960    4.4530 C.ar   44  PHE44      -0.0042
     40  CE1       15.0570    5.3620    4.8610 C.ar   44  PHE44      -0.0003
     41  CE2       14.8460    2.9810    4.8640 C.ar   44  PHE44      -0.0003
     42  CZ        15.6140    4.1160    5.0640 C.ar   44  PHE44      -0.0000
     43  N          8.0340    9.1100    5.4160 N.3    47  GLY47      -0.1210
     44  CA         8.8140   10.3280    5.2570 C.3    47  GLY47       0.1956
     45  C          8.8310   10.8630    3.8300 C.2    47  GLY47       0.2612
     46  O          8.8850   12.0790    3.6290 O.2    47  GLY47      -0.2717
     47  N          8.7980    9.9550    2.8500 N.am   48  TYR48      -0.1962
     48  CA         8.8390   10.3360    1.4330 C.3    48  TYR48       0.1771
     49  C          7.4600   10.3750    0.7460 C.2    48  TYR48       0.2620
     50  O          7.3680   10.3550   -0.4870 O.2    48  TYR48      -0.2715
     51  CB         9.8090    9.4260    0.6560 C.3    48  TYR48       0.0574
     52  CG        11.2520    9.6380    1.0300 C.ar   48  TYR48      -0.0198
     53  CD1       11.9910    8.6340    1.6420 C.ar   48  TYR48      -0.0009
     54  CD2       11.8680   10.8580    0.8030 C.ar   48  TYR48      -0.0009
     55  CE1       13.3210    8.8380    1.9930 C.ar   48  TYR48       0.0417
     56  CE2       13.1840   11.0690    1.1450 C.ar   48  TYR48       0.0417
     57  CZ        13.9080   10.0580    1.7350 C.ar   48  TYR48       0.1957
     58  OH        15.2200   10.2870    2.0690 O.3    48  TYR48      -0.2866
     59  N          6.4010   10.4540    1.5490 N.am   49  ASN49      -0.1958
     60  CA         5.0380   10.6350    1.0420 C.3    49  ASN49       0.1819
     61  C          4.6490    9.5770    0.0290 C.2    49  ASN49       0.2621
     62  O          4.0540    9.8870   -1.0040 O.2    49  ASN49      -0.2715
     63  CB         4.8430   12.0300    0.4260 C.3    49  ASN49       0.1195
     64  CG         3.3730   12.4690    0.4200 C.2    49  ASN49       0.2630
     65  OD1        2.5550   11.9340    1.1630 O.2    49  ASN49      -0.2716
     66  ND2        3.0400   13.4530   -0.4170 N.am   49  ASN49      -0.0877
     67  N          4.9820    8.3240    0.3190 N.am   50  ARG50      -0.1963
     68  CA         4.6520    7.2390   -0.5950 C.3    50  ARG50       0.1729
     69  C          3.3100    6.6520   -0.1620 C.2    50  ARG50       0.2616
     70  O          3.2530    5.5880    0.4520 O.2    50  ARG50      -0.2715
     71  CB         5.7600    6.1760   -0.5990 C.3    50  ARG50       0.0348
     72  CG         7.1850    6.7290   -0.8500 C.3    50  ARG50       0.0492
     73  CD         7.2810    7.5840   -2.1290 C.3    50  ARG50       0.2205
     74  NE         8.6690    7.9680   -2.4180 N.pl3  50  ARG50      -0.0865
     75  CZ         9.0290    8.8910   -3.3020 C.cat  50  ARG50       0.5346
     76  NH1        8.1040    9.5300   -3.9990 N.pl3  50  ARG50       0.1354
     77  NH2       10.3200    9.1660   -3.4950 N.pl3  50  ARG50       0.1354
     78  N          2.2300    7.3600   -0.4830 N.am   51  VAL51      -0.1977
     79  CA         0.9200    7.0450    0.0730 C.3    51  VAL51       0.1596
     80  C          0.4340    5.6420   -0.2800 C.2    51  VAL51       0.2287
     81  O         -0.0480    4.9140    0.5800 O.2    51  VAL51      -0.2864
     82  CB        -0.1520    8.0800   -0.3410 C.3    51  VAL51       0.0276
     83  CG1       -1.5130    7.6270    0.1280 C.3    51  VAL51       0.0022
     84  CG2        0.1770    9.4490    0.2400 C.3    51  VAL51       0.0022
     85  N         12.7590    4.0680   15.2800 N.3    68  ASP68      -0.1239
     86  CA        14.0930    4.0200   14.6750 C.3    68  ASP68       0.1674
     87  C         15.1560    4.3130   15.7410 C.2    68  ASP68       0.2266
     88  O         14.8310    4.4200   16.9240 O.2    68  ASP68      -0.2867
     89  CB        14.2040    4.9380   13.4350 C.3    68  ASP68       0.1410
     90  CG        14.2290    6.4220   13.7800 C.2    68  ASP68       0.3668
     91  OD1       14.3850    6.7680   14.9670 O.co2  68  ASP68      -0.2456
     92  OD2       14.1220    7.2510   12.8420 O.co2  68  ASP68      -0.2456
     93  N         16.7230    6.9020   16.6140 N.3    70  GLY70      -0.1225
     94  CA        16.4930    8.1300   17.3670 C.3    70  GLY70       0.1811
     95  C         15.2080    8.1030   18.1950 C.2    70  GLY70       0.2280
     96  O         14.8770    9.0840   18.8620 O.2    70  GLY70      -0.2866
     97  N         12.2340    7.7140   16.7950 N.3    72  LEU72      -0.1245
     98  CA        11.1500    8.2180   15.9660 C.3    72  LEU72       0.1561
     99  C         10.2710    7.0990   15.4250 C.2    72  LEU72       0.2260
    100  O         10.7660    6.0440   15.0190 O.2    72  LEU72      -0.2867
    101  CB        11.6910    9.0700   14.8050 C.3    72  LEU72       0.0270
    102  CG        12.1210   10.5100   15.1480 C.3    72  LEU72       0.0019
    103  CD1       13.3490   10.5160   16.0430 C.3    72  LEU72       0.0001
    104  CD2       12.4140   11.2760   13.8530 C.3    72  LEU72       0.0001
    105  N          6.3390   10.5440   13.1330 N.3    76  HIS76      -0.1226
    106  CA         7.2670   11.6700   13.2100 C.3    76  HIS76       0.1752
    107  C          7.6890   12.0970   11.8060 C.2    76  HIS76       0.2596
    108  O          7.7350   13.2820   11.4860 O.2    76  HIS76      -0.2718
    109  CB         8.5370   11.3150   13.9960 C.3    76  HIS76       0.0759
    110  CG         8.3820   11.3440   15.4880 C.ar   76  HIS76       0.0818
    111  ND1        8.1910   10.2010   16.2330 N.ar   76  HIS76      -0.2268
    112  CD2        8.4520   12.3640   16.3770 C.ar   76  HIS76       0.1154
    113  CE1        8.1240   10.5190   17.5160 C.ar   76  HIS76       0.1986
    114  NE2        8.2840   11.8260   17.6300 N.ar   76  HIS76      -0.2212
    115  N          8.0460   11.1150   10.9940 N.am   77  ASN77      -0.1974
    116  CA         8.5130   11.3650    9.6360 C.3    77  ASN77       0.1688
    117  C          7.4570   12.0410    8.7640 C.2    77  ASN77       0.2292
    118  O          7.7470   13.0150    8.0830 O.2    77  ASN77      -0.2864
    119  CB         8.9940   10.0660    8.9890 C.3    77  ASN77       0.1181
    120  CG        10.1930    9.4770    9.7000 C.2    77  ASN77       0.2629
    121  OD1       10.6780   10.0380   10.6860 O.2    77  ASN77      -0.2716
    122  ND2       10.6820    8.3470    9.2050 N.am   77  ASN77      -0.0877
    123  N          6.9550   15.6950    9.9510 N.3    80  SER80      -0.1202
    124  CA         8.0750   16.5950    9.6900 C.3    80  SER80       0.2020
    125  C          7.9810   17.2510    8.3100 C.2    80  SER80       0.2618
    126  O          8.3430   18.4150    8.1430 O.2    80  SER80      -0.2717
    127  CB         9.4040   15.8410    9.8160 C.3    80  SER80       0.2103
    128  OG        10.5030   16.7420    9.8340 O.3    80  SER80      -0.2182
    129  N          7.4900   16.5020    7.3280 N.am   81  TYR81      -0.1975
    130  CA         7.4890   16.9690    5.9510 C.3    81  TYR81       0.1639
    131  C          6.0970   17.2910    5.4310 C.2    81  TYR81       0.2290
    132  O          5.9250   17.5480    4.2470 O.2    81  TYR81      -0.2864
    133  CB         8.2380   15.9660    5.0560 C.3    81  TYR81       0.0560
    134  CG         9.6550   15.8360    5.5430 C.ar   81  TYR81      -0.0198
    135  CD1       10.5550   16.8800    5.3640 C.ar   81  TYR81      -0.0009
    136  CD2       10.0730   14.7170    6.2510 C.ar   81  TYR81      -0.0009
    137  CE1       11.8500   16.8030    5.8430 C.ar   81  TYR81       0.0417
    138  CE2       11.3780   14.6290    6.7360 C.ar   81  TYR81       0.0417
    139  CZ        12.2600   15.6780    6.5210 C.ar   81  TYR81       0.1957
    140  OH        13.5550   15.6270    6.9980 O.3    81  TYR81      -0.2866
    141  N          3.1780   15.5350    5.3870 N.3    83  HIS83      -0.1241
    142  CA         2.4530   14.5530    4.5980 C.3    83  HIS83       0.1621
    143  C          1.1170   14.2040    5.2340 C.2    83  HIS83       0.2264
    144  O          1.0010   13.2410    5.9890 O.2    83  HIS83      -0.2867
    145  CB         3.3310   13.3230    4.3710 C.3    83  HIS83       0.0745
    146  CG         4.6180   13.6480    3.6770 C.ar   83  HIS83       0.0817
    147  ND1        4.7020   14.6120    2.6940 N.ar   83  HIS83      -0.2268
    148  CD2        5.8740   13.1650    3.8390 C.ar   83  HIS83       0.1154
    149  CE1        5.9510   14.7040    2.2740 C.ar   83  HIS83       0.1986
    150  NE2        6.6830   13.8400    2.9580 N.ar   83  HIS83      -0.2212
    151  N         -2.0190   13.0610    4.2230 N.3    85  GLU85      -0.1245
    152  CA        -2.6870   11.7850    4.0000 C.3    85  GLU85       0.1567
    153  C         -1.9730   10.6330    4.7020 C.2    85  GLU85       0.2260
    154  O         -2.6140    9.7450    5.2720 O.2    85  GLU85      -0.2867
    155  CB        -2.8480   11.4910    2.5150 C.3    85  GLU85       0.0388
    156  CG        -3.6670   10.2430    2.2530 C.3    85  GLU85       0.1160
    157  CD        -4.9540   10.2020    3.0720 C.2    85  GLU85       0.3649
    158  OE1       -5.2870    9.1240    3.6080 O.co2  85  GLU85      -0.2457
    159  OE2       -5.6340   11.2440    3.1770 O.co2  85  GLU85      -0.2457
    160  N         10.1750   10.7660   21.0720 N.3   101  ASP101     -0.1239
    161  CA        11.4530   10.1530   20.6960 C.3   101  ASP101      0.1674
    162  C         12.4820   10.3110   21.8250 C.2   101  ASP101      0.2266
    163  O         12.1200   10.6820   22.9440 O.2   101  ASP101     -0.2867
    164  CB        11.9750   10.7070   19.3530 C.3   101  ASP101      0.1410
    165  CG        12.3010   12.1950   19.3980 C.2   101  ASP101      0.3668
    166  OD1       12.4770   12.7530   20.5010 O.co2 101  ASP101     -0.2456
    167  OD2       12.4270   12.8080   18.3120 O.co2 101  ASP101     -0.2456
    168  N         14.6060   12.5040   22.3780 N.3   103  TRP103     -0.1241
    169  CA        14.7850   13.9000   22.7770 C.3   103  TRP103      0.1605
    170  C         13.4540   14.4260   23.3160 C.2   103  TRP103      0.2264
    171  O         13.2890   15.6230   23.5500 O.2   103  TRP103     -0.2867
    172  CB        15.2570   14.7500   21.5980 C.3   103  TRP103      0.0550
    173  CG        16.6470   14.3880   21.0930 C.ar  103  TRP103      0.0003
    174  CD1       17.8370   14.9500   21.4760 C.ar  103  TRP103      0.0946
    175  CD2       16.9730   13.3810   20.1220 C.ar  103  TRP103      0.0152
    176  NE1       18.8790   14.3540   20.8000 N.ar  103  TRP103     -0.2442
    177  CE2       18.3750   13.3940   19.9600 C.ar  103  TRP103      0.0810
    178  CE3       16.2120   12.4840   19.3610 C.ar  103  TRP103      0.0012
    179  CZ2       19.0370   12.5310   19.0720 C.ar  103  TRP103      0.0191
    180  CZ3       16.8730   11.6200   18.4810 C.ar  103  TRP103      0.0001
    181  CH2       18.2700   11.6560   18.3460 C.ar  103  TRP103      0.0015
    182  N         10.6950   14.6970   21.7880 N.3   105  PHE105     -0.1241
    183  CA         9.8570   15.3440   20.7750 C.3   105  PHE105      0.1605
    184  C          8.6990   14.4130   20.4060 C.2   105  PHE105      0.2264
    185  O          8.9260   13.2520   20.0640 O.2   105  PHE105     -0.2867
    186  CB        10.6420   15.5810   19.4740 C.3   105  PHE105      0.0534
    187  CG        11.5000   16.8280   19.4700 C.ar  105  PHE105     -0.0203
    188  CD1       11.3020   17.8110   18.5100 C.ar  105  PHE105     -0.0042
    189  CD2       12.5260   16.9900   20.3840 C.ar  105  PHE105     -0.0042
    190  CE1       12.0930   18.9600   18.4820 C.ar  105  PHE105     -0.0003
    191  CE2       13.3290   18.1310   20.3620 C.ar  105  PHE105     -0.0003
    192  CZ        13.1120   19.1160   19.4120 C.ar  105  PHE105     -0.0000
    193  N          7.2500   18.1770   16.3000 N.3   110  GLU110     -0.1245
    194  CA         7.8040   18.1550   14.9500 C.3   110  GLU110      0.1567
    195  C          6.9790   19.0020   13.9780 C.2   110  GLU110      0.2260
    196  O          7.5270   19.8460   13.2670 O.2   110  GLU110     -0.2867
    197  CB         7.9390   16.7170   14.4440 C.3   110  GLU110      0.0388
    198  CG         8.7600   16.5960   13.1440 C.3   110  GLU110      0.1160
    199  CD        10.2220   17.0080   13.2990 C.2   110  GLU110      0.3649
    200  OE1       10.7970   16.8180   14.3880 O.co2 110  GLU110     -0.2457
    201  OE2       10.8140   17.5030   12.3100 O.co2 110  GLU110     -0.2457
    202  N          8.2140   22.5190   12.2860 N.3   114  LYS114     -0.1245
    203  CA         8.3220   22.5040   10.8290 C.3   114  LYS114      0.1561
    204  C          7.2770   23.4020   10.1560 C.2   114  LYS114      0.2260
    205  O          7.2810   23.5680    8.9320 O.2   114  LYS114     -0.2867
    206  CB         8.2490   21.0700   10.3030 C.3   114  LYS114      0.0271
    207  CG         9.5250   20.2750   10.5380 C.3   114  LYS114      0.0035
    208  CD        10.7290   21.0730   10.0140 C.3   114  LYS114      0.0206
    209  CE        11.6480   20.2500    9.1320 C.3   114  LYS114      0.1093
    210  NZ        10.9600   19.4380    8.0760 N.3   114  LYS114     -0.1314
    211  N          3.8400   23.0910   10.0050 N.3   116  LYS116     -0.1245
    212  CA         2.8490   22.3320    9.2370 C.3   116  LYS116      0.1561
    213  C          1.4440   22.4800    9.8410 C.2   116  LYS116      0.2260
    214  O          1.0340   21.6790   10.6850 O.2   116  LYS116     -0.2867
    215  CB         3.2470   20.8520    9.2040 C.3   116  LYS116      0.0271
    216  CG         4.6220   20.6160    8.5820 C.3   116  LYS116      0.0035
    217  CD         4.7090   21.1900    7.1660 C.3   116  LYS116      0.0206
    218  CE         6.1170   21.0190    6.5990 C.3   116  LYS116      0.1093
    219  NZ         6.2850   21.5580    5.2010 N.3   116  LYS116     -0.1314
    220  N         13.1270   17.4570   25.8130 N.3   135  ARG135     -0.1245
    221  CA        14.3530   17.4560   26.6130 C.3   135  ARG135      0.1563
    222  C         14.8940   18.8650   26.8820 C.2   135  ARG135      0.2260
    223  O         15.6030   19.0880   27.8660 O.2   135  ARG135     -0.2867
    224  CB        15.4280   16.5790   25.9440 C.3   135  ARG135      0.0307
    225  CG        16.7210   16.4390   26.7310 C.3   135  ARG135      0.0489
    226  CD        17.8380   15.8390   25.8740 C.3   135  ARG135      0.2205
    227  NE        17.6570   14.4110   25.6210 N.pl3 135  ARG135     -0.0865
    228  CZ        18.4570   13.6770   24.8510 C.cat 135  ARG135      0.5346
    229  NH1       19.4960   14.2320   24.2430 N.pl3 135  ARG135      0.1354
    230  NH2       18.2160   12.3840   24.6830 N.pl3 135  ARG135      0.1354
@<TRIPOS>BOND
     1    76    75    1
     2    77    75    1
     3    75    74    2
     4    74    73    1
     5    73    72    1
     6    62    61    2
     7    72    71    1
     8    71    68    1
     9    68    69    1
    10    68    67    1
    11    50    49    2
    12    78    69   am
    13    78    79    1
    14    66    64   am
    15    82    79    1
    16    82    83    1
    17    82    84    1
    18    80    79    1
    19    80    81    2
    20    69    70    2
    21    61    67   am
    22    61    60    1
    23    64    63    1
    24    64    65    2
    25    63    60    1
    26    51    52    1
    27    51    48    1
    28    49    48    1
    29    49    59   am
    30    54    52   ar
    31    54    56   ar
    32    52    53   ar
    33    60    59    1
    34    56    57   ar
    35    48    47    1
    36    53    55   ar
    37    57    55   ar
    38    57    58    1
    39   156   155    1
    40   156   157    1
    41   149   147   ar
    42   149   150   ar
    43   155   152    1
    44   147   146   ar
    45    47    45   am
    46   150   148   ar
    47   157   159   ar
    48   157   158   ar
    49    35    34    2
    50    46    45    2
    51   146   148   ar
    52   146   145    1
    53    36    37    1
    54    36    33    1
    55    34    33    1
    56    45    44    1
    57   152   151    1
    58   152   153    1
    59    37    38   ar
    60    37    39   ar
    61   132   131    2
    62   145   142    1
    63    38    40   ar
    64    39    41   ar
    65   142   143    1
    66   142   141    1
    67    33    32    1
    68   153   154    2
    69    40    42   ar
    70    41    42   ar
    71   133   134    1
    72   133   130    1
    73   219   218    1
    74   143   144    2
    75    44    43    1
    76   135   134   ar
    77   135   137   ar
    78   131   130    1
    79   134   136   ar
    80   137   139   ar
    81    32    24   am
    82   130   129    1
    83   136   138   ar
    84   139   138   ar
    85   139   140    1
    86   218   217    1
    87    25    24    2
    88    24    23    1
    89   217   216    1
    90   129   125   am
    91     1     2    1
    92    22    23    1
    93     2     3    1
    94   210   209    1
    95   118   117    2
    96    23    26    1
    97   126   125    2
    98   125   124    1
    99    19    18    2
   100   216   215    1
   101    20    21    1
   102    20    17    1
   103   117   116    1
   104    26    27    1
   105   205   204    2
   106   119   116    1
   107   119   120    1
   108    18    17    1
   109   209   208    1
   110   215   212    1
   111   122   120   am
   112   212   213    1
   113   212   211    1
   114    14    13    1
   115     3     5   am
   116     3     4    2
   117   116   115    1
   118   124   127    1
   119   124   123    1
   120   120   121    2
   121    17    16    1
   122   127   128    1
   123   213   214    2
   124     5     6    1
   125   208   207    1
   126   204   203    1
   127    12    13    2
   128    12    11    1
   129    13    15    1
   130   206   207    1
   131   206   203    1
   132    27    28   ar
   133    27    29   ar
   134   203   202    1
   135    10    11    1
   136    10     9    1
   137    28    30   ar
   138   115   107   am
   139     6     9    1
   140     6     7    1
   141    29    31   ar
   142   108   107    2
   143   107   106    1
   144     7     8    2
   145    30    31   ar
   146   201   199   ar
   147    92    90   ar
   148   105   106    1
   149   198   199    1
   150   198   197    1
   151   106   109    1
   152   196   195    2
   153   199   200   ar
   154    89    90    1
   155    89    86    1
   156    90    91   ar
   157   104   102    1
   158   195   194    1
   159   109   110    1
   160   197   194    1
   161    86    85    1
   162    86    87    1
   163   101   102    1
   164   101    98    1
   165   194   193    1
   166   100    99    2
   167   102   103    1
   168    99    98    1
   169   110   111   ar
   170   110   112   ar
   171    87    88    2
   172    98    97    1
   173   111   113   ar
   174   112   114   ar
   175    93    94    1
   176    94    95    1
   177   113   114   ar
   178    95    96    2
   179   167   165   ar
   180   181   180   ar
   181   181   179   ar
   182   180   178   ar
   183   190   188   ar
   184   190   192   ar
   185   188   187   ar
   186   179   177   ar
   187   164   165    1
   188   164   161    1
   189   178   175   ar
   190   165   166   ar
   191   192   191   ar
   192   187   186    1
   193   187   189   ar
   194   186   183    1
   195   177   175   ar
   196   177   176   ar
   197   185   184    2
   198   175   173   ar
   199   191   189   ar
   200   184   183    1
   201   161   160    1
   202   161   162    1
   203   183   182    1
   204   176   174   ar
   205   173   174   ar
   206   173   172    1
   207   172   169    1
   208   162   163    2
   209   168   169    1
   210   169   170    1
   211   170   171    2
   212   229   228    1
   213   230   228    1
   214   228   227    2
   215   227   226    1
   216   220   221    1
   217   226   225    1
   218   224   221    1
   219   224   225    1
   220   221   222    1
   221   222   223    2
