@<TRIPOS>MOLECULE
tmp/3twvB00.pdb
 95 95 0 0 0
SMALL
GASTEIGER

@<TRIPOS>ATOM
      1  N        -36.8420  -20.2910   35.4360 N.3    70  LYS70      -0.1231
      2  CA       -35.4270  -19.9390   35.2900 C.3    70  LYS70       0.1693
      3  C        -34.7910  -20.5610   34.0490 C.2    70  LYS70       0.2592
      4  O        -34.1070  -19.8810   33.2850 O.2    70  LYS70      -0.2718
      5  CB       -34.6630  -20.4020   36.5410 C.3    70  LYS70       0.0285
      6  CG       -33.3040  -19.7680   36.7720 C.3    70  LYS70       0.0035
      7  CD       -32.6500  -20.3800   38.0130 C.3    70  LYS70       0.0206
      8  CE       -31.3280  -19.7040   38.3780 C.3    70  LYS70       0.1093
      9  NZ       -31.4330  -18.2250   38.5990 N.3    70  LYS70      -0.1314
     10  N        -35.0190  -21.8590   33.8540 N.am   71  GLY71      -0.1957
     11  CA       -34.4170  -22.5860   32.7460 C.3    71  GLY71       0.1869
     12  C        -35.2740  -22.6300   31.4930 C.2    71  GLY71       0.2309
     13  O        -34.9410  -23.3180   30.5170 O.2    71  GLY71      -0.2863
     14  N        -34.5230  -23.8800   27.5450 N.3   103  LEU103     -0.1231
     15  CA       -33.3020  -23.2520   27.0400 C.3   103  LEU103      0.1693
     16  C        -32.3600  -24.2850   26.4200 C.2   103  LEU103      0.2592
     17  O        -31.5740  -23.9700   25.5170 O.2   103  LEU103     -0.2718
     18  CB       -32.5930  -22.4600   28.1410 C.3   103  LEU103      0.0284
     19  CG       -33.2590  -21.1640   28.6340 C.3   103  LEU103      0.0019
     20  CD1      -32.4380  -20.5210   29.7400 C.3   103  LEU103      0.0001
     21  CD2      -33.4620  -20.1740   27.4970 C.3   103  LEU103      0.0001
     22  N        -32.4680  -25.5190   26.9030 N.am  104  TRP104     -0.1962
     23  CA       -31.6450  -26.6260   26.4390 C.3   104  TRP104      0.1771
     24  C        -32.3200  -27.3610   25.2850 C.2   104  TRP104      0.2619
     25  O        -31.8670  -28.4240   24.8660 O.2   104  TRP104     -0.2715
     26  CB       -31.3770  -27.6060   27.5930 C.3   104  TRP104      0.0590
     27  CG       -30.3570  -27.1380   28.5910 C.ar  104  TRP104      0.0006
     28  CD1      -29.0440  -27.5140   28.6570 C.ar  104  TRP104      0.0946
     29  CD2      -30.5600  -26.2140   29.6650 C.ar  104  TRP104      0.0152
     30  NE1      -28.4160  -26.8770   29.7020 N.ar  104  TRP104     -0.2442
     31  CE2      -29.3250  -26.0760   30.3360 C.ar  104  TRP104      0.0810
     32  CE3      -31.6620  -25.4930   30.1250 C.ar  104  TRP104      0.0012
     33  CZ2      -29.1690  -25.2440   31.4430 C.ar  104  TRP104      0.0191
     34  CZ3      -31.5000  -24.6640   31.2230 C.ar  104  TRP104      0.0001
     35  CH2      -30.2670  -24.5500   31.8690 C.ar  104  TRP104      0.0015
     36  N        -33.3950  -26.7760   24.7690 N.am  105  LYS105     -0.1963
     37  CA       -34.2440  -27.4090   23.7510 C.3   105  LYS105      0.1728
     38  C        -34.7980  -28.7910   24.1430 C.2   105  LYS105      0.2616
     39  O        -35.0600  -29.6370   23.2830 O.2   105  LYS105     -0.2715
     40  CB       -33.5740  -27.4060   22.3600 C.3   105  LYS105      0.0311
     41  CG       -33.5800  -26.0070   21.7160 C.3   105  LYS105      0.0038
     42  CD       -32.7710  -25.9210   20.4210 C.3   105  LYS105      0.0206
     43  CE       -33.3580  -26.7970   19.3200 C.3   105  LYS105      0.1093
     44  NZ       -32.5870  -26.6760   18.0370 N.3   105  LYS105     -0.1314
     45  N        -34.9710  -28.9970   25.4470 N.am  106  PHE106     -0.1974
     46  CA       -35.7310  -30.1290   25.9770 C.3   106  PHE106      0.1639
     47  C        -37.2350  -29.8480   25.8720 C.2   106  PHE106      0.2290
     48  O        -37.7240  -28.8260   26.3690 O.2   106  PHE106     -0.2864
     49  CB       -35.4260  -30.3370   27.4610 C.3   106  PHE106      0.0560
     50  CG       -34.1680  -31.1350   27.7530 C.ar  106  PHE106     -0.0200
     51  CD1      -34.2400  -32.3000   28.5120 C.ar  106  PHE106     -0.0042
     52  CD2      -32.9240  -30.6880   27.3500 C.ar  106  PHE106     -0.0042
     53  CE1      -33.0950  -33.0260   28.8310 C.ar  106  PHE106     -0.0003
     54  CE2      -31.7700  -31.4040   27.6650 C.ar  106  PHE106     -0.0003
     55  CZ       -31.8640  -32.5840   28.4050 C.ar  106  PHE106     -0.0000
     56  N        -34.6540  -33.1590   18.3190 N.3   134  LYS134     -0.1231
     57  CA       -33.3750  -33.2370   19.0060 C.3   134  LYS134      0.1693
     58  C        -33.2190  -32.0390   19.9170 C.2   134  LYS134      0.2592
     59  O        -33.6520  -30.9340   19.5860 O.2   134  LYS134     -0.2718
     60  CB       -32.2250  -33.2760   17.9890 C.3   134  LYS134      0.0285
     61  CG       -32.1650  -34.6040   17.2140 C.3   134  LYS134      0.0035
     62  CD       -30.9910  -34.6650   16.2320 C.3   134  LYS134      0.0206
     63  CE       -31.4860  -34.8430   14.8060 C.3   134  LYS134      0.1093
     64  NZ       -32.3220  -33.6860   14.3870 N.3   134  LYS134     -0.1314
     65  N        -32.6220  -32.2470   21.0780 N.am  135  ASN135     -0.1960
     66  CA       -32.2710  -31.1020   21.8890 C.3   135  ASN135      0.1819
     67  C        -30.9200  -30.5770   21.4280 C.2   135  ASN135      0.2621
     68  O        -30.3660  -31.0550   20.4260 O.2   135  ASN135     -0.2715
     69  CB       -32.3080  -31.4170   23.3930 C.3   135  ASN135      0.1195
     70  CG       -31.2570  -32.4360   23.8220 C.2   135  ASN135      0.2630
     71  OD1      -30.2500  -32.6630   23.1390 O.2   135  ASN135     -0.2716
     72  ND2      -31.4880  -33.0520   24.9750 N.am  135  ASN135     -0.0877
     73  N        -30.3800  -29.6200   22.1710 N.am  136  ARG136     -0.1963
     74  CA       -29.1780  -28.9370   21.7370 C.3   136  ARG136      0.1729
     75  C        -27.9700  -29.8620   21.6750 C.2   136  ARG136      0.2616
     76  O        -27.1190  -29.7300   20.8010 O.2   136  ARG136     -0.2715
     77  CB       -28.8990  -27.7430   22.6440 C.3   136  ARG136      0.0348
     78  CG       -28.8340  -26.4530   21.8860 C.3   136  ARG136      0.0492
     79  CD       -28.5400  -25.2730   22.7870 C.3   136  ARG136      0.2205
     80  NE       -29.7260  -24.4530   23.0000 N.pl3 136  ARG136     -0.0865
     81  CZ       -30.2530  -23.6740   22.0630 C.cat 136  ARG136      0.5346
     82  NH1      -29.7100  -23.6330   20.8510 N.pl3 136  ARG136      0.1354
     83  NH2      -31.3280  -22.9470   22.3280 N.pl3 136  ARG136      0.1354
     84  N        -27.8900  -30.7960   22.6080 N.am  137  ASP137     -0.1957
     85  CA       -26.8380  -31.8080   22.5770 C.3   137  ASP137      0.1840
     86  C        -27.0560  -32.8700   21.4950 C.2   137  ASP137      0.2622
     87  O        -26.2180  -33.7450   21.3240 O.2   137  ASP137     -0.2715
     88  CB       -26.6950  -32.4940   23.9370 C.3   137  ASP137      0.1450
     89  CG       -26.2580  -31.5370   25.0280 C.2   137  ASP137      0.3671
     90  OD1      -25.7010  -30.4710   24.7020 O.co2 137  ASP137     -0.2456
     91  OD2      -26.4720  -31.8580   26.2140 O.co2 137  ASP137     -0.2456
     92  N        -28.1810  -32.8000   20.7850 N.am  138  GLY138     -0.1954
     93  CA       -28.4390  -33.6940   19.6670 C.3   138  GLY138      0.1869
     94  C        -29.2530  -34.9240   20.0370 C.2   138  GLY138      0.2309
     95  O        -29.3290  -35.8730   19.2660 O.2   138  GLY138     -0.2863
@<TRIPOS>BOND
     1    64    63    1
     2    63    62    1
     3    62    61    1
     4    61    60    1
     5    60    57    1
     6    44    43    1
     7    56    57    1
     8    57    58    1
     9    95    94    2
    10    43    42    1
    11    59    58    2
    12    93    94    1
    13    93    92    1
    14    58    65   am
    15    42    41    1
    16    68    67    2
    17    92    86   am
    18    76    75    2
    19    82    81    1
    20    65    66    1
    21    87    86    2
    22    67    66    1
    23    67    73   am
    24    86    85    1
    25    75    74    1
    26    75    84   am
    27    41    40    1
    28    74    73    1
    29    74    77    1
    30    78    77    1
    31    78    79    1
    32    66    69    1
    33    81    83    1
    34    81    80    2
    35    40    37    1
    36    85    84    1
    37    85    88    1
    38    79    80    1
    39    71    70    2
    40    39    38    2
    41    69    70    1
    42    37    38    1
    43    37    36    1
    44    70    72   am
    45    88    89    1
    46    38    45   am
    47    90    89   ar
    48    36    24   am
    49    25    24    2
    50    89    91   ar
    51    24    23    1
    52    45    46    1
    53    17    16    2
    54    47    46    1
    55    47    48    2
    56    46    49    1
    57    16    22   am
    58    16    15    1
    59    23    22    1
    60    23    26    1
    61    15    14    1
    62    15    18    1
    63    52    54   ar
    64    52    50   ar
    65    49    50    1
    66    21    19    1
    67    26    27    1
    68    54    55   ar
    69    50    51   ar
    70    18    19    1
    71    55    53   ar
    72    51    53   ar
    73    27    28   ar
    74    27    29   ar
    75    19    20    1
    76    28    30   ar
    77    29    32   ar
    78    29    31   ar
    79    30    31   ar
    80    32    34   ar
    81    31    33   ar
    82    13    12    2
    83    34    35   ar
    84    33    35   ar
    85    12    11    1
    86    11    10    1
    87     4     3    2
    88    10     3   am
    89     3     2    1
    90     2     1    1
    91     2     5    1
    92     5     6    1
    93     6     7    1
    94     7     8    1
    95     8     9    1
