@<TRIPOS>MOLECULE
tmp/3twwB00.pdb
 206 199 0 0 0
SMALL
GASTEIGER

@<TRIPOS>ATOM
      1  N        -20.4440    7.0750  -34.5810 N.3    35  ASP35      -0.1239
      2  CA       -21.4590    7.8730  -33.9180 C.3    35  ASP35       0.1674
      3  C        -21.7520    9.1130  -34.7550 C.2    35  ASP35       0.2266
      4  O        -21.3470   10.2230  -34.3990 O.2    35  ASP35      -0.2867
      5  CB       -20.9740    8.2730  -32.5280 C.3    35  ASP35       0.1410
      6  CG       -21.9490    9.1850  -31.7970 C.2    35  ASP35       0.3668
      7  OD1      -23.1300    9.2540  -32.1970 O.co2  35  ASP35      -0.2456
      8  OD2      -21.5280    9.8200  -30.8090 O.co2  35  ASP35      -0.2456
      9  N        -19.5270   13.1480  -32.8050 N.3    39  ARG39      -0.1245
     10  CA       -18.3700   13.5060  -33.6200 C.3    39  ARG39       0.1563
     11  C        -17.7670   12.2930  -34.3370 C.2    39  ARG39       0.2260
     12  O        -16.5620   12.2620  -34.6250 O.2    39  ARG39      -0.2867
     13  CB       -17.3070   14.2030  -32.7710 C.3    39  ARG39       0.0307
     14  CG       -16.8700   13.4040  -31.5680 C.3    39  ARG39       0.0489
     15  CD       -15.7900   14.1110  -30.7740 C.3    39  ARG39       0.2205
     16  NE       -14.5080   14.1510  -31.4720 N.pl3  39  ARG39      -0.0865
     17  CZ       -13.9840   15.2630  -31.9780 C.cat  39  ARG39       0.5346
     18  NH1      -12.8100   15.2370  -32.6060 N.pl3  39  ARG39       0.1354
     19  NH2      -14.6460   16.4100  -31.8570 N.pl3  39  ARG39       0.1354
     20  N        -17.1980    9.1470  -33.4030 N.3    41  SER41      -0.1217
     21  CA       -16.2900    8.2450  -32.7100 C.3    41  SER41       0.1889
     22  C        -16.6840    6.8030  -33.0160 C.2    41  SER41       0.2288
     23  O        -17.8570    6.5080  -33.2030 O.2    41  SER41      -0.2866
     24  CB       -16.3160    8.4980  -31.1990 C.3    41  SER41       0.2089
     25  OG       -15.7290    9.7440  -30.8760 O.3    41  SER41      -0.2183
     26  N        -12.8050    4.5090  -30.0560 N.3    45  HIS45      -0.1226
     27  CA       -12.5680    5.8720  -29.5700 C.3    45  HIS45       0.1752
     28  C        -13.2230    6.0260  -28.2030 C.2    45  HIS45       0.2596
     29  O        -12.6120    6.4860  -27.2490 O.2    45  HIS45      -0.2718
     30  CB       -13.1570    6.9330  -30.5080 C.3    45  HIS45       0.0759
     31  CG       -12.3560    7.1930  -31.7500 C.ar   45  HIS45       0.0818
     32  ND1      -12.6400    6.5920  -32.9610 N.ar   45  HIS45      -0.2268
     33  CD2      -11.3210    8.0370  -31.9840 C.ar   45  HIS45       0.1154
     34  CE1      -11.7940    7.0320  -33.8780 C.ar   45  HIS45       0.1986
     35  NE2      -10.9820    7.9080  -33.3120 N.ar   45  HIS45      -0.2212
     36  N        -14.4930    5.6590  -28.1180 N.am   46  PHE46      -0.1976
     37  CA       -15.2140    5.7770  -26.8660 C.3    46  PHE46       0.1639
     38  C        -14.5130    4.9930  -25.7470 C.2    46  PHE46       0.2290
     39  O        -14.2270    5.5370  -24.6740 O.2    46  PHE46      -0.2864
     40  CB       -16.6600    5.3120  -27.0440 C.3    46  PHE46       0.0560
     41  CG       -17.5710    6.3710  -27.6040 C.ar   46  PHE46      -0.0200
     42  CD1      -17.7650    7.5630  -26.9210 C.ar   46  PHE46      -0.0042
     43  CD2      -18.2460    6.1750  -28.8020 C.ar   46  PHE46      -0.0042
     44  CE1      -18.6150    8.5450  -27.4280 C.ar   46  PHE46      -0.0003
     45  CE2      -19.0990    7.1530  -29.3060 C.ar   46  PHE46      -0.0003
     46  CZ       -19.2830    8.3340  -28.6160 C.ar   46  PHE46      -0.0000
     47  N        -11.1420    6.7010  -24.7470 N.3    49  GLY49      -0.1210
     48  CA       -11.2400    7.9760  -24.0530 C.3    49  GLY49       0.1956
     49  C        -11.8580    7.8350  -22.6770 C.2    49  GLY49       0.2612
     50  O        -11.6090    8.6480  -21.7900 O.2    49  GLY49      -0.2717
     51  N        -12.6620    6.7940  -22.4880 N.am   50  TYR50      -0.1962
     52  CA       -13.2940    6.5850  -21.1900 C.3    50  TYR50       0.1771
     53  C        -12.5510    5.5560  -20.3220 C.2    50  TYR50       0.2620
     54  O        -12.9940    5.2020  -19.2120 O.2    50  TYR50      -0.2715
     55  CB       -14.7920    6.2990  -21.3480 C.3    50  TYR50       0.0574
     56  CG       -15.5660    7.5630  -21.6780 C.ar   50  TYR50      -0.0198
     57  CD1      -15.9740    8.4270  -20.6700 C.ar   50  TYR50      -0.0009
     58  CD2      -15.8540    7.9090  -22.9960 C.ar   50  TYR50      -0.0009
     59  CE1      -16.6550    9.5950  -20.9620 C.ar   50  TYR50       0.0417
     60  CE2      -16.5440    9.0740  -23.2980 C.ar   50  TYR50       0.0417
     61  CZ       -16.9410    9.9110  -22.2760 C.ar   50  TYR50       0.1957
     62  OH       -17.6250   11.0760  -22.5600 O.3    50  TYR50      -0.2866
     63  N        -11.3920    5.1280  -20.8180 N.am   51  ASN51      -0.1958
     64  CA       -10.5050    4.2270  -20.0750 C.3    51  ASN51       0.1819
     65  C        -11.2100    2.9300  -19.6900 C.2    51  ASN51       0.2621
     66  O        -11.1440    2.4970  -18.5460 O.2    51  ASN51      -0.2715
     67  CB        -9.9330    4.9440  -18.8380 C.3    51  ASN51       0.1195
     68  CG        -8.6570    4.2910  -18.2990 C.2    51  ASN51       0.2630
     69  OD1       -8.0880    3.3760  -18.9060 O.2    51  ASN51      -0.2716
     70  ND2       -8.2010    4.7810  -17.1590 N.am   51  ASN51      -0.0877
     71  N        -11.8630    2.3110  -20.6660 N.am   52  ARG52      -0.1977
     72  CA       -12.5190    1.0290  -20.4740 C.3    52  ARG52       0.1597
     73  C        -11.6000   -0.0360  -21.0480 C.2    52  ARG52       0.2287
     74  O        -11.8060   -0.4680  -22.1650 O.2    52  ARG52      -0.2864
     75  CB       -13.8540    0.9970  -21.2320 C.3    52  ARG52       0.0334
     76  CG       -14.7480    2.1920  -20.9580 C.3    52  ARG52       0.0492
     77  CD       -15.0800    2.3350  -19.4840 C.3    52  ARG52       0.2205
     78  NE       -16.1080    3.3490  -19.2870 N.pl3  52  ARG52      -0.0865
     79  CZ       -16.3370    3.9830  -18.1440 C.cat  52  ARG52       0.5346
     80  NH1      -15.6040    3.7210  -17.0630 N.pl3  52  ARG52       0.1354
     81  NH2      -17.3060    4.8840  -18.0860 N.pl3  52  ARG52       0.1354
     82  N         -9.1570   12.6490  -35.3120 N.3    74  LEU74      -0.1245
     83  CA        -8.4670   11.9960  -34.1840 C.3    74  LEU74       0.1561
     84  C         -8.5810   10.4720  -34.2840 C.2    74  LEU74       0.2260
     85  O         -9.6290    9.9480  -34.6650 O.2    74  LEU74      -0.2867
     86  CB        -9.0110   12.4500  -32.8230 C.3    74  LEU74       0.0270
     87  CG        -9.0530   13.9310  -32.4340 C.3    74  LEU74       0.0019
     88  CD1       -9.8630   14.0930  -31.1480 C.3    74  LEU74       0.0001
     89  CD2       -7.6550   14.4960  -32.2650 C.3    74  LEU74       0.0001
     90  N         -5.1870    9.3230  -29.7990 N.3    78  HIS78      -0.1226
     91  CA        -5.3680   10.7330  -29.3900 C.3    78  HIS78       0.1752
     92  C         -6.2780   10.7930  -28.1560 C.2    78  HIS78       0.2596
     93  O         -6.0090   11.5120  -27.1920 O.2    78  HIS78      -0.2718
     94  CB        -6.0940   11.5000  -30.4800 C.3    78  HIS78       0.0759
     95  CG        -5.2170   12.0300  -31.5650 C.ar   78  HIS78       0.0818
     96  ND1       -5.2460   11.5360  -32.8500 N.ar   78  HIS78      -0.2268
     97  CD2       -4.3440   13.0640  -31.5790 C.ar   78  HIS78       0.1154
     98  CE1       -4.4040   12.2200  -33.6040 C.ar   78  HIS78       0.1986
     99  NE2       -3.8440   13.1530  -32.8570 N.ar   78  HIS78      -0.2212
    100  N         -7.3840   10.0480  -28.1970 N.am   79  ASN79      -0.1974
    101  CA        -8.3060   10.0530  -27.0720 C.3    79  ASN79       0.1688
    102  C         -7.6050    9.5880  -25.7910 C.2    79  ASN79       0.2292
    103  O         -7.7210   10.2200  -24.7300 O.2    79  ASN79      -0.2864
    104  CB        -9.5230    9.1780  -27.3730 C.3    79  ASN79       0.1181
    105  CG       -10.2780    9.6420  -28.6010 C.2    79  ASN79       0.2629
    106  OD1       -9.7300    9.6790  -29.7000 O.2    79  ASN79      -0.2716
    107  ND2      -11.5450    9.9960  -28.4200 N.am   79  ASN79      -0.0877
    108  N         -5.0010   12.3060  -24.6890 N.3    82  SER82      -0.1202
    109  CA        -5.6000   13.5560  -24.2300 C.3    82  SER82       0.2020
    110  C         -6.1110   13.3740  -22.8130 C.2    82  SER82       0.2618
    111  O         -6.0980   14.3090  -22.0180 O.2    82  SER82      -0.2717
    112  CB        -6.7190   14.0050  -25.1770 C.3    82  SER82       0.2103
    113  OG        -7.4680   15.0860  -24.6380 O.3    82  SER82      -0.2182
    114  N         -6.5280   12.1540  -22.4770 N.am   83  TYR83      -0.1975
    115  CA        -7.1210   11.9420  -21.1660 C.3    83  TYR83       0.1639
    116  C         -6.2320   11.1820  -20.1800 C.2    83  TYR83       0.2290
    117  O         -6.6700   10.8790  -19.0750 O.2    83  TYR83      -0.2864
    118  CB        -8.5310   11.3370  -21.2780 C.3    83  TYR83       0.0560
    119  CG        -9.5220   12.2820  -21.9410 C.ar   83  TYR83      -0.0198
    120  CD1       -9.9670   13.4250  -21.2800 C.ar   83  TYR83      -0.0009
    121  CD2      -10.0060   12.0350  -23.2350 C.ar   83  TYR83      -0.0009
    122  CE1      -10.8660   14.2940  -21.8790 C.ar   83  TYR83       0.0417
    123  CE2      -10.9140   12.8890  -23.8300 C.ar   83  TYR83       0.0417
    124  CZ       -11.3360   14.0250  -23.1550 C.ar   83  TYR83       0.1957
    125  OH       -12.2360   14.8860  -23.7590 O.3    83  TYR83      -0.2866
    126  N         -4.6840    8.1640  -20.2260 N.3    85  HIS85      -0.1241
    127  CA        -4.9050    6.7360  -20.0210 C.3    85  HIS85       0.1621
    128  C         -3.6940    5.9530  -20.5370 C.2    85  HIS85       0.2264
    129  O         -3.5940    5.6200  -21.7170 O.2    85  HIS85      -0.2867
    130  CB        -6.2010    6.3140  -20.7310 C.3    85  HIS85       0.0745
    131  CG        -7.4000    7.1040  -20.2960 C.ar   85  HIS85       0.0817
    132  ND1       -7.5070    7.6580  -19.0360 N.ar   85  HIS85      -0.2268
    133  CD2       -8.5340    7.4460  -20.9540 C.ar   85  HIS85       0.1154
    134  CE1       -8.6610    8.2960  -18.9330 C.ar   85  HIS85       0.1986
    135  NE2       -9.3060    8.1770  -20.0810 N.ar   85  HIS85      -0.2212
    136  N         -4.2040   14.8300  -36.3750 N.3   103  ASP103     -0.1239
    137  CA        -5.6030   15.0890  -36.7260 C.3   103  ASP103      0.1674
    138  C         -5.7240   16.1680  -37.8160 C.2   103  ASP103      0.2266
    139  O         -4.7550   16.4310  -38.5380 O.2   103  ASP103     -0.2867
    140  CB        -6.4420   15.4280  -35.4830 C.3   103  ASP103      0.1410
    141  CG        -6.0680   16.7730  -34.8520 C.2   103  ASP103      0.3668
    142  OD1       -5.2360   17.5220  -35.4150 O.co2 103  ASP103     -0.2456
    143  OD2       -6.6260   17.0810  -33.7800 O.co2 103  ASP103     -0.2456
    144  N         -6.0790   19.3800  -37.6320 N.3   105  TRP105     -0.1241
    145  CA        -5.2790   20.5630  -37.3390 C.3   105  TRP105      0.1605
    146  C         -3.8240   20.1730  -37.0560 C.2   105  TRP105      0.2264
    147  O         -3.0790   20.9320  -36.4350 O.2   105  TRP105     -0.2867
    148  CB        -5.8640   21.3180  -36.1520 C.3   105  TRP105      0.0550
    149  CG        -7.2350   21.8380  -36.3920 C.ar  105  TRP105      0.0003
    150  CD1       -7.5760   23.1040  -36.7700 C.ar  105  TRP105      0.0946
    151  CD2       -8.4590   21.1120  -36.2640 C.ar  105  TRP105      0.0152
    152  NE1       -8.9400   23.2090  -36.8850 N.ar  105  TRP105     -0.2442
    153  CE2       -9.5050   21.9990  -36.5810 C.ar  105  TRP105      0.0810
    154  CE3       -8.7730   19.7950  -35.9150 C.ar  105  TRP105      0.0012
    155  CZ2      -10.8430   21.6120  -36.5590 C.ar  105  TRP105      0.0191
    156  CZ3      -10.1010   19.4150  -35.8870 C.ar  105  TRP105      0.0001
    157  CH2      -11.1200   20.3200  -36.2080 C.ar  105  TRP105      0.0015
    158  N         -2.5640   18.1530  -34.9480 N.3   107  PHE107     -0.1241
    159  CA        -2.2170   17.7810  -33.5720 C.3   107  PHE107      0.1605
    160  C         -1.8650   16.2970  -33.5000 C.2   107  PHE107      0.2264
    161  O         -2.6210   15.4540  -33.9670 O.2   107  PHE107     -0.2867
    162  CB        -3.3770   18.0520  -32.5960 C.3   107  PHE107      0.0534
    163  CG        -3.5400   19.5040  -32.2170 C.ar  107  PHE107     -0.0203
    164  CD1       -3.2770   19.9250  -30.9290 C.ar  107  PHE107     -0.0042
    165  CD2       -3.9840   20.4320  -33.1470 C.ar  107  PHE107     -0.0042
    166  CE1       -3.4290   21.2780  -30.5660 C.ar  107  PHE107     -0.0003
    167  CE2       -4.1360   21.7880  -32.8000 C.ar  107  PHE107     -0.0003
    168  CZ        -3.8620   22.2050  -31.5090 C.ar  107  PHE107     -0.0000
    169  N         -1.2200   16.3300  -27.7190 N.3   112  GLU112     -0.1245
    170  CA        -2.3500   16.2130  -26.8100 C.3   112  GLU112      0.1567
    171  C         -1.8490   16.0370  -25.3950 C.2   112  GLU112      0.2260
    172  O         -2.2170   16.7890  -24.5000 O.2   112  GLU112     -0.2867
    173  CB        -3.2490   15.0270  -27.1860 C.3   112  GLU112      0.0388
    174  CG        -4.1960   15.2750  -28.3350 C.3   112  GLU112      0.1160
    175  CD        -4.8140   16.6480  -28.2570 C.2   112  GLU112      0.3649
    176  OE1       -5.8420   16.8100  -27.5630 O.co2 112  GLU112     -0.2457
    177  OE2       -4.2530   17.5680  -28.8800 O.co2 112  GLU112     -0.2457
    178  N         -2.1120   18.6120  -22.2410 N.3   116  LYS116     -0.1245
    179  CA        -2.8930   18.1430  -21.1070 C.3   116  LYS116      0.1561
    180  C         -2.0590   17.9910  -19.8480 C.2   116  LYS116      0.2260
    181  O         -2.5990   17.7610  -18.7690 O.2   116  LYS116     -0.2867
    182  CB        -3.5950   16.8250  -21.4430 C.3   116  LYS116      0.0271
    183  CG        -4.7660   17.0090  -22.3790 C.3   116  LYS116      0.0035
    184  CD        -5.5180   18.2820  -22.0410 C.3   116  LYS116      0.0206
    185  CE        -6.9090   18.2450  -22.6260 C.3   116  LYS116      0.1093
    186  NZ        -7.6260   17.0060  -22.1740 N.3   116  LYS116     -0.1314
    187  N          0.0540   15.5940  -19.3150 N.3   118  LYS118     -0.1245
    188  CA         0.1010   14.1740  -18.9490 C.3   118  LYS118      0.1561
    189  C          1.5140   13.6110  -19.0840 C.2   118  LYS118      0.2260
    190  O          1.8920   13.0780  -20.1260 O.2   118  LYS118     -0.2867
    191  CB        -0.8910   13.3660  -19.7820 C.3   118  LYS118      0.0271
    192  CG        -2.2880   13.9890  -19.8370 C.3   118  LYS118      0.0035
    193  CD        -2.9780   14.0360  -18.4660 C.3   118  LYS118      0.0206
    194  CE        -4.3800   14.6470  -18.5980 C.3   118  LYS118      0.1093
    195  NZ        -5.2330   14.5190  -17.3700 N.3   118  LYS118     -0.1314
    196  N         -1.0460   23.0080  -37.1120 N.3   137  ARG137     -0.1245
    197  CA        -1.3930   24.0570  -38.0760 C.3   137  ARG137      0.1563
    198  C         -0.9360   25.4410  -37.6250 C.2   137  ARG137      0.2260
    199  O         -0.7340   26.3400  -38.4560 O.2   137  ARG137     -0.2867
    200  CB        -2.9040   24.0860  -38.3250 C.3   137  ARG137      0.0307
    201  CG        -3.6700   24.8470  -37.2490 C.3   137  ARG137      0.0489
    202  CD        -5.0590   25.2530  -37.7110 C.3   137  ARG137      0.2205
    203  NE        -5.7840   25.9900  -36.6790 N.pl3 137  ARG137     -0.0865
    204  CZ        -7.0120   26.4790  -36.8260 C.cat 137  ARG137      0.5346
    205  NH1       -7.6650   26.3160  -37.9700 N.pl3 137  ARG137      0.1354
    206  NH2       -7.5870   27.1350  -35.8280 N.pl3 137  ARG137      0.1354
@<TRIPOS>BOND
     1   139   138    2
     2   199   198    2
     3   200   197    1
     4   200   201    1
     5   197   198    1
     6   197   196    1
     7   205   204    1
     8   138   137    1
     9   202   201    1
    10   202   203    1
    11   144   145    1
    12   145   146    1
    13   145   148    1
    14   146   147    2
    15   152   150   ar
    16   152   153   ar
    17   204   203    2
    18   204   206    1
    19   150   149   ar
    20   137   136    1
    21   137   140    1
    22   153   155   ar
    23   153   151   ar
    24   155   157   ar
    25   149   151   ar
    26   149   148    1
    27   151   154   ar
    28   157   156   ar
    29   154   156   ar
    30   140   141    1
    31   142   141   ar
    32    82    83    1
    33   158   159    1
    34   141   143   ar
    35     3     4    2
    36     3     2    1
    37    85    84    2
    38    12    11    2
    39     1     2    1
    40    11    10    1
    41    84    83    1
    42    83    86    1
    43   161   160    2
    44     2     5    1
    45    34    35   ar
    46    34    32   ar
    47    10     9    1
    48    10    13    1
    49    98    99   ar
    50    98    96   ar
    51   159   160    1
    52   159   162    1
    53    20    21    1
    54    35    33   ar
    55    23    22    2
    56   165   167   ar
    57   165   163   ar
    58    22    21    1
    59    32    31   ar
    60    99    97   ar
    61    96    95   ar
    62    86    87    1
    63   167   168   ar
    64    13    14    1
    65    21    24    1
    66    18    17    1
    67   162   163    1
    68     5     6    1
    69    87    89    1
    70    87    88    1
    71   163   164   ar
    72     7     6   ar
    73    33    31   ar
    74    17    19    1
    75    17    16    2
    76     6     8   ar
    77    31    30    1
    78    97    95   ar
    79    14    15    1
    80    95    94    1
    81   168   166   ar
    82    16    15    1
    83    24    25    1
    84   164   166   ar
    85    30    27    1
    86    94    91    1
    87    26    27    1
    88    90    91    1
    89   106   105    2
    90    27    28    1
    91    91    92    1
    92    45    43   ar
    93    45    46   ar
    94   177   175   ar
    95    43    41   ar
    96    46    44   ar
    97   105   107   am
    98   105   104    1
    99   174   175    1
   100   174   173    1
   101   175   176   ar
   102    28    36   am
   103    28    29    2
   104   100    92   am
   105   100   101    1
   106    92    93    2
   107    36    37    1
   108   169   170    1
   109    41    40    1
   110    41    42   ar
   111    44    42   ar
   112   104   101    1
   113   173   170    1
   114   101   102    1
   115    40    37    1
   116    37    38    1
   117   170   171    1
   118   102   103    2
   119    38    39    2
   120   171   172    2
   121   112   113    1
   122   112   109    1
   123    47    48    1
   124   108   109    1
   125   109   110    1
   126    48    49    1
   127   123   121   ar
   128   123   124   ar
   129   125   124    1
   130    60    58   ar
   131    60    61   ar
   132   121   119   ar
   133   124   122   ar
   134    58    56   ar
   135   110   114   am
   136   110   111    2
   137    49    51   am
   138    49    50    2
   139   185   186    1
   140   185   184    1
   141    62    61    1
   142    51    52    1
   143   114   115    1
   144   183   184    1
   145   183   182    1
   146    61    59   ar
   147   178   179    1
   148    74    73    2
   149   119   120   ar
   150   119   118    1
   151   122   120   ar
   152   129   128    2
   153    56    55    1
   154    56    57   ar
   155   182   179    1
   156    55    52    1
   157   118   115    1
   158    75    76    1
   159    75    72    1
   160    52    53    1
   161   115   116    1
   162   179   180    1
   163    73    72    1
   164    59    57   ar
   165    76    77    1
   166   133   131   ar
   167   133   135   ar
   168    63    53   am
   169    63    64    1
   170   130   131    1
   171   130   127    1
   172    71    72    1
   173    71    65   am
   174   128   127    1
   175    53    54    2
   176   131   132   ar
   177   126   127    1
   178   116   117    2
   179   190   189    2
   180   135   134   ar
   181    64    65    1
   182    64    67    1
   183   180   181    2
   184   192   191    1
   185   192   193    1
   186   191   188    1
   187    65    66    2
   188    77    78    1
   189   187   188    1
   190    78    79    2
   191   189   188    1
   192   132   134   ar
   193    69    68    2
   194    67    68    1
   195   194   193    1
   196   194   195    1
   197    68    70   am
   198    79    81    1
   199    79    80    1
