@<TRIPOS>MOLECULE
tmp/3tx2A00.pdb
 90 86 0 0 0
SMALL
GASTEIGER

@<TRIPOS>ATOM
      1  N         29.9290    6.3770   10.2300 N.3    78  LYS78      -0.1245
      2  CA        30.7060    6.4210    8.9880 C.3    78  LYS78       0.1561
      3  C         31.3830    7.7670    8.7530 C.2    78  LYS78       0.2260
      4  O         32.5620    7.8220    8.4080 O.2    78  LYS78      -0.2867
      5  CB        29.8120    6.0640    7.7910 C.3    78  LYS78       0.0271
      6  CG        30.4950    6.0480    6.4250 C.3    78  LYS78       0.0035
      7  CD        29.4880    6.0550    5.2730 C.3    78  LYS78       0.0206
      8  CE        28.8220    7.4210    5.0950 C.3    78  LYS78       0.1093
      9  NZ        27.6400    7.4720    4.1690 N.3    78  LYS78      -0.1314
     10  N         36.6640    8.8290   12.4480 N.3    83  ARG83      -0.1245
     11  CA        36.9290    7.6790   11.5870 C.3    83  ARG83       0.1563
     12  C         38.2190    7.8470   10.8240 C.2    83  ARG83       0.2260
     13  O         38.4600    8.8920   10.2160 O.2    83  ARG83      -0.2867
     14  CB        35.7970    7.4670   10.5850 C.3    83  ARG83       0.0307
     15  CG        34.5450    6.8900   11.2230 C.3    83  ARG83       0.0489
     16  CD        34.7020    5.4030   11.5300 C.3    83  ARG83       0.2205
     17  NE        34.7120    4.6490   10.2780 N.pl3  83  ARG83      -0.0865
     18  CZ        34.7860    3.3240   10.1850 C.cat  83  ARG83       0.5346
     19  NH1       34.9010    2.5730   11.2680 N.pl3  83  ARG83       0.1354
     20  NH2       34.7190    2.7460    8.9870 N.pl3  83  ARG83       0.1354
     21  N         38.8970    5.9390    8.1300 N.3    85  ALA85      -0.1231
     22  CA        38.5520    5.8220    6.7210 C.3    85  ALA85       0.1694
     23  C         38.0180    7.1420    6.1710 C.2    85  ALA85       0.2592
     24  O         38.4100    7.5390    5.0820 O.2    85  ALA85      -0.2718
     25  CB        37.5740    4.6710    6.4930 C.3    85  ALA85       0.0304
     26  N         37.1480    7.8210    6.9080 N.am   86  TRP86      -0.1976
     27  CA        36.6160    9.0940    6.4280 C.3    86  TRP86       0.1640
     28  C         37.6920   10.1400    6.3290 C.2    86  TRP86       0.2290
     29  O         37.6900   10.9530    5.3950 O.2    86  TRP86      -0.2864
     30  CB        35.4380    9.5760    7.2870 C.3    86  TRP86       0.0576
     31  CG        34.6050   10.6110    6.5740 C.ar   86  TRP86       0.0006
     32  CD1       34.6500   11.9930    6.7220 C.ar   86  TRP86       0.0946
     33  CD2       33.6380   10.3740    5.4920 C.ar   86  TRP86       0.0152
     34  NE1       33.7490   12.6040    5.8690 N.ar   86  TRP86      -0.2442
     35  CE2       33.1310   11.6900    5.0920 C.ar   86  TRP86       0.0810
     36  CE3       33.1480    9.2490    4.8570 C.ar   86  TRP86       0.0012
     37  CZ2       32.1740   11.8280    4.0930 C.ar   86  TRP86       0.0191
     38  CZ3       32.1780    9.4080    3.8540 C.ar   86  TRP86       0.0001
     39  CH2       31.7100   10.6670    3.4860 C.ar   86  TRP86       0.0015
     40  N         39.4610    9.4640    3.1910 N.3    89  TRP89      -0.1241
     41  CA        38.5330    9.8880    2.1340 C.3    89  TRP89       0.1605
     42  C         38.6810   11.3670    1.8550 C.2    89  TRP89       0.2264
     43  O         38.8750   11.8010    0.7240 O.2    89  TRP89      -0.2867
     44  CB        37.1170    9.5150    2.5630 C.3    89  TRP89       0.0550
     45  CG        36.0390   10.0170    1.6740 C.ar   89  TRP89       0.0003
     46  CD1       35.1870   11.0760    1.9150 C.ar   89  TRP89       0.0946
     47  CD2       35.7270    9.5550    0.3310 C.ar   89  TRP89       0.0152
     48  NE1       34.3600   11.2940    0.8470 N.ar   89  TRP89      -0.2442
     49  CE2       34.6240   10.3890   -0.1310 C.ar   89  TRP89       0.0810
     50  CE3       36.1930    8.5250   -0.4890 C.ar   89  TRP89       0.0012
     51  CZ2       34.0680   10.2280   -1.3950 C.ar   89  TRP89       0.0191
     52  CZ3       35.6060    8.3790   -1.7670 C.ar   89  TRP89       0.0001
     53  CH2       34.5720    9.1970   -2.1760 C.ar   89  TRP89       0.0015
     54  N         35.2760    2.5510   -5.7490 N.3   100  LEU100     -0.1245
     55  CA        34.9520    2.1230   -4.3700 C.3   100  LEU100      0.1561
     56  C         35.0390    0.6090   -4.1560 C.2   100  LEU100      0.2260
     57  O         35.2650    0.1460   -3.0280 O.2   100  LEU100     -0.2867
     58  CB        33.5720    2.6310   -3.9550 C.3   100  LEU100      0.0270
     59  CG        33.5050    4.1590   -3.8340 C.3   100  LEU100      0.0019
     60  CD1       32.0470    4.5950   -3.7690 C.3   100  LEU100      0.0001
     61  CD2       34.2920    4.6380   -2.6160 C.3   100  LEU100      0.0001
     62  N         38.1240   -0.1660   -2.3020 N.3   103  MET103     -0.1245
     63  CA        38.2830    0.4380   -0.9900 C.3   103  MET103      0.1570
     64  C         37.6320   -0.4850    0.0210 C.2   103  MET103      0.2261
     65  O         36.4480   -0.8300   -0.1360 O.2   103  MET103     -0.2867
     66  CB        37.5950    1.7850   -0.9830 C.3   103  MET103      0.0387
     67  CG        37.7220    2.5180    0.3090 C.3   103  MET103      0.0595
     68  SD        36.8120    4.0570    0.2810 S.3   103  MET103     -0.1393
     69  CE        36.5770    4.2350    2.0210 C.3   103  MET103      0.0692
     70  N         37.0780   -0.4310    3.7540 N.3   105  ALA105     -0.1231
     71  CA        36.9800    0.1240    5.0960 C.3   105  ALA105      0.1694
     72  C         36.5170   -0.9040    6.0970 C.2   105  ALA105      0.2591
     73  O         35.7690   -1.8240    5.7770 O.2   105  ALA105     -0.2718
     74  CB        36.0170    1.3020    5.1300 C.3   105  ALA105      0.0304
     75  N         36.9440   -0.7350    7.3390 N.am  106  MET106     -0.1979
     76  CA        36.4310   -1.5770    8.3990 C.3   106  MET106      0.1605
     77  C         34.9850   -1.2020    8.7370 C.2   106  MET106      0.2287
     78  O         34.5430   -0.1060    8.4180 O.2   106  MET106     -0.2864
     79  CB        37.2980   -1.4280    9.6380 C.3   106  MET106      0.0413
     80  CG        38.6410   -2.1290    9.4940 C.3   106  MET106      0.0598
     81  SD        39.5990   -1.8980   10.9970 S.3   106  MET106     -0.1393
     82  CE        40.8520   -3.1680   10.8090 C.3   106  MET106      0.0692
     83  N         31.7570    0.2490   10.6050 N.3   108  ASN108     -0.1240
     84  CA        31.5370    1.3790   11.5000 C.3   108  ASN108      0.1653
     85  C         30.3490    1.0900   12.4010 C.2   108  ASN108      0.2266
     86  O         29.7190    0.0490   12.2660 O.2   108  ASN108     -0.2867
     87  CB        31.3740    2.6670   10.6740 C.3   108  ASN108      0.1155
     88  CG        30.1400    2.6660    9.7920 C.2   108  ASN108      0.2627
     89  OD1       29.0200    2.7560   10.2560 O.2   108  ASN108     -0.2716
     90  ND2       30.3590    2.6040    8.4860 N.am  108  ASN108     -0.0877
@<TRIPOS>BOND
     1    54    55    1
     2    55    56    1
     3    55    58    1
     4    56    57    2
     5    58    59    1
     6    59    60    1
     7    59    61    1
     8    62    63    1
     9    53    52   ar
    10    53    51   ar
    11    52    50   ar
    12    51    49   ar
    13    63    66    1
    14    63    64    1
    15    66    67    1
    16    50    47   ar
    17    65    64    2
    18    49    47   ar
    19    49    48   ar
    20    68    67    1
    21    68    69    1
    22    47    45   ar
    23    43    42    2
    24    48    46   ar
    25    45    46   ar
    26    45    44    1
    27    42    41    1
    28    41    44    1
    29    41    40    1
    30    39    38   ar
    31    39    37   ar
    32    70    71    1
    33    38    36   ar
    34    37    35   ar
    35     9     8    1
    36    36    33   ar
    37    24    23    2
    38    35    33   ar
    39    35    34   ar
    40     8     7    1
    41    71    74    1
    42    71    72    1
    43     7     6    1
    44    29    28    2
    45    33    31   ar
    46    73    72    2
    47    34    32   ar
    48    72    75   am
    49    23    22    1
    50    23    26   am
    51    28    27    1
    52     6     5    1
    53    27    26    1
    54    27    30    1
    55    25    22    1
    56    31    32   ar
    57    31    30    1
    58    22    21    1
    59    75    76    1
    60     5     2    1
    61    76    77    1
    62    76    79    1
    63     4     3    2
    64    78    77    2
    65    90    88   am
    66     3     2    1
    67    20    18    1
    68     2     1    1
    69    80    79    1
    70    80    81    1
    71    88    89    2
    72    88    87    1
    73    18    17    2
    74    18    19    1
    75    13    12    2
    76    17    16    1
    77    14    15    1
    78    14    11    1
    79    83    84    1
    80    87    84    1
    81    82    81    1
    82    12    11    1
    83    15    16    1
    84    84    85    1
    85    11    10    1
    86    86    85    2
