@<TRIPOS>MOLECULE
tmp/3txtA00.pdb
 115 110 0 0 0
SMALL
GASTEIGER

@<TRIPOS>ATOM
      1  N          9.5150   40.2470   34.1640 N.3    50  HIS50      -0.1241
      2  CA         8.6530   41.0460   33.3070 C.3    50  HIS50       0.1621
      3  C          8.0370   42.1770   34.1100 C.2    50  HIS50       0.2264
      4  O          7.7880   43.2610   33.5800 O.2    50  HIS50      -0.2867
      5  CB         7.5580   40.1920   32.6690 C.3    50  HIS50       0.0745
      6  CG         6.8140   39.3420   33.6470 C.ar   50  HIS50       0.0817
      7  ND1        5.7760   39.8390   34.4360 N.ar   50  HIS50      -0.2268
      8  CD2        6.9450   38.0470   33.9910 C.ar   50  HIS50       0.1154
      9  CE1        5.3180   38.8770   35.2000 C.ar   50  HIS50       0.1986
     10  NE2        6.0050   37.7690   34.9610 N.ar   50  HIS50      -0.2212
     11  N          3.9060   55.2510   33.7300 N.3    59  HIS59      -0.1241
     12  CA         3.6910   53.8300   33.9730 C.3    59  HIS59       0.1621
     13  C          4.3720   53.4360   35.2810 C.2    59  HIS59       0.2264
     14  O          3.7380   52.8780   36.1810 O.2    59  HIS59      -0.2867
     15  CB         4.2280   53.0010   32.8070 C.3    59  HIS59       0.0745
     16  CG         3.9580   51.5410   32.9400 C.ar   59  HIS59       0.0817
     17  ND1        4.7560   50.5820   32.3330 N.ar   59  HIS59      -0.2268
     18  CD2        2.9880   50.8500   33.5860 C.ar   59  HIS59       0.1154
     19  CE1        4.2950   49.3830   32.6120 C.ar   59  HIS59       0.1986
     20  NE2        3.2080   49.5220   33.3770 N.ar   59  HIS59      -0.2212
     21  N          2.5100   52.9290   39.1640 N.3    63  ASN63      -0.1240
     22  CA         2.7880   51.6210   39.7540 C.3    63  ASN63       0.1653
     23  C          3.5910   51.7580   41.0460 C.2    63  ASN63       0.2266
     24  O          3.1980   51.2110   42.0740 O.2    63  ASN63      -0.2867
     25  CB         3.4830   50.6990   38.7530 C.3    63  ASN63       0.1155
     26  CG         2.5000   50.0120   37.8260 C.2    63  ASN63       0.2627
     27  OD1        1.3100   49.9050   38.1370 O.2    63  ASN63      -0.2716
     28  ND2        2.9910   49.5280   36.6910 N.am   63  ASN63      -0.0877
     29  N         -0.5040   36.7370   36.6470 N.3    94  SER94      -0.1217
     30  CA        -0.9040   37.7830   35.7130 C.3    94  SER94       0.1889
     31  C          0.0080   37.7160   34.4830 C.2    94  SER94       0.2288
     32  O         -0.4500   37.8220   33.3420 O.2    94  SER94      -0.2866
     33  CB        -0.9200   39.1640   36.3660 C.3    94  SER94       0.2089
     34  OG         0.3610   39.5280   36.8300 O.3    94  SER94      -0.2183
     35  N         -1.3930   37.2440   30.7790 N.3    98  GLN98      -0.1245
     36  CA        -1.0260   38.2880   29.8280 C.3    98  GLN98       0.1566
     37  C         -0.4420   37.6910   28.5550 C.2    98  GLN98       0.2260
     38  O         -0.8840   38.0030   27.4480 O.2    98  GLN98      -0.2867
     39  CB        -0.0060   39.2410   30.4670 C.3    98  GLN98       0.0367
     40  CG         0.4910   40.3290   29.5390 C.3    98  GLN98       0.0905
     41  CD        -0.6270   41.2870   29.1360 C.2    98  GLN98       0.2608
     42  OE1       -1.5680   41.5160   29.9030 O.2    98  GLN98      -0.2717
     43  NE2       -0.5270   41.8510   27.9310 N.am   98  GLN98      -0.0878
     44  N          5.6630   42.3110   27.1180 N.3   106  PHE106     -0.1227
     45  CA         4.9380   43.1140   28.0960 C.3   106  PHE106      0.1736
     46  C          5.8100   43.2810   29.3320 C.2   106  PHE106      0.2596
     47  O          6.8430   42.6110   29.4740 O.2   106  PHE106     -0.2718
     48  CB         3.6060   42.4390   28.4830 C.3   106  PHE106      0.0547
     49  CG         3.7710   41.1260   29.2520 C.ar  106  PHE106     -0.0202
     50  CD1        3.8800   41.1240   30.6400 C.ar  106  PHE106     -0.0042
     51  CD2        3.8040   39.8990   28.5840 C.ar  106  PHE106     -0.0042
     52  CE1        4.0130   39.9290   31.3530 C.ar  106  PHE106     -0.0003
     53  CE2        3.9470   38.6860   29.2970 C.ar  106  PHE106     -0.0003
     54  CZ         4.0520   38.7100   30.6830 C.ar  106  PHE106     -0.0000
     55  N          5.3890   44.1730   30.2210 N.am  107  GLY107     -0.1942
     56  CA         6.1080   44.4160   31.4520 C.3   107  GLY107      0.2014
     57  C          5.3250   45.3470   32.3530 C.2   107  GLY107      0.2639
     58  O          4.4300   46.0550   31.9070 O.2   107  GLY107     -0.2714
     59  N          5.6500   45.3410   33.6370 N.am  108  GLY108     -0.1954
     60  CA         5.0460   46.2900   34.5500 C.3   108  GLY108      0.1869
     61  C          4.6120   45.6710   35.8510 C.2   108  GLY108      0.2309
     62  O          4.3080   44.4680   35.9210 O.2   108  GLY108     -0.2863
     63  N          1.9150   46.4230   37.5150 N.3   110  SER110     -0.1202
     64  CA         0.4850   46.6300   37.7940 C.3   110  SER110      0.2020
     65  C         -0.3180   45.3640   38.1390 C.2   110  SER110      0.2619
     66  O         -1.3500   45.4460   38.8220 O.2   110  SER110     -0.2717
     67  CB        -0.1960   47.3930   36.6580 C.3   110  SER110      0.2103
     68  OG        -0.3460   46.5680   35.5160 O.3   110  SER110     -0.2182
     69  N          0.1320   44.2000   37.6750 N.am  111  GLY111     -0.1956
     70  CA        -0.5480   42.9640   38.0300 C.3   111  GLY111      0.1869
     71  C         -0.4340   42.8310   39.5370 C.2   111  GLY111      0.2309
     72  O         -1.4040   42.5120   40.2250 O.2   111  GLY111     -0.2863
     73  N         -2.5480   45.5460   41.4030 N.3   114  TYR114     -0.1241
     74  CA        -3.9560   45.1380   41.4550 C.3   114  TYR114      0.1605
     75  C         -4.1870   44.1010   42.5470 C.2   114  TYR114      0.2264
     76  O         -5.1790   44.1800   43.2780 O.2   114  TYR114     -0.2867
     77  CB        -4.4420   44.6260   40.0960 C.3   114  TYR114      0.0534
     78  CG        -4.4560   45.7130   39.0440 C.ar  114  TYR114     -0.0201
     79  CD1       -4.6990   47.0350   39.3920 C.ar  114  TYR114     -0.0009
     80  CD2       -4.2130   45.4250   37.7110 C.ar  114  TYR114     -0.0009
     81  CE1       -4.7190   48.0380   38.4360 C.ar  114  TYR114      0.0417
     82  CE2       -4.2260   46.4170   36.7530 C.ar  114  TYR114      0.0417
     83  CZ        -4.4830   47.7250   37.1200 C.ar  114  TYR114      0.1957
     84  OH        -4.5040   48.7280   36.1750 O.3   114  TYR114     -0.2866
     85  N         -7.0580   53.5770   38.5650 N.3   145  TRP145     -0.1241
     86  CA        -5.9180   52.8640   37.9920 C.3   145  TRP145      0.1605
     87  C         -6.4260   51.5160   37.4290 C.2   145  TRP145      0.2264
     88  O         -6.0150   51.0880   36.3590 O.2   145  TRP145     -0.2867
     89  CB        -4.8020   52.6980   39.0390 C.3   145  TRP145      0.0550
     90  CG        -3.4360   52.2540   38.5050 C.ar  145  TRP145      0.0003
     91  CD1       -2.6410   51.2580   39.0160 C.ar  145  TRP145      0.0946
     92  CD2       -2.7110   52.8030   37.3840 C.ar  145  TRP145      0.0152
     93  NE1       -1.4790   51.1530   38.2840 N.ar  145  TRP145     -0.2442
     94  CE2       -1.4940   52.0840   37.2780 C.ar  145  TRP145      0.0810
     95  CE3       -2.9760   53.8260   36.4600 C.ar  145  TRP145      0.0012
     96  CZ2       -0.5430   52.3520   36.2850 C.ar  145  TRP145      0.0191
     97  CZ3       -2.0310   54.0920   35.4710 C.ar  145  TRP145      0.0001
     98  CH2       -0.8260   53.3560   35.3920 C.ar  145  TRP145      0.0015
     99  N         -8.2250   52.1690   34.2740 N.3   148  ALA148     -0.1231
    100  CA        -7.2260   52.5360   33.2810 C.3   148  ALA148      0.1694
    101  C         -6.6730   51.2730   32.6360 C.2   148  ALA148      0.2592
    102  O         -6.2670   51.2750   31.4730 O.2   148  ALA148     -0.2718
    103  CB        -6.1020   53.3360   33.9190 C.3   148  ALA148      0.0304
    104  N         -6.6680   50.1900   33.4030 N.am  149  GLY149     -0.1957
    105  CA        -6.1200   48.9360   32.9350 C.3   149  GLY149      0.1869
    106  C         -7.1060   48.1590   32.0910 C.2   149  GLY149      0.2309
    107  O         -6.7380   47.6080   31.0510 O.2   149  GLY149     -0.2863
    108  N         -3.1030   46.1730   29.1410 N.3   154  MET154     -0.1245
    109  CA        -3.0450   44.7800   29.5680 C.3   154  MET154      0.1570
    110  C         -4.2730   43.9950   29.1170 C.2   154  MET154      0.2261
    111  O         -5.3360   44.5750   28.8660 O.2   154  MET154     -0.2867
    112  CB        -2.8620   44.6800   31.0940 C.3   154  MET154      0.0387
    113  CG        -4.0960   44.9770   31.9200 C.3   154  MET154      0.0595
    114  SD        -3.7470   44.9650   33.6960 S.3   154  MET154     -0.1393
    115  CE        -2.8230   43.4510   33.9100 C.3   154  MET154      0.0692
@<TRIPOS>BOND
     1    44    45    1
     2    38    37    2
     3    43    41   am
     4    45    48    1
     5    45    46    1
     6    48    49    1
     7    37    36    1
     8    51    49   ar
     9    51    53   ar
    10   111   110    2
    11   110   109    1
    12    41    40    1
    13    41    42    2
    14   108   109    1
    15    49    50   ar
    16    53    54   ar
    17    46    47    2
    18    46    55   am
    19    40    39    1
    20   109   112    1
    21    36    39    1
    22    36    35    1
    23    55    56    1
    24    50    52   ar
    25    54    52   ar
    26   107   106    2
    27   112   113    1
    28    56    57    1
    29   102   101    2
    30    58    57    2
    31   113   114    1
    32   106   105    1
    33    17    19   ar
    34    17    16   ar
    35    57    59   am
    36    19    20   ar
    37   101   100    1
    38   101   104   am
    39     5     2    1
    40     5     6    1
    41    15    16    1
    42    15    12    1
    43   105   104    1
    44    16    18   ar
    45   100   103    1
    46   100    99    1
    47     2     3    1
    48     2     1    1
    49    32    31    2
    50    20    18   ar
    51     4     3    2
    52    59    60    1
    53     6     8   ar
    54     6     7   ar
    55   114   115    1
    56    11    12    1
    57    12    13    1
    58     8    10   ar
    59     7     9   ar
    60    31    30    1
    61    60    61    1
    62    10     9   ar
    63    13    14    2
    64    98    97   ar
    65    98    96   ar
    66    97    95   ar
    67    68    67    1
    68    30    33    1
    69    30    29    1
    70    61    62    2
    71    84    83    1
    72    96    94   ar
    73    88    87    2
    74    33    34    1
    75    95    92   ar
    76    67    64    1
    77    28    26   am
    78    82    83   ar
    79    82    80   ar
    80    83    81   ar
    81    94    92   ar
    82    94    93   ar
    83    92    90   ar
    84    87    86    1
    85    63    64    1
    86    69    70    1
    87    69    65   am
    88    80    78   ar
    89    64    65    1
    90    26    27    2
    91    26    25    1
    92    86    85    1
    93    86    89    1
    94    70    71    1
    95    65    66    2
    96    93    91   ar
    97    81    79   ar
    98    90    91   ar
    99    90    89    1
   100    25    22    1
   101    78    79   ar
   102    78    77    1
   103    21    22    1
   104    71    72    2
   105    22    23    1
   106    77    74    1
   107    23    24    2
   108    73    74    1
   109    74    75    1
   110    75    76    2
