@<TRIPOS>MOLECULE
tmp/3ty0B00.pdb
 223 212 0 0 0
SMALL
GASTEIGER

@<TRIPOS>ATOM
      1  N         31.0300  -34.2760   34.5270 N.3    26  PHE26      -0.1241
      2  CA        31.0010  -33.3310   35.6460 C.3    26  PHE26       0.1605
      3  C         30.6230  -34.0750   36.9440 C.2    26  PHE26       0.2264
      4  O         29.4390  -34.1630   37.2890 O.2    26  PHE26      -0.2867
      5  CB        30.0390  -32.1560   35.3570 C.3    26  PHE26       0.0534
      6  CG        30.1050  -31.5850   33.9560 C.ar   26  PHE26      -0.0203
      7  CD1       29.1780  -31.9600   32.9890 C.ar   26  PHE26      -0.0042
      8  CD2       31.0810  -30.6590   33.6100 C.ar   26  PHE26      -0.0042
      9  CE1       29.2420  -31.4370   31.6930 C.ar   26  PHE26      -0.0003
     10  CE2       31.1310  -30.1190   32.3180 C.ar   26  PHE26      -0.0003
     11  CZ        30.2100  -30.5100   31.3690 C.ar   26  PHE26      -0.0000
     12  N         30.8970  -33.3460   40.1850 N.3    28  LEU28      -0.1245
     13  CA        30.1560  -32.5640   41.1640 C.3    28  LEU28       0.1561
     14  C         28.8720  -31.9960   40.5420 C.2    28  LEU28       0.2260
     15  O         28.8440  -30.8850   40.0100 O.2    28  LEU28      -0.2867
     16  CB        31.0350  -31.5070   41.8500 C.3    28  LEU28       0.0270
     17  CG        30.4130  -30.7240   43.0170 C.3    28  LEU28       0.0019
     18  CD1       29.9180  -31.6400   44.1210 C.3    28  LEU28       0.0001
     19  CD2       31.4010  -29.7310   43.5630 C.3    28  LEU28       0.0001
     20  N         43.9030  -26.8260   48.9740 N.3    64  PHE64      -0.1227
     21  CA        43.1720  -26.3910   47.7820 C.3    64  PHE64       0.1736
     22  C         43.9970  -26.3620   46.4990 C.2    64  PHE64       0.2595
     23  O         45.2200  -26.4500   46.5310 O.2    64  PHE64      -0.2718
     24  CB        42.5090  -25.0190   48.0070 C.3    64  PHE64       0.0547
     25  CG        41.6070  -24.8950   49.2120 C.ar   64  PHE64      -0.0202
     26  CD1       40.5440  -25.7720   49.4010 C.ar   64  PHE64      -0.0042
     27  CD2       41.7940  -23.8770   50.1370 C.ar   64  PHE64      -0.0042
     28  CE1       39.7020  -25.6490   50.5100 C.ar   64  PHE64      -0.0003
     29  CE2       40.9480  -23.7510   51.2400 C.ar   64  PHE64      -0.0003
     30  CZ        39.9190  -24.6490   51.4280 C.ar   64  PHE64      -0.0000
     31  N         43.3030  -26.2290   45.3630 N.am   65  LYS65      -0.1966
     32  CA        43.8800  -26.1730   44.0200 C.3    65  LYS65       0.1728
     33  C         44.5950  -24.8300   43.7520 C.2    65  LYS65       0.2616
     34  O         45.4310  -24.7670   42.8520 O.2    65  LYS65      -0.2715
     35  CB        42.7950  -26.4560   42.9650 C.3    65  LYS65       0.0311
     36  CG        42.1340  -27.8420   43.0790 C.3    65  LYS65       0.0038
     37  CD        40.7850  -27.8790   42.3440 C.3    65  LYS65       0.0206
     38  CE        40.1560  -29.2560   42.2490 C.3    65  LYS65       0.1093
     39  NZ        38.9600  -29.2400   41.3620 N.3    65  LYS65      -0.1314
     40  N         44.2850  -23.7740   44.5540 N.am   66  HIS66      -0.1973
     41  CA        44.8680  -22.4250   44.4580 C.3    66  HIS66       0.1656
     42  C         46.0390  -22.1630   45.4540 C.2    66  HIS66       0.2291
     43  O         46.4980  -21.0220   45.5820 O.2    66  HIS66      -0.2864
     44  CB        43.7670  -21.3450   44.5720 C.3    66  HIS66       0.0771
     45  CG        43.4280  -20.9580   45.9810 C.ar   66  HIS66       0.0820
     46  ND1       42.7000  -21.7970   46.8080 N.ar   66  HIS66      -0.2267
     47  CD2       43.7450  -19.8370   46.6690 C.ar   66  HIS66       0.1154
     48  CE1       42.5950  -21.1610   47.9640 C.ar   66  HIS66       0.1986
     49  NE2       43.2070  -19.9780   47.9290 N.ar   66  HIS66      -0.2212
     50  N         43.3490  -15.8250   44.4350 N.3    81  ILE81      -0.1245
     51  CA        41.9710  -16.3130   44.2750 C.3    81  ILE81       0.1561
     52  C         41.5010  -16.1280   42.8010 C.2    81  ILE81       0.2260
     53  O         41.0030  -17.0820   42.1950 O.2    81  ILE81      -0.2867
     54  CB        41.0000  -15.6670   45.3080 C.3    81  ILE81       0.0252
     55  CG1       41.3390  -16.1480   46.7420 C.3    81  ILE81       0.0019
     56  CG2       39.5200  -15.9740   44.9370 C.3    81  ILE81       0.0019
     57  CD1       40.5730  -15.4720   47.8700 C.3    81  ILE81       0.0001
     58  N         43.2660  -18.4680   40.5840 N.3    84  GLY84      -0.1210
     59  CA        42.7690  -19.8010   40.9120 C.3    84  GLY84       0.1956
     60  C         41.5080  -20.1420   40.1370 C.2    84  GLY84       0.2612
     61  O         41.3820  -21.2620   39.6340 O.2    84  GLY84      -0.2717
     62  N         40.5820  -19.1540   39.9950 N.am   85  CYS85      -0.1970
     63  CA        39.3250  -19.2820   39.2350 C.3    85  CYS85       0.1712
     64  C         39.6480  -19.4300   37.7610 C.2    85  CYS85       0.2296
     65  O         38.9720  -20.1860   37.0700 O.2    85  CYS85      -0.2864
     66  CB        38.3900  -18.1030   39.4870 C.3    85  CYS85       0.0983
     67  SG        37.7420  -18.0220   41.1760 S.3    85  CYS85      -0.0798
     68  N         40.8840  -23.0730   37.2640 N.3    88  ARG88      -0.1231
     69  CA        39.7410  -23.9940   37.3150 C.3    88  ARG88       0.1694
     70  C         38.9540  -23.8730   36.0150 C.2    88  ARG88       0.2592
     71  O         38.4920  -24.8890   35.4910 O.2    88  ARG88      -0.2718
     72  CB        38.8520  -23.6700   38.5380 C.3    88  ARG88       0.0321
     73  CG        37.5400  -24.4690   38.6860 C.3    88  ARG88       0.0489
     74  CD        37.6760  -25.9860   38.6610 C.3    88  ARG88       0.2205
     75  NE        36.3790  -26.6030   38.3710 N.pl3  88  ARG88      -0.0865
     76  CZ        36.1940  -27.6440   37.5650 C.cat  88  ARG88       0.5346
     77  NH1       34.9750  -28.1220   37.3590 N.pl3  88  ARG88       0.1354
     78  NH2       37.2280  -28.2190   36.9620 N.pl3  88  ARG88       0.1354
     79  N         38.8190  -22.6300   35.4870 N.am   89  SER89      -0.1952
     80  CA        38.0990  -22.3600   34.2410 C.3    89  SER89       0.1924
     81  C         38.7820  -23.0570   33.0620 C.2    89  SER89       0.2314
     82  O         38.0910  -23.6490   32.2360 O.2    89  SER89      -0.2863
     83  CB        37.9610  -20.8600   34.0010 C.3    89  SER89       0.2116
     84  OG        37.1690  -20.2720   35.0200 O.3    89  SER89      -0.2180
     85  N         38.1280  -26.7650   33.4710 N.3    92  ALA92      -0.1245
     86  CA        36.7290  -27.0390   33.0920 C.3    92  ALA92       0.1562
     87  C         36.5670  -27.1950   31.5770 C.2    92  ALA92       0.2260
     88  O         35.7340  -27.9900   31.1420 O.2    92  ALA92      -0.2867
     89  CB        35.8180  -25.9280   33.5950 C.3    92  ALA92       0.0290
     90  N         36.5530  -30.7220   30.5500 N.3    95  GLU95      -0.1231
     91  CA        35.3570  -31.4570   30.9590 C.3    95  GLU95       0.1699
     92  C         34.2320  -31.1590   29.9660 C.2    95  GLU95       0.2592
     93  O         33.5300  -32.0740   29.5510 O.2    95  GLU95      -0.2718
     94  CB        34.9470  -31.0840   32.3880 C.3    95  GLU95       0.0402
     95  CG        35.9430  -31.4930   33.4530 C.3    95  GLU95       0.1161
     96  CD        35.8490  -30.6770   34.7290 C.2    95  GLU95       0.3649
     97  OE1       34.7430  -30.1800   35.0470 O.co2  95  GLU95      -0.2457
     98  OE2       36.8880  -30.5320   35.4120 O.co2  95  GLU95      -0.2457
     99  N         34.0900  -29.8810   29.5810 N.am   96  ILE96      -0.1980
    100  CA        33.0810  -29.3770   28.6380 C.3    96  ILE96       0.1595
    101  C         33.3120  -29.9380   27.2330 C.2    96  ILE96       0.2287
    102  O         32.3410  -30.2600   26.5480 O.2    96  ILE96      -0.2864
    103  CB        33.0640  -27.8220   28.6500 C.3    96  ILE96       0.0276
    104  CG1       32.6670  -27.3070   30.0530 C.3    96  ILE96       0.0022
    105  CG2       32.1070  -27.2600   27.5630 C.3    96  ILE96       0.0022
    106  CD1       32.9620  -25.8300   30.3320 C.3    96  ILE96       0.0001
    107  N         30.4910  -22.3280   31.9040 N.3   126  ILE126     -0.1231
    108  CA        31.1480  -22.2100   33.2220 C.3   126  ILE126      0.1692
    109  C         30.2220  -21.4750   34.2020 C.2   126  ILE126      0.2592
    110  O         30.0170  -21.9440   35.3260 O.2   126  ILE126     -0.2718
    111  CB        32.5860  -21.5690   33.1320 C.3   126  ILE126      0.0266
    112  CG1       33.6100  -22.5800   32.5420 C.3   126  ILE126      0.0019
    113  CG2       33.0640  -21.0560   34.5010 C.3   126  ILE126      0.0020
    114  CD1       34.8820  -21.9730   31.9410 C.3   126  ILE126      0.0001
    115  N         29.6730  -20.3270   33.7770 N.am  127  TYR127     -0.1976
    116  CA        28.7820  -19.5260   34.6240 C.3   127  TYR127      0.1639
    117  C         27.4540  -20.2120   34.9330 C.2   127  TYR127      0.2290
    118  O         26.9470  -20.0520   36.0420 O.2   127  TYR127     -0.2864
    119  CB        28.6330  -18.0780   34.1150 C.3   127  TYR127      0.0560
    120  CG        29.9640  -17.3690   33.9730 C.ar  127  TYR127     -0.0198
    121  CD1       30.2280  -16.5500   32.8780 C.ar  127  TYR127     -0.0009
    122  CD2       30.9770  -17.5460   34.9130 C.ar  127  TYR127     -0.0009
    123  CE1       31.4600  -15.9100   32.7300 C.ar  127  TYR127      0.0417
    124  CE2       32.2150  -16.9210   34.7700 C.ar  127  TYR127      0.0417
    125  CZ        32.4520  -16.1030   33.6760 C.ar  127  TYR127      0.1957
    126  OH        33.6700  -15.4780   33.5410 O.3   127  TYR127     -0.2866
    127  N         27.0500  -23.5870   35.1260 N.3   129  MET129     -0.1230
    128  CA        27.4600  -24.6570   36.0350 C.3   129  MET129      0.1702
    129  C         27.8340  -24.1130   37.4130 C.2   129  MET129      0.2592
    130  O         27.5170  -24.7490   38.4070 O.2   129  MET129     -0.2718
    131  CB        28.6190  -25.4840   35.4460 C.3   129  MET129      0.0401
    132  CG        28.2740  -26.2470   34.1600 C.3   129  MET129      0.0596
    133  SD        27.1240  -27.6130   34.4190 S.3   129  MET129     -0.1393
    134  CE        28.2420  -28.8510   35.1070 C.3   129  MET129      0.0692
    135  N         28.4820  -22.9310   37.4700 N.am  130  LEU130     -0.1980
    136  CA        28.8960  -22.2480   38.6970 C.3   130  LEU130      0.1596
    137  C         27.6820  -21.9410   39.6050 C.2   130  LEU130      0.2287
    138  O         27.8140  -22.0160   40.8290 O.2   130  LEU130     -0.2864
    139  CB        29.6860  -20.9560   38.3680 C.3   130  LEU130      0.0297
    140  CG        30.2470  -20.1320   39.5520 C.3   130  LEU130      0.0022
    141  CD1       31.1390  -20.9680   40.4440 C.3   130  LEU130      0.0001
    142  CD2       31.0140  -18.9130   39.0580 C.3   130  LEU130      0.0001
    143  N         26.8470  -24.4330   42.2890 N.3   133  LEU133     -0.1245
    144  CA        27.6940  -24.4560   43.4890 C.3   133  LEU133      0.1561
    145  C         27.5050  -23.2080   44.3410 C.2   133  LEU133      0.2260
    146  O         28.1740  -23.0510   45.3610 O.2   133  LEU133     -0.2867
    147  CB        29.1850  -24.6010   43.1050 C.3   133  LEU133      0.0270
    148  CG        29.5720  -25.5400   41.9720 C.3   133  LEU133      0.0019
    149  CD1       31.0460  -25.3730   41.6250 C.3   133  LEU133      0.0001
    150  CD2       29.2500  -26.9870   42.3020 C.3   133  LEU133      0.0001
    151  N         29.9270  -19.7610   47.6880 N.3   139  VAL139     -0.1231
    152  CA        30.2010  -20.7850   46.6900 C.3   139  VAL139      0.1692
    153  C         31.0540  -21.9260   47.2170 C.2   139  VAL139      0.2592
    154  O         31.9730  -21.6960   47.9950 O.2   139  VAL139     -0.2718
    155  CB        30.7700  -20.1460   45.3850 C.3   139  VAL139      0.0266
    156  CG1       32.0270  -19.3120   45.6540 C.3   139  VAL139      0.0020
    157  CG2       31.0110  -21.1830   44.2830 C.3   139  VAL139      0.0020
    158  N         30.7400  -23.1590   46.7750 N.am  140  LEU140     -0.1966
    159  CA        31.4800  -24.3700   47.0990 C.3   140  LEU140      0.1728
    160  C         32.8310  -24.2660   46.3890 C.2   140  LEU140      0.2616
    161  O         32.8880  -23.8380   45.2370 O.2   140  LEU140     -0.2715
    162  CB        30.7280  -25.5950   46.5650 C.3   140  LEU140      0.0311
    163  CG        29.8700  -26.4520   47.5090 C.3   140  LEU140      0.0022
    164  CD1       29.7470  -25.8840   48.9180 C.3   140  LEU140      0.0001
    165  CD2       28.5360  -26.7370   46.9000 C.3   140  LEU140      0.0001
    166  N         33.9080  -24.6440   47.0790 N.am  141  ILE141     -0.1963
    167  CA        35.2780  -24.5920   46.5670 C.3   141  ILE141      0.1727
    168  C         35.9130  -25.9850   46.4990 C.2   141  ILE141      0.2616
    169  O         35.6350  -26.8370   47.3500 O.2   141  ILE141     -0.2715
    170  CB        36.0870  -23.5330   47.3910 C.3   141  ILE141      0.0290
    171  CG1       36.3120  -22.2520   46.5930 C.3   141  ILE141      0.0022
    172  CG2       37.3700  -24.0350   48.0600 C.3   141  ILE141      0.0023
    173  CD1       35.1020  -21.4180   46.5020 C.3   141  ILE141      0.0001
    174  N         36.7500  -26.1990   45.4670 N.am  142  SER142     -0.1950
    175  CA        37.5020  -27.4250   45.1780 C.3   142  SER142      0.1924
    176  C         36.7550  -28.7390   45.4620 C.2   142  SER142      0.2314
    177  O         36.9410  -29.3520   46.5170 O.2   142  SER142     -0.2863
    178  CB        38.8730  -27.3930   45.8560 C.3   142  SER142      0.2116
    179  OG        38.7350  -27.4180   47.2660 O.3   142  SER142     -0.2180
    180  N         33.4490  -20.8950   50.1830 N.3   148  MET148     -0.1245
    181  CA        33.9590  -19.5400   50.3080 C.3   148  MET148      0.1570
    182  C         32.7740  -18.6130   50.3260 C.2   148  MET148      0.2261
    183  O         31.9420  -18.6600   49.4170 O.2   148  MET148     -0.2867
    184  CB        34.9380  -19.1960   49.1980 C.3   148  MET148      0.0387
    185  CG        35.7530  -17.9710   49.4900 C.3   148  MET148      0.0595
    186  SD        36.9190  -17.6970   48.1600 S.3   148  MET148     -0.1393
    187  CE        38.0440  -19.0790   48.4410 C.3   148  MET148      0.0692
    188  N         34.7120  -12.7880   49.6150 N.3   153  LEU153     -0.1245
    189  CA        35.0440  -12.4510   48.2290 C.3   153  LEU153      0.1561
    190  C         34.8010  -10.9610   47.9620 C.2   153  LEU153      0.2260
    191  O         35.5550  -10.3480   47.2090 O.2   153  LEU153     -0.2867
    192  CB        34.2770  -13.3400   47.2300 C.3   153  LEU153      0.0270
    193  CG        34.8280  -14.7630   47.0630 C.3   153  LEU153      0.0019
    194  CD1       33.7650  -15.6970   46.5470 C.3   153  LEU153      0.0001
    195  CD2       36.0570  -14.7850   46.1500 C.3   153  LEU153      0.0001
    196  N         34.5510   -8.9300   41.5130 N.3   163  PHE163     -0.1227
    197  CA        34.6090   -9.9680   40.4700 C.3   163  PHE163      0.1736
    198  C         33.5400  -11.0660   40.5320 C.2   163  PHE163      0.2595
    199  O         32.9520  -11.3900   39.4970 O.2   163  PHE163     -0.2718
    200  CB        36.0470  -10.4820   40.1850 C.3   163  PHE163      0.0547
    201  CG        36.4920  -11.8200   40.7480 C.ar  163  PHE163     -0.0202
    202  CD1       36.5090  -12.9600   39.9490 C.ar  163  PHE163     -0.0042
    203  CD2       36.9570  -11.9260   42.0540 C.ar  163  PHE163     -0.0042
    204  CE1       36.9550  -14.1880   40.4570 C.ar  163  PHE163     -0.0003
    205  CE2       37.3880  -13.1580   42.5670 C.ar  163  PHE163     -0.0003
    206  CZ        37.3800  -14.2820   41.7630 C.ar  163  PHE163     -0.0000
    207  N         33.2620  -11.6020   41.7310 N.am  164  MET164     -0.1979
    208  CA        32.2720  -12.6710   41.9120 C.3   164  MET164      0.1605
    209  C         30.8240  -12.2280   42.0030 C.2   164  MET164      0.2287
    210  O         29.9300  -13.0310   41.7100 O.2   164  MET164     -0.2864
    211  CB        32.6540  -13.6170   43.0570 C.3   164  MET164      0.0413
    212  CG        33.8490  -14.5020   42.7400 C.3   164  MET164      0.0598
    213  SD        33.4150  -15.9260   41.7270 S.3   164  MET164     -0.1393
    214  CE        33.6980  -15.2990   40.1820 C.3   164  MET164      0.0692
    215  N         28.3230  -12.8640   39.0630 N.3   167  LYS167     -0.1245
    216  CA        28.0320  -14.3030   39.0060 C.3   167  LYS167      0.1561
    217  C         27.0730  -14.6880   40.1440 C.2   167  LYS167      0.2260
    218  O         26.1950  -15.5150   39.9320 O.2   167  LYS167     -0.2867
    219  CB        29.3020  -15.1720   38.9890 C.3   167  LYS167      0.0271
    220  CG        30.5850  -14.3960   38.7270 C.3   167  LYS167      0.0035
    221  CD        31.1760  -14.6010   37.3720 C.3   167  LYS167      0.0206
    222  CE        32.3650  -13.6860   37.2080 C.3   167  LYS167      0.1093
    223  NZ        32.9820  -13.7850   35.8710 N.3   167  LYS167     -0.1314
@<TRIPOS>BOND
     1   102   101    2
     2   101   100    1
     3   105   103    1
     4   100   103    1
     5   100    99    1
     6   103   104    1
     7    93    92    2
     8    99    92   am
     9    92    91    1
    10   104   106    1
    11    90    91    1
    12    91    94    1
    13    88    87    2
    14    11     9   ar
    15    11    10   ar
    16    87    86    1
    17     9     7   ar
    18   107   108    1
    19   114   112    1
    20    82    81    2
    21    10     8   ar
    22    94    95    1
    23   112   111    1
    24   123   121   ar
    25   123   125   ar
    26   121   120   ar
    27     7     6   ar
    28    81    80    1
    29    86    85    1
    30    86    89    1
    31   111   108    1
    32   111   113    1
    33   108   109    1
    34    95    96    1
    35   126   125    1
    36     8     6   ar
    37   125   124   ar
    38   115   109   am
    39   115   116    1
    40     6     5    1
    41   120   119    1
    42   120   122   ar
    43    83    80    1
    44    83    84    1
    45   119   116    1
    46   132   133    1
    47   132   131    1
    48   109   110    2
    49    80    79    1
    50   133   134    1
    51     1     2    1
    52   116   117    1
    53    96    97   ar
    54    96    98   ar
    55   124   122   ar
    56   117   118    2
    57   127   128    1
    58     5     2    1
    59   131   128    1
    60    79    70   am
    61    71    70    2
    62     2     3    1
    63   223   222    1
    64    70    69    1
    65   128   129    1
    66     3     4    2
    67    78    76    1
    68    65    64    2
    69   222   221    1
    70    68    69    1
    71    69    72    1
    72    77    76    1
    73   221   220    1
    74   129   135   am
    75   129   130    2
    76   135   136    1
    77    76    75    2
    78    64    63    1
    79   139   136    1
    80   139   140    1
    81    75    74    1
    82    72    73    1
    83    74    73    1
    84   136   137    1
    85   220   219    1
    86   219   216    1
    87   216   215    1
    88   216   217    1
    89   142   140    1
    90    63    66    1
    91    63    62    1
    92    66    67    1
    93   199   198    2
    94   140   141    1
    95   137   138    2
    96    61    60    2
    97   218   217    2
    98   202   204   ar
    99   202   201   ar
   100    62    60   am
   101    15    14    2
   102    60    59    1
   103   214   213    1
   104    12    13    1
   105   200   197    1
   106   200   201    1
   107   204   206   ar
   108   197   198    1
   109   197   196    1
   110   198   207   am
   111    14    13    1
   112    58    59    1
   113   201   203   ar
   114    13    16    1
   115    39    38    1
   116   149   148    1
   117   210   209    2
   118   213   212    1
   119   207   208    1
   120   206   205   ar
   121    16    17    1
   122   208   209    1
   123   208   211    1
   124   148   150    1
   125   148   147    1
   126   203   205   ar
   127    53    52    2
   128    38    37    1
   129   143   144    1
   130    37    36    1
   131   212   211    1
   132    52    51    1
   133    34    33    2
   134    35    36    1
   135    35    32    1
   136    17    19    1
   137    17    18    1
   138   147   144    1
   139   144   145    1
   140    33    32    1
   141    33    40   am
   142    32    31    1
   143    51    50    1
   144    51    54    1
   145   157   155    1
   146   145   146    2
   147    41    40    1
   148    41    44    1
   149    41    42    1
   150    44    45    1
   151    56    54    1
   152   175   176    1
   153   175   174    1
   154   175   178    1
   155   161   160    2
   156    54    55    1
   157    31    22   am
   158   155   156    1
   159   155   152    1
   160    42    43    2
   161   176   177    2
   162   174   168   am
   163   178   179    1
   164    45    47   ar
   165    45    46   ar
   166   195   193    1
   167   160   166   am
   168   160   159    1
   169   168   167    1
   170   168   169    2
   171    22    23    2
   172    22    21    1
   173   173   171    1
   174   194   193    1
   175   162   159    1
   176   162   163    1
   177   167   166    1
   178   167   170    1
   179   171   170    1
   180    47    49   ar
   181   152   153    1
   182   152   151    1
   183    55    57    1
   184   158   159    1
   185   158   153   am
   186    46    48   ar
   187   165   163    1
   188   193   192    1
   189   191   190    2
   190   153   154    2
   191   192   189    1
   192   170   172    1
   193   163   164    1
   194    21    24    1
   195    21    20    1
   196    49    48   ar
   197   190   189    1
   198    24    25    1
   199   186   187    1
   200   186   185    1
   201   189   188    1
   202   184   185    1
   203   184   181    1
   204    25    26   ar
   205    25    27   ar
   206    26    28   ar
   207   183   182    2
   208    27    29   ar
   209   180   181    1
   210   181   182    1
   211    28    30   ar
   212    29    30   ar
