@<TRIPOS>MOLECULE
tmp/3ty1C02.pdb
 89 83 0 0 0
SMALL
GASTEIGER

@<TRIPOS>ATOM
      1  N         34.9290  -16.6910   26.1970 N.3    40  LEU40      -0.1245
      2  CA        33.8450  -16.9100   25.2520 C.3    40  LEU40       0.1561
      3  C         34.1740  -16.5310   23.8180 C.2    40  LEU40       0.2260
      4  O         35.0910  -15.7280   23.5620 O.2    40  LEU40      -0.2867
      5  CB        32.6030  -16.1450   25.6950 C.3    40  LEU40       0.0270
      6  CG        32.0920  -16.4980   27.0890 C.3    40  LEU40       0.0019
      7  CD1       30.8910  -15.6080   27.4250 C.3    40  LEU40       0.0001
      8  CD2       31.7280  -17.9570   27.2030 C.3    40  LEU40       0.0001
      9  N         30.4940  -11.4190   21.2100 N.3    45  GLN45      -0.1245
     10  CA        31.0200  -11.9870   22.4480 C.3    45  GLN45       0.1566
     11  C         32.4720  -12.4570   22.3390 C.2    45  GLN45       0.2260
     12  O         33.0430  -12.9240   23.3010 O.2    45  GLN45      -0.2867
     13  CB        30.0740  -13.1480   22.7780 C.3    45  GLN45       0.0367
     14  CG        30.3050  -14.0620   23.8920 C.3    45  GLN45       0.0905
     15  CD        29.0850  -14.9750   24.0460 C.2    45  GLN45       0.2608
     16  OE1       28.1090  -14.5860   24.6890 O.2    45  GLN45      -0.2717
     17  NE2       29.1380  -16.1790   23.4500 N.am   45  GLN45      -0.0878
     18  N         33.8970  -14.7510   31.2630 N.3    50  ILE50      -0.1245
     19  CA        33.0010  -14.9280   32.3880 C.3    50  ILE50       0.1561
     20  C         33.7810  -15.6890   33.4540 C.2    50  ILE50       0.2260
     21  O         34.7360  -16.4020   33.1680 O.2    50  ILE50      -0.2867
     22  CB        31.6310  -15.6160   32.0490 C.3    50  ILE50       0.0252
     23  CG1       31.8120  -16.9920   31.4140 C.3    50  ILE50       0.0019
     24  CG2       30.8170  -14.7510   31.1370 C.3    50  ILE50       0.0019
     25  CD1       30.5030  -17.8370   31.3900 C.3    50  ILE50       0.0001
     26  N         26.3060  -11.2080   36.0090 N.3    71  LEU71      -0.1231
     27  CA        25.4180  -11.6450   34.9300 C.3    71  LEU71       0.1693
     28  C         24.1710  -12.2710   35.4970 C.2    71  LEU71       0.2591
     29  O         23.0570  -11.9080   35.1240 O.2    71  LEU71      -0.2718
     30  CB        26.1290  -12.6130   33.9990 C.3    71  LEU71       0.0284
     31  CG        27.3170  -12.0310   33.1970 C.3    71  LEU71       0.0019
     32  CD1       27.6310  -12.9590   32.0530 C.3    71  LEU71       0.0001
     33  CD2       27.0940  -10.6350   32.6680 C.3    71  LEU71       0.0001
     34  N         24.3660  -13.2130   36.4060 N.am   72  ARG72      -0.1980
     35  CA        23.2390  -13.8950   37.0450 C.3    72  ARG72       0.1597
     36  C         23.6860  -14.6370   38.3020 C.2    72  ARG72       0.2287
     37  O         24.8670  -14.9940   38.4230 O.2    72  ARG72      -0.2864
     38  CB        22.5570  -14.8630   36.0560 C.3    72  ARG72       0.0334
     39  CG        23.4390  -15.9870   35.5680 C.3    72  ARG72       0.0492
     40  CD        22.7070  -16.9820   34.6350 C.3    72  ARG72       0.2205
     41  NE        23.6080  -18.0840   34.2630 N.pl3  72  ARG72      -0.0865
     42  CZ        24.5400  -18.0470   33.3020 C.cat  72  ARG72       0.5346
     43  NH1       24.7200  -16.9620   32.5480 N.pl3  72  ARG72       0.1354
     44  NH2       25.3040  -19.1190   33.0880 N.pl3  72  ARG72       0.1354
     45  N         17.4950  -11.7900   34.7000 N.3    81  TRP81      -0.1241
     46  CA        16.4030  -11.5980   33.7750 C.3    81  TRP81       0.1605
     47  C         16.8050  -12.0240   32.3720 C.2    81  TRP81       0.2264
     48  O         17.9760  -12.3750   32.1340 O.2    81  TRP81      -0.2867
     49  CB        15.9510  -10.1370   33.8130 C.3    81  TRP81       0.0550
     50  CG        16.9550   -9.1560   33.4010 C.ar   81  TRP81       0.0003
     51  CD1       18.1330   -8.8590   34.0300 C.ar   81  TRP81       0.0946
     52  CD2       16.8640   -8.2710   32.2890 C.ar   81  TRP81       0.0152
     53  NE1       18.7910   -7.8710   33.3510 N.ar   81  TRP81      -0.2442
     54  CE2       18.0370   -7.4930   32.2770 C.ar   81  TRP81       0.0810
     55  CE3       15.9170   -8.0780   31.2770 C.ar   81  TRP81       0.0012
     56  CZ2       18.2760   -6.5240   31.3140 C.ar   81  TRP81       0.0191
     57  CZ3       16.1630   -7.1100   30.3160 C.ar   81  TRP81       0.0001
     58  CH2       17.3290   -6.3520   30.3410 C.ar   81  TRP81       0.0015
     59  N         19.2700   -9.0220   24.4750 N.3    85  VAL85      -0.1231
     60  CA        20.7130   -9.1430   24.2740 C.3    85  VAL85       0.1692
     61  C         21.2140  -10.4480   24.9270 C.2    85  VAL85       0.2591
     62  O         21.4220  -10.5120   26.1300 O.2    85  VAL85      -0.2718
     63  CB        21.4680   -7.9530   24.8380 C.3    85  VAL85       0.0266
     64  CG1       22.9410   -8.1370   24.5790 C.3    85  VAL85       0.0020
     65  CG2       20.9490   -6.6510   24.2180 C.3    85  VAL85       0.0020
     66  N         21.4120  -11.4850   24.1280 N.am   86  LYS86      -0.1980
     67  CA        21.8300  -12.7790   24.6520 C.3    86  LYS86       0.1596
     68  C         23.3520  -12.9280   24.8510 C.2    86  LYS86       0.2287
     69  O         23.7850  -13.7310   25.6710 O.2    86  LYS86      -0.2864
     70  CB        21.3230  -13.9100   23.7560 C.3    86  LYS86       0.0298
     71  CG        19.8200  -13.9220   23.4600 C.3    86  LYS86       0.0038
     72  CD        18.9720  -14.1050   24.7110 C.3    86  LYS86       0.0206
     73  CE        17.4640  -14.2260   24.4100 C.3    86  LYS86       0.1093
     74  NZ        16.6140  -13.8280   25.6120 N.3    86  LYS86      -0.1314
     75  N         27.4340  -11.9080   25.8100 N.3    88  VAL88      -0.1245
     76  CA        28.2420  -11.1530   26.7730 C.3    88  VAL88       0.1561
     77  C         29.1070  -10.2950   25.8580 C.2    88  VAL88       0.2260
     78  O         30.1590  -10.7310   25.4360 O.2    88  VAL88      -0.2867
     79  CB        29.0730  -12.0730   27.6860 C.3    88  VAL88       0.0252
     80  CG1       29.9550  -11.2370   28.6430 C.3    88  VAL88       0.0019
     81  CG2       28.1520  -13.0490   28.4500 C.3    88  VAL88       0.0019
     82  N         22.1530   -6.8990   29.6240 N.3   109  ASN109     -0.1240
     83  CA        21.4580   -8.1520   30.0020 C.3   109  ASN109      0.1653
     84  C         21.7820   -8.6450   31.4250 C.2   109  ASN109      0.2266
     85  O         21.4680   -9.7880   31.7920 O.2   109  ASN109     -0.2867
     86  CB        21.8200   -9.2310   28.9800 C.3   109  ASN109      0.1155
     87  CG        23.3110   -9.5860   28.9780 C.2   109  ASN109      0.2627
     88  OD1       24.0420   -9.2780   29.9300 O.2   109  ASN109     -0.2716
     89  ND2       23.7610  -10.2680   27.9030 N.am  109  ASN109     -0.0877
@<TRIPOS>BOND
     1     9    10    1
     2    11    10    1
     3    11    12    2
     4    10    13    1
     5    13    14    1
     6    17    15   am
     7    71    70    1
     8    71    72    1
     9     4     3    2
    10    70    67    1
    11     3     2    1
    12    14    15    1
    13    15    16    2
    14    66    67    1
    15    66    61   am
    16    65    63    1
    17    60    59    1
    18    60    63    1
    19    60    61    1
    20    73    72    1
    21    73    74    1
    22    64    63    1
    23    67    68    1
    24    68    69    2
    25    61    62    2
    26     2     5    1
    27     2     1    1
    28    78    77    2
    29     5     6    1
    30    75    76    1
    31    77    76    1
    32    76    79    1
    33     6     8    1
    34     6     7    1
    35    79    81    1
    36    79    80    1
    37    89    87   am
    38    87    86    1
    39    87    88    2
    40    86    83    1
    41    82    83    1
    42    83    84    1
    43    57    58   ar
    44    57    55   ar
    45    58    56   ar
    46    24    22    1
    47    18    19    1
    48    55    52   ar
    49    56    54   ar
    50    25    23    1
    51    23    22    1
    52    84    85    2
    53    22    19    1
    54    32    31    1
    55    48    47    2
    56    54    52   ar
    57    54    53   ar
    58    52    50   ar
    59    47    46    1
    60    19    20    1
    61    43    42    1
    62    33    31    1
    63    44    42    1
    64    21    20    2
    65    31    30    1
    66    42    41    2
    67    53    51   ar
    68    50    49    1
    69    50    51   ar
    70    46    49    1
    71    46    45    1
    72    30    27    1
    73    41    40    1
    74    40    39    1
    75    27    28    1
    76    27    26    1
    77    29    28    2
    78    28    34   am
    79    39    38    1
    80    38    35    1
    81    34    35    1
    82    35    36    1
    83    36    37    2
