@<TRIPOS>MOLECULE
tmp/3ty1B02.pdb
 141 137 0 0 0
SMALL
GASTEIGER

@<TRIPOS>ATOM
      1  N         38.1730   14.1700   22.1440 N.3   102  LEU102     -0.1245
      2  CA        39.3200   14.0380   23.0440 C.3   102  LEU102      0.1561
      3  C         39.5210   12.6040   23.5580 C.2   102  LEU102      0.2260
      4  O         40.2740   12.4020   24.4800 O.2   102  LEU102     -0.2867
      5  CB        39.1750   15.0100   24.2300 C.3   102  LEU102      0.0270
      6  CG        39.2050   16.5200   23.9530 C.3   102  LEU102      0.0019
      7  CD1       38.8360   17.3370   25.2730 C.3   102  LEU102      0.0001
      8  CD2       40.5610   16.9770   23.3040 C.3   102  LEU102      0.0001
      9  N         41.2810   10.3440   22.4280 N.3   104  TRP104     -0.1227
     10  CA        42.7320   10.1130   22.3030 C.3   104  TRP104      0.1737
     11  C         43.4720   10.2230   23.6700 C.2   104  TRP104      0.2595
     12  O         44.4110    9.4680   23.9240 O.2   104  TRP104     -0.2718
     13  CB        43.3110   11.1380   21.3500 C.3   104  TRP104      0.0564
     14  CG        44.7330   11.0840   20.9660 C.ar  104  TRP104      0.0003
     15  CD1       45.2290   10.5480   19.8370 C.ar  104  TRP104      0.0946
     16  CD2       45.8370   11.7350   21.6260 C.ar  104  TRP104      0.0152
     17  NE1       46.5680   10.7680   19.7510 N.ar  104  TRP104     -0.2442
     18  CE2       46.9730   11.4980   20.8460 C.ar  104  TRP104      0.0810
     19  CE3       45.9700   12.4900   22.8070 C.ar  104  TRP104      0.0012
     20  CZ2       48.2350   11.9800   21.2000 C.ar  104  TRP104      0.0191
     21  CZ3       47.2280   12.9810   23.1540 C.ar  104  TRP104      0.0001
     22  CH2       48.3480   12.7030   22.3580 C.ar  104  TRP104      0.0015
     23  N         42.9900   11.1180   24.5390 N.am  105  LEU105     -0.1980
     24  CA        43.5370   11.2640   25.8900 C.3   105  LEU105      0.1596
     25  C         43.4320    9.9850   26.7300 C.2   105  LEU105      0.2287
     26  O         44.1570    9.8280   27.7170 O.2   105  LEU105     -0.2864
     27  CB        42.8580   12.4160   26.6570 C.3   105  LEU105      0.0297
     28  CG        42.9480   13.8230   26.0560 C.3   105  LEU105      0.0022
     29  CD1       41.9640   14.8150   26.7850 C.3   105  LEU105      0.0001
     30  CD2       44.3540   14.3600   26.1110 C.3   105  LEU105      0.0001
     31  N         46.9000    8.1860   25.9110 N.3   108  PHE108     -0.1241
     32  CA        48.1650    8.9410   25.8120 C.3   108  PHE108      0.1605
     33  C         49.0880    8.7070   27.0020 C.2   108  PHE108      0.2264
     34  O         48.7700    9.1160   28.1110 O.2   108  PHE108     -0.2867
     35  CB        47.8880   10.4400   25.6870 C.3   108  PHE108      0.0534
     36  CG        49.1220   11.2940   25.5090 C.ar  108  PHE108     -0.0203
     37  CD1       50.2160   10.8730   24.7560 C.ar  108  PHE108     -0.0042
     38  CD2       49.1360   12.5900   26.0180 C.ar  108  PHE108     -0.0042
     39  CE1       51.3230   11.7170   24.5880 C.ar  108  PHE108     -0.0003
     40  CE2       50.2120   13.4340   25.8310 C.ar  108  PHE108     -0.0003
     41  CZ        51.3150   13.0070   25.1440 C.ar  108  PHE108     -0.0000
     42  N         44.4100   19.9710   17.7640 N.3   120  HIS120     -0.1241
     43  CA        43.2090   20.0180   18.6170 C.3   120  HIS120      0.1621
     44  C         41.9550   19.7530   17.8250 C.2   120  HIS120      0.2264
     45  O         41.8970   20.0690   16.6130 O.2   120  HIS120     -0.2867
     46  CB        43.0840   21.3850   19.3390 C.3   120  HIS120      0.0745
     47  CG        44.1370   21.6250   20.3770 C.ar  120  HIS120      0.0817
     48  ND1       44.3810   22.8700   20.9140 N.ar  120  HIS120     -0.2268
     49  CD2       44.9980   20.7780   20.9900 C.ar  120  HIS120      0.1154
     50  CE1       45.3580   22.7800   21.8020 C.ar  120  HIS120      0.1986
     51  NE2       45.7580   21.5220   21.8610 N.ar  120  HIS120     -0.2212
     52  N         41.2870   14.6520   18.0460 N.3   131  LEU131     -0.1231
     53  CA        42.5860   15.1450   18.5130 C.3   131  LEU131      0.1693
     54  C         43.7290   14.3420   17.9470 C.2   131  LEU131      0.2592
     55  O         43.7910   13.1350   18.1680 O.2   131  LEU131     -0.2718
     56  CB        42.6750   15.0710   20.0450 C.3   131  LEU131      0.0284
     57  CG        43.9950   15.4130   20.7730 C.3   131  LEU131      0.0019
     58  CD1       44.4490   16.8490   20.4800 C.3   131  LEU131      0.0001
     59  CD2       43.7970   15.1990   22.2990 C.3   131  LEU131      0.0001
     60  N         44.6500   15.0370   17.2690 N.am  132  HIS132     -0.1976
     61  CA        45.8980   14.4630   16.7710 C.3   132  HIS132      0.1656
     62  C         45.8090   13.3080   15.7540 C.2   132  HIS132      0.2291
     63  O         46.7440   12.5210   15.6250 O.2   132  HIS132     -0.2864
     64  CB        46.7890   14.0820   17.9550 C.3   132  HIS132      0.0771
     65  CG        47.3480   15.2720   18.6720 C.ar  132  HIS132      0.0820
     66  ND1       47.6740   16.4340   18.0180 N.ar  132  HIS132     -0.2267
     67  CD2       47.6190   15.4840   19.9770 C.ar  132  HIS132      0.1154
     68  CE1       48.1430   17.3100   18.8910 C.ar  132  HIS132      0.1986
     69  NE2       48.1330   16.7480   20.0850 N.ar  132  HIS132     -0.2212
     70  N         55.2650   14.3090   18.1800 N.3   207  HIS207     -0.1241
     71  CA        54.9520   14.7570   19.5400 C.3   207  HIS207      0.1621
     72  C         55.8410   13.9820   20.5410 C.2   207  HIS207      0.2264
     73  O         55.5120   12.8760   20.9130 O.2   207  HIS207     -0.2867
     74  CB        53.4590   14.4860   19.7700 C.3   207  HIS207      0.0745
     75  CG        52.8540   15.1890   20.9400 C.ar  207  HIS207      0.0817
     76  ND1       53.4160   15.2060   22.2060 N.ar  207  HIS207     -0.2268
     77  CD2       51.6920   15.8780   21.0320 C.ar  207  HIS207      0.1154
     78  CE1       52.6150   15.8760   23.0190 C.ar  207  HIS207      0.1986
     79  NE2       51.5600   16.2840   22.3390 N.ar  207  HIS207     -0.2212
     80  N         50.6980   30.1460   22.5970 N.3   231  PHE231     -0.1241
     81  CA        49.6220   29.4870   21.8610 C.3   231  PHE231      0.1605
     82  C         48.3040   30.2100   22.0820 C.2   231  PHE231      0.2264
     83  O         47.4970   30.3070   21.1660 O.2   231  PHE231     -0.2867
     84  CB        49.4820   28.0440   22.3520 C.3   231  PHE231      0.0534
     85  CG        48.5810   27.2000   21.5260 C.ar  231  PHE231     -0.0203
     86  CD1       49.0610   26.5400   20.4060 C.ar  231  PHE231     -0.0042
     87  CD2       47.2730   27.0200   21.8850 C.ar  231  PHE231     -0.0042
     88  CE1       48.2090   25.7510   19.6550 C.ar  231  PHE231     -0.0003
     89  CE2       46.4240   26.2360   21.1560 C.ar  231  PHE231     -0.0003
     90  CZ        46.8950   25.5800   20.0410 C.ar  231  PHE231     -0.0000
     91  N         48.9210   23.6890   31.5240 N.3   254  GLU254     -0.1245
     92  CA        49.9960   23.7220   30.5260 C.3   254  GLU254      0.1567
     93  C         50.1800   25.1170   29.9530 C.2   254  GLU254      0.2260
     94  O         49.2380   25.9250   29.9560 O.2   254  GLU254     -0.2867
     95  CB        49.6780   22.7530   29.3640 C.3   254  GLU254      0.0388
     96  CG        48.5310   23.2120   28.4570 C.3   254  GLU254      0.1160
     97  CD        48.1000   22.2000   27.4060 C.2   254  GLU254      0.3649
     98  OE1       48.2480   20.9840   27.6300 O.co2 254  GLU254     -0.2457
     99  OE2       47.5800   22.6410   26.3540 O.co2 254  GLU254     -0.2457
    100  N         51.7470   26.5400   26.1600 N.3   255  VAL255     -0.1245
    101  CA        52.2610   26.1020   24.8500 C.3   255  VAL255      0.1561
    102  C         52.8020   27.2770   24.0870 C.2   255  VAL255      0.2260
    103  O         52.2140   28.3580   24.1300 O.2   255  VAL255     -0.2867
    104  CB        51.1570   25.3870   24.0530 C.3   255  VAL255      0.0252
    105  CG1       51.6310   25.0240   22.5550 C.3   255  VAL255      0.0019
    106  CG2       50.7050   24.1470   24.8300 C.3   255  VAL255      0.0019
    107  N         56.5570   23.1240   18.1190 N.3   294  THR294     -0.1218
    108  CA        55.7220   23.4330   19.2930 C.3   294  THR294      0.1862
    109  C         56.4860   23.0380   20.5640 C.2   294  THR294      0.2287
    110  O         57.0880   21.9590   20.6080 O.2   294  THR294     -0.2866
    111  CB        54.4050   22.6880   19.1950 C.3   294  THR294      0.1770
    112  OG1       53.6510   23.1910   18.0770 O.3   294  THR294     -0.2211
    113  CG2       53.5530   22.8360   20.4960 C.3   294  THR294      0.0375
    114  N         55.6050   22.3440   24.4310 N.3   296  TRP296     -0.1241
    115  CA        54.4820   22.0340   25.3270 C.3   296  TRP296      0.1605
    116  C         55.1050   21.9420   26.7150 C.2   296  TRP296      0.2264
    117  O         55.9260   21.0520   26.9510 O.2   296  TRP296     -0.2867
    118  CB        53.8410   20.6960   24.9120 C.3   296  TRP296      0.0550
    119  CG        52.8000   20.1440   25.8510 C.ar  296  TRP296      0.0003
    120  CD1       51.7680   20.8220   26.4060 C.ar  296  TRP296      0.0946
    121  CD2       52.6300   18.7720   26.2550 C.ar  296  TRP296      0.0152
    122  NE1       50.9800   19.9840   27.1430 N.ar  296  TRP296     -0.2442
    123  CE2       51.4910   18.7220   27.0840 C.ar  296  TRP296      0.0810
    124  CE3       53.3650   17.6000   26.0620 C.ar  296  TRP296      0.0012
    125  CZ2       51.0630   17.5530   27.6940 C.ar  296  TRP296      0.0191
    126  CZ3       52.9140   16.4200   26.6610 C.ar  296  TRP296      0.0001
    127  CH2       51.7610   16.4140   27.4480 C.ar  296  TRP296      0.0015
    128  N         58.0130   19.3390   19.8800 N.3   311  GLU311     -0.1245
    129  CA        57.1170   18.8190   18.8400 C.3   311  GLU311      0.1567
    130  C         57.3480   19.4440   17.4650 C.2   311  GLU311      0.2260
    131  O         56.6120   20.3280   17.0050 O.2   311  GLU311     -0.2867
    132  CB        55.6530   19.0020   19.2800 C.3   311  GLU311      0.0388
    133  CG        55.4140   18.6680   20.7020 C.3   311  GLU311      0.1160
    134  CD        53.9580   18.8450   21.1320 C.2   311  GLU311      0.3649
    135  OE1       53.0800   19.1440   20.2980 O.co2 311  GLU311     -0.2457
    136  OE2       53.7020   18.6690   22.3080 O.co2 311  GLU311     -0.2457
    137  N         49.5070   22.9700   16.8020 N.3   317  ALA317     -0.1245
    138  CA        48.4510   22.1450   17.3650 C.3   317  ALA317      0.1562
    139  C         47.0550   22.7760   17.3160 C.2   317  ALA317      0.2260
    140  O         46.1120   22.2310   17.9030 O.2   317  ALA317     -0.2867
    141  CB        48.7850   21.7610   18.8150 C.3   317  ALA317      0.0290
@<TRIPOS>BOND
     1    63    62    2
     2    62    61    1
     3    45    44    2
     4    61    60    1
     5    61    64    1
     6   137   138    1
     7   131   130    2
     8    60    54   am
     9   139   138    1
    10   139   140    2
    11   138   141    1
    12   130   129    1
    13    42    43    1
    14    44    43    1
    15    54    55    2
    16    54    53    1
    17    64    65    1
    18    66    65   ar
    19    66    68   ar
    20    52    53    1
    21   112   111    1
    22   107   108    1
    23    70    71    1
    24    53    56    1
    25    43    46    1
    26    65    67   ar
    27   129   132    1
    28   129   128    1
    29    68    69   ar
    30   111   108    1
    31   111   113    1
    32   132   133    1
    33   108   109    1
    34    46    47    1
    35    71    74    1
    36    71    72    1
    37    88    90   ar
    38    88    86   ar
    39    17    15   ar
    40    17    18   ar
    41    74    75    1
    42    15    14   ar
    43    67    69   ar
    44    90    89   ar
    45    56    57    1
    46   135   134   ar
    47    47    48   ar
    48    47    49   ar
    49    86    85   ar
    50    58    57    1
    51    72    73    2
    52   109   110    2
    53   133   134    1
    54    57    59    1
    55    18    20   ar
    56    18    16   ar
    57    48    50   ar
    58    75    77   ar
    59    75    76   ar
    60    14    13    1
    61    14    16   ar
    62    49    51   ar
    63    77    79   ar
    64   134   136   ar
    65    89    87   ar
    66    83    82    2
    67    20    22   ar
    68    13    10    1
    69    85    87   ar
    70    85    84    1
    71    16    19   ar
    72    50    51   ar
    73    81    82    1
    74    81    84    1
    75    81    80    1
    76     1     2    1
    77    76    78   ar
    78    10     9    1
    79    10    11    1
    80    79    78   ar
    81    22    21   ar
    82   105   104    1
    83    19    21   ar
    84     2     3    1
    85     2     5    1
    86     8     6    1
    87     3     4    2
    88    11    12    2
    89    11    23   am
    90     6     5    1
    91     6     7    1
    92   104   106    1
    93   104   101    1
    94   102   103    2
    95   102   101    1
    96   114   115    1
    97    23    24    1
    98    39    37   ar
    99    39    41   ar
   100    37    36   ar
   101   101   100    1
   102   118   115    1
   103   118   119    1
   104    41    40   ar
   105   115   116    1
   106    36    35    1
   107    36    38   ar
   108    35    32    1
   109    32    31    1
   110    32    33    1
   111    40    38   ar
   112   119   121   ar
   113   119   120   ar
   114    24    27    1
   115    24    25    1
   116    28    30    1
   117    28    27    1
   118    28    29    1
   119   124   121   ar
   120   124   126   ar
   121   121   123   ar
   122    99    97   ar
   123   120   122   ar
   124   126   127   ar
   125   116   117    2
   126    25    26    2
   127    33    34    2
   128   123   122   ar
   129   123   125   ar
   130    97    98   ar
   131    97    96    1
   132   127   125   ar
   133    96    95    1
   134    95    92    1
   135    93    94    2
   136    93    92    1
   137    92    91    1
