@<TRIPOS>MOLECULE
tmp/3ty1A01.pdb
 83 73 0 0 0
SMALL
GASTEIGER

@<TRIPOS>ATOM
      1  N         28.3470  -22.1750  -12.3430 N.3   184  ASN184     -0.1240
      2  CA        28.7350  -20.7740  -12.5170 C.3   184  ASN184      0.1653
      3  C         27.7680  -19.8260  -11.7710 C.2   184  ASN184      0.2266
      4  O         27.8280  -18.6240  -11.9830 O.2   184  ASN184     -0.2867
      5  CB        28.8100  -20.3760  -14.0250 C.3   184  ASN184      0.1155
      6  CG        27.4690  -20.4110  -14.7120 C.2   184  ASN184      0.2627
      7  OD1       26.5720  -21.1440  -14.2700 O.2   184  ASN184     -0.2716
      8  ND2       27.3100  -19.6390  -15.8210 N.am  184  ASN184     -0.0877
      9  N         15.6080   -9.6110  -13.6220 N.3   269  LEU269     -0.1245
     10  CA        16.9950   -9.9620  -13.9240 C.3   269  LEU269      0.1561
     11  C         17.7070   -8.7000  -14.3460 C.2   269  LEU269      0.2260
     12  O         17.2020   -7.9690  -15.2000 O.2   269  LEU269     -0.2867
     13  CB        17.0290  -11.0180  -15.0480 C.3   269  LEU269      0.0270
     14  CG        18.2760  -11.7780  -15.4410 C.3   269  LEU269      0.0019
     15  CD1       18.8180  -12.5630  -14.2560 C.3   269  LEU269      0.0001
     16  CD2       18.0030  -12.7160  -16.6210 C.3   269  LEU269      0.0001
     17  N         24.9950  -11.5760  -13.7080 N.3   282  SER282     -0.1217
     18  CA        23.5540  -11.3040  -13.6220 C.3   282  SER282      0.1889
     19  C         23.0660  -11.5830  -12.2190 C.2   282  SER282      0.2288
     20  O         23.6280  -12.4470  -11.5060 O.2   282  SER282     -0.2866
     21  CB        22.7740  -12.1760  -14.6140 C.3   282  SER282      0.2089
     22  OG        22.8610  -13.5360  -14.3000 O.3   282  SER282     -0.2183
     23  N         19.3960  -12.2190  -10.3180 N.3   284  GLN284     -0.1245
     24  CA        17.9610  -12.4270  -10.3080 C.3   284  GLN284      0.1566
     25  C         17.4370  -12.0930   -8.9420 C.2   284  GLN284      0.2260
     26  O         17.9990  -12.5260   -7.9530 O.2   284  GLN284     -0.2867
     27  CB        17.5930  -13.8750  -10.6330 C.3   284  GLN284      0.0367
     28  CG        16.0830  -14.2250  -10.5010 C.3   284  GLN284      0.0905
     29  CD        15.7900  -15.7140  -10.7390 C.2   284  GLN284      0.2608
     30  OE1       16.6380  -16.4490  -11.2370 O.2   284  GLN284     -0.2717
     31  NE2       14.6160  -16.1540  -10.3300 N.am  284  GLN284     -0.0878
     32  N         19.6990  -14.9100   -7.1410 N.3   343  THR343     -0.1218
     33  CA        20.6490  -15.7900   -7.8420 C.3   343  THR343      0.1862
     34  C         21.6290  -14.9250   -8.6200 C.2   343  THR343      0.2287
     35  O         21.2240  -14.0690   -9.4120 O.2   343  THR343     -0.2866
     36  CB        19.9190  -16.7650   -8.7900 C.3   343  THR343      0.1770
     37  OG1       18.9560  -17.4960   -8.0270 O.3   343  THR343     -0.2211
     38  CG2       20.8910  -17.7280   -9.3950 C.3   343  THR343      0.0375
     39  N         24.8700  -15.0540  -11.2320 N.3   345  THR345     -0.1218
     40  CA        25.4500  -15.9250  -12.2150 C.3   345  THR345      0.1862
     41  C         26.6400  -15.2320  -12.8630 C.2   345  THR345      0.2287
     42  O         26.5320  -14.0950  -13.3610 O.2   345  THR345     -0.2866
     43  CB        24.4420  -16.3200  -13.3070 C.3   345  THR345      0.1770
     44  OG1       23.2330  -16.8210  -12.7090 O.3   345  THR345     -0.2211
     45  CG2       25.0460  -17.3750  -14.2610 C.3   345  THR345      0.0375
     46  N         28.6330  -15.0260  -15.9530 N.3   347  LEU347     -0.1245
     47  CA        28.4260  -15.2830  -17.3700 C.3   347  LEU347      0.1561
     48  C         29.8070  -15.2780  -18.0130 C.2   347  LEU347      0.2260
     49  O         30.5820  -14.3070  -17.8670 O.2   347  LEU347     -0.2867
     50  CB        27.5110  -14.1890  -17.9460 C.3   347  LEU347      0.0270
     51  CG        26.1930  -13.8430  -17.1870 C.3   347  LEU347      0.0019
     52  CD1       25.5620  -12.5880  -17.7640 C.3   347  LEU347      0.0001
     53  CD2       25.1990  -15.0160  -17.1730 C.3   347  LEU347      0.0001
     54  N         25.8870  -17.3440  -23.0530 N.3   352  GLN352     -0.1245
     55  CA        25.3150  -17.0350  -21.7340 C.3   352  GLN352      0.1566
     56  C         24.8480  -15.6080  -21.6150 C.2   352  GLN352      0.2260
     57  O         23.7500  -15.3630  -21.0990 O.2   352  GLN352     -0.2867
     58  CB        26.2940  -17.3560  -20.5960 C.3   352  GLN352      0.0367
     59  CG        26.4710  -18.8320  -20.3880 C.3   352  GLN352      0.0905
     60  CD        27.5330  -19.1620  -19.3720 C.2   352  GLN352      0.2608
     61  OE1       28.0750  -18.2840  -18.6850 O.2   352  GLN352     -0.2717
     62  NE2       27.8330  -20.4460  -19.2490 N.am  352  GLN352     -0.0878
     63  N         21.6230  -15.1950  -23.7960 N.3   355  ALA355     -0.1231
     64  CA        20.4800  -15.7620  -23.0710 C.3   355  ALA355      0.1694
     65  C         19.9290  -14.7860  -22.0070 C.2   355  ALA355      0.2591
     66  O         18.7130  -14.6130  -21.8600 O.2   355  ALA355     -0.2718
     67  CB        20.8590  -17.1300  -22.4240 C.3   355  ALA355      0.0304
     68  N         20.8230  -14.1510  -21.2620 N.am  356  VAL356     -0.1980
     69  CA        20.4070  -13.1360  -20.2790 C.3   356  VAL356      0.1595
     70  C         19.7620  -11.9370  -20.9870 C.2   356  VAL356      0.2287
     71  O         18.6670  -11.4880  -20.6110 O.2   356  VAL356     -0.2864
     72  CB        21.5970  -12.6740  -19.4040 C.3   356  VAL356      0.0276
     73  CG1       21.3070  -11.3470  -18.6950 C.3   356  VAL356      0.0022
     74  CG2       21.9320  -13.7720  -18.4000 C.3   356  VAL356      0.0022
     75  N         16.2600  -12.9220  -22.2540 N.3   359  LYS359     -0.1245
     76  CA        15.2750  -12.9970  -21.1600 C.3   359  LYS359      0.1561
     77  C         14.8510  -11.5980  -20.7150 C.2   359  LYS359      0.2260
     78  O         13.6690  -11.3470  -20.4880 O.2   359  LYS359     -0.2867
     79  CB        15.7960  -13.8050  -19.9690 C.3   359  LYS359      0.0271
     80  CG        14.7590  -14.0900  -18.8770 C.3   359  LYS359      0.0035
     81  CD        13.6030  -15.0320  -19.3180 C.3   359  LYS359      0.0206
     82  CE        12.3640  -14.8740  -18.4090 C.3   359  LYS359      0.1093
     83  NZ        11.1300  -15.5690  -18.9320 N.3   359  LYS359     -0.1314
@<TRIPOS>BOND
     1    63    64    1
     2    64    67    1
     3    64    65    1
     4    54    55    1
     5    75    76    1
     6    65    66    2
     7    65    68   am
     8    55    56    1
     9    55    58    1
    10    56    57    2
    11    68    69    1
    12    76    77    1
    13    76    79    1
    14    70    71    2
    15    70    69    1
    16    77    78    2
    17    58    59    1
    18    59    60    1
    19    69    72    1
    20    79    80    1
    21    72    73    1
    22    72    74    1
    23    60    62   am
    24    60    61    2
    25    81    80    1
    26    81    82    1
    27    83    82    1
    28    48    49    2
    29    48    47    1
    30    50    47    1
    31    50    51    1
    32    52    51    1
    33    47    46    1
    34    51    53    1
    35    16    14    1
    36     8     6   am
    37    14    13    1
    38    14    15    1
    39    12    11    2
    40    13    10    1
    41     6     7    2
    42     6     5    1
    43    21    22    1
    44    21    18    1
    45    11    10    1
    46    45    43    1
    47     5     2    1
    48    10     9    1
    49    17    18    1
    50    18    19    1
    51    42    41    2
    52    43    44    1
    53    43    40    1
    54    41    40    1
    55     2     1    1
    56     2     3    1
    57    19    20    2
    58    40    39    1
    59     4     3    2
    60    30    29    2
    61    29    28    1
    62    29    31   am
    63    27    28    1
    64    27    24    1
    65    23    24    1
    66    24    25    1
    67    35    34    2
    68    38    36    1
    69    25    26    2
    70    36    37    1
    71    36    33    1
    72    34    33    1
    73    33    32    1
