@<TRIPOS>MOLECULE
tmp/3ty5A00.pdb
 173 163 0 0 0
SMALL
GASTEIGER

@<TRIPOS>ATOM
      1  N         22.1210    9.1420   27.1520 N.3    20  MET20      -0.1245
      2  CA        22.3250    8.6940   28.5260 C.3    20  MET20       0.1570
      3  C         21.6730    7.3440   28.7590 C.2    20  MET20       0.2261
      4  O         20.5420    7.1080   28.3320 O.2    20  MET20      -0.2867
      5  CB        21.7760    9.7200   29.5190 C.3    20  MET20       0.0387
      6  CG        21.9990    9.3340   30.9740 C.3    20  MET20       0.0595
      7  SD        21.2040   10.4460   32.1460 S.3    20  MET20      -0.1393
      8  CE        21.8280   12.0410   31.6090 C.3    20  MET20       0.0692
      9  N         20.5910   14.2930   40.7360 N.3    53  GLY53      -0.1210
     10  CA        19.8400   15.4780   40.3710 C.3    53  GLY53       0.1956
     11  C         18.4330   15.1040   39.9660 C.2    53  GLY53       0.2612
     12  O         18.2250   14.0910   39.3010 O.2    53  GLY53      -0.2717
     13  N         17.4600   15.9070   40.3790 N.am   54  GLN54      -0.1965
     14  CA        16.0820   15.6800   39.9800 C.3    54  GLN54       0.1733
     15  C         15.9840   15.7940   38.4670 C.2    54  GLN54       0.2616
     16  O         16.6060   16.6610   37.8650 O.2    54  GLN54      -0.2715
     17  CB        15.1610   16.6980   40.6450 C.3    54  GLN54       0.0408
     18  CG        13.6820   16.4640   40.3700 C.3    54  GLN54       0.0908
     19  CD        12.7850   17.4000   41.1620 C.2    54  GLN54       0.2608
     20  OE1       13.2630   18.2540   41.9110 O.2    54  GLN54      -0.2717
     21  NE2       11.4740   17.2420   41.0000 N.am   54  GLN54      -0.0878
     22  N         15.2100   14.9080   37.8520 N.am   55  LYS55      -0.1963
     23  CA        15.0580   14.9200   36.4020 C.3    55  LYS55       0.1728
     24  C         13.7540   15.6120   36.0390 C.2    55  LYS55       0.2616
     25  O         12.6680   15.0730   36.2340 O.2    55  LYS55      -0.2715
     26  CB        15.0950   13.4960   35.8480 C.3    55  LYS55       0.0311
     27  CG        15.1780   13.4010   34.3340 C.3    55  LYS55       0.0038
     28  CD        15.4200   11.9590   33.9140 C.3    55  LYS55       0.0206
     29  CE        15.1780   11.7670   32.4350 C.3    55  LYS55       0.1093
     30  NZ        13.7640   12.0680   32.0810 N.3    55  LYS55      -0.1314
     31  N         13.8690   16.8260   35.5240 N.am   56  HIS56      -0.1973
     32  CA        12.6930   17.6430   35.2700 C.3    56  HIS56       0.1656
     33  C         12.1350   17.4370   33.8680 C.2    56  HIS56       0.2291
     34  O         12.8430   17.0050   32.9620 O.2    56  HIS56      -0.2864
     35  CB        13.0120   19.1200   35.5130 C.3    56  HIS56       0.0771
     36  CG        13.2140   19.4610   36.9570 C.ar   56  HIS56       0.0820
     37  ND1       12.1660   19.5880   37.8460 N.ar   56  HIS56      -0.2267
     38  CD2       14.3410   19.6980   37.6700 C.ar   56  HIS56       0.1154
     39  CE1       12.6390   19.8900   39.0420 C.ar   56  HIS56       0.1986
     40  NE2       13.9570   19.9620   38.9630 N.ar   56  HIS56      -0.2212
     41  N         11.2840   18.6240   30.3950 N.3    58  GLY58      -0.1210
     42  CA        11.9250   19.6070   29.5340 C.3    58  GLY58       0.1956
     43  C         12.8710   18.9510   28.5420 C.2    58  GLY58       0.2613
     44  O         12.7380   17.7680   28.2470 O.2    58  GLY58      -0.2717
     45  N         13.8390   19.7060   28.0320 N.am   59  SER59      -0.1938
     46  CA        14.8140   19.1470   27.0910 C.3    59  SER59       0.2055
     47  C         16.2290   19.6630   27.3140 C.2    59  SER59       0.2642
     48  O         16.4250   20.8170   27.7210 O.2    59  SER59      -0.2714
     49  CB        14.3930   19.4420   25.6550 C.3    59  SER59       0.2130
     50  OG        13.0980   18.9430   25.4050 O.3    59  SER59      -0.2179
     51  N         17.2120   18.8050   27.0370 N.am   60  ARG60      -0.1977
     52  CA        18.6210   19.2010   27.1000 C.3    60  ARG60       0.1597
     53  C         18.8850   20.3900   26.1670 C.2    60  ARG60       0.2287
     54  O         18.4430   20.4060   25.0250 O.2    60  ARG60      -0.2864
     55  CB        19.5410   18.0250   26.7550 C.3    60  ARG60       0.0334
     56  CG        21.0330   18.3650   26.7380 C.3    60  ARG60       0.0492
     57  CD        21.7040   18.2090   28.1020 C.3    60  ARG60       0.2205
     58  NE        21.9190   16.8020   28.4360 N.pl3  60  ARG60      -0.0865
     59  CZ        23.0910   16.2660   28.7640 C.cat  60  ARG60       0.5346
     60  NH1       24.1890   17.0080   28.8140 N.pl3  60  ARG60       0.1354
     61  NH2       23.1620   14.9730   29.0470 N.pl3  60  ARG60       0.1354
     62  N         20.0760   18.8400   21.6360 N.3    89  ARG89      -0.1245
     63  CA        20.9310   17.6690   21.4590 C.3    89  ARG89       0.1563
     64  C         21.1450   17.3280   19.9890 C.2    89  ARG89       0.2260
     65  O         22.1840   16.7970   19.6200 O.2    89  ARG89      -0.2867
     66  CB        20.3050   16.4560   22.1460 C.3    89  ARG89       0.0307
     67  CG        20.7140   16.2660   23.5870 C.3    89  ARG89       0.0489
     68  CD        21.6250   15.0530   23.7370 C.3    89  ARG89       0.2205
     69  NE        20.9800   13.8250   23.2850 N.pl3  89  ARG89      -0.0865
     70  CZ        20.1110   13.1370   24.0140 C.cat  89  ARG89       0.5346
     71  NH1       19.7850   13.5710   25.2250 N.pl3  89  ARG89       0.1354
     72  NH2       19.5680   12.0230   23.5370 N.pl3  89  ARG89       0.1354
     73  N         19.2390   22.2660   31.0680 N.3   131  GLU131     -0.1245
     74  CA        17.9330   21.7770   30.6840 C.3   131  GLU131      0.1567
     75  C         17.0170   22.9810   30.5630 C.2   131  GLU131      0.2260
     76  O         17.0860   23.9100   31.3670 O.2   131  GLU131     -0.2867
     77  CB        17.3800   20.7840   31.7040 C.3   131  GLU131      0.0388
     78  CG        17.0790   19.4210   31.1010 C.3   131  GLU131      0.1160
     79  CD        15.7380   18.8660   31.5300 C.2   131  GLU131      0.3649
     80  OE1       15.2220   17.9670   30.8330 O.co2 131  GLU131     -0.2457
     81  OE2       15.2020   19.3270   32.5600 O.co2 131  GLU131     -0.2457
     82  N         23.6600   22.8040   34.4010 N.3   215  PHE215     -0.1227
     83  CA        24.3020   21.8570   35.3120 C.3   215  PHE215      0.1736
     84  C         25.7880   21.6030   35.0380 C.2   215  PHE215      0.2595
     85  O         26.4920   21.0450   35.8860 O.2   215  PHE215     -0.2718
     86  CB        23.5220   20.5400   35.4100 C.3   215  PHE215      0.0547
     87  CG        23.0980   19.9750   34.0930 C.ar  215  PHE215     -0.0202
     88  CD1       21.8160   20.1850   33.6200 C.ar  215  PHE215     -0.0042
     89  CD2       23.9660   19.2100   33.3410 C.ar  215  PHE215     -0.0042
     90  CE1       21.4070   19.6490   32.4160 C.ar  215  PHE215     -0.0003
     91  CE2       23.5670   18.6710   32.1330 C.ar  215  PHE215     -0.0003
     92  CZ        22.2840   18.8910   31.6710 C.ar  215  PHE215     -0.0000
     93  N         26.2610   22.0210   33.8690 N.am  216  HIS216     -0.1975
     94  CA        27.6830   21.9410   33.5540 C.3   216  HIS216      0.1656
     95  C         28.1900   23.2690   33.0230 C.2   216  HIS216      0.2291
     96  O         27.6270   23.8300   32.0820 O.2   216  HIS216     -0.2864
     97  CB        27.9610   20.8720   32.4920 C.3   216  HIS216      0.0771
     98  CG        27.6660   19.4700   32.9320 C.ar  216  HIS216      0.0820
     99  ND1       27.2310   18.4950   32.0570 N.ar  216  HIS216     -0.2267
    100  CD2       27.7620   18.8730   34.1450 C.ar  216  HIS216      0.1154
    101  CE1       27.0550   17.3630   32.7170 C.ar  216  HIS216      0.1986
    102  NE2       27.3700   17.5650   33.9850 N.ar  216  HIS216     -0.2212
    103  N         27.8840   22.6190   40.2860 N.3   234  MET234     -0.1245
    104  CA        26.6530   23.0690   40.9260 C.3   234  MET234      0.1570
    105  C         26.8830   24.3190   41.7700 C.2   234  MET234      0.2261
    106  O         26.0830   25.2540   41.7360 O.2   234  MET234     -0.2867
    107  CB        26.0460   21.9530   41.7730 C.3   234  MET234      0.0387
    108  CG        25.6380   20.7160   40.9760 C.3   234  MET234      0.0595
    109  SD        23.9590   20.7370   40.2960 S.3   234  MET234     -0.1393
    110  CE        24.1140   21.9020   38.9430 C.3   234  MET234      0.0692
    111  N         19.0780   23.2890   40.1530 N.3   251  THR251     -0.1218
    112  CA        18.5510   21.9370   40.0530 C.3   251  THR251      0.1862
    113  C         18.5700   21.2540   41.4110 C.2   251  THR251      0.2287
    114  O         19.6210   21.1180   42.0390 O.2   251  THR251     -0.2866
    115  CB        19.3320   21.0890   39.0310 C.3   251  THR251      0.1770
    116  OG1       20.7370   21.1970   39.2900 O.3   251  THR251     -0.2211
    117  CG2       19.0470   21.5640   37.6140 C.3   251  THR251      0.0375
    118  N         18.7940   11.7190   37.8690 N.3   283  VAL283     -0.1245
    119  CA        19.9910   11.3930   37.1160 C.3   283  VAL283      0.1561
    120  C         21.1110   11.2050   38.1170 C.2   283  VAL283      0.2260
    121  O         21.4050   12.1050   38.9000 O.2   283  VAL283     -0.2867
    122  CB        20.3650   12.5230   36.1380 C.3   283  VAL283      0.0252
    123  CG1       21.7450   12.2950   35.5520 C.3   283  VAL283      0.0019
    124  CG2       19.3200   12.6440   35.0410 C.3   283  VAL283      0.0019
    125  N         24.9940   10.7420   38.9960 N.3   285  LYS285     -0.1245
    126  CA        26.3030   11.0330   38.4210 C.3   285  LYS285      0.1561
    127  C         27.4450   10.6920   39.3560 C.2   285  LYS285      0.2260
    128  O         27.3080   10.7880   40.5770 O.2   285  LYS285     -0.2867
    129  CB        26.4100   12.5060   38.0300 C.3   285  LYS285      0.0271
    130  CG        25.6110   12.8980   36.8070 C.3   285  LYS285      0.0035
    131  CD        25.4320   14.3910   36.8030 C.3   285  LYS285      0.0206
    132  CE        24.7850   14.9010   35.5460 C.3   285  LYS285      0.1093
    133  NZ        24.4810   16.3460   35.7610 N.3   285  LYS285     -0.1314
    134  N         20.4720    7.3710   34.3640 N.3   303  LYS303     -0.1245
    135  CA        19.1600    7.8660   34.7390 C.3   303  LYS303      0.1561
    136  C         18.3460    6.7730   35.4130 C.2   303  LYS303      0.2260
    137  O         18.5330    5.5850   35.1470 O.2   303  LYS303     -0.2867
    138  CB        18.4130    8.4590   33.5440 C.3   303  LYS303      0.0271
    139  CG        17.9660    7.4510   32.5160 C.3   303  LYS303      0.0035
    140  CD        17.6040    8.1550   31.2290 C.3   303  LYS303      0.0206
    141  CE        17.6650    7.2060   30.0570 C.3   303  LYS303      0.1093
    142  NZ        17.6630    7.9430   28.7640 N.3   303  LYS303     -0.1314
    143  N         14.3660    6.3830   36.3260 N.3   305  ARG305     -0.1245
    144  CA        13.0470    6.9710   36.1470 C.3   305  ARG305      0.1563
    145  C         11.9790    6.3060   37.0040 C.2   305  ARG305      0.2260
    146  O         12.0130    5.0980   37.2270 O.2   305  ARG305     -0.2867
    147  CB        12.6710    6.9270   34.6690 C.3   305  ARG305      0.0307
    148  CG        13.6620    7.6920   33.7990 C.3   305  ARG305      0.0489
    149  CD        13.5240    7.3490   32.3320 C.3   305  ARG305      0.2205
    150  NE        13.8870    5.9620   32.0490 N.pl3 305  ARG305     -0.0865
    151  CZ        13.8960    5.4350   30.8300 C.cat 305  ARG305      0.5346
    152  NH1       13.5710    6.1820   29.7820 N.pl3 305  ARG305      0.1354
    153  NH2       14.2310    4.1670   30.6550 N.pl3 305  ARG305      0.1354
    154  N          6.0360    7.1120   35.9060 N.3   309  TYR309     -0.1241
    155  CA         6.4790    7.7780   34.6890 C.3   309  TYR309      0.1605
    156  C          6.7790    6.7590   33.5930 C.2   309  TYR309      0.2264
    157  O          6.5600    7.0230   32.4050 O.2   309  TYR309     -0.2867
    158  CB         7.7050    8.6530   34.9640 C.3   309  TYR309      0.0534
    159  CG         8.3130    9.2610   33.7220 C.ar  309  TYR309     -0.0201
    160  CD1        7.7860   10.4160   33.1570 C.ar  309  TYR309     -0.0009
    161  CD2        9.4140    8.6780   33.1080 C.ar  309  TYR309     -0.0009
    162  CE1        8.3390   10.9730   32.0140 C.ar  309  TYR309      0.0417
    163  CE2        9.9760    9.2280   31.9670 C.ar  309  TYR309      0.0417
    164  CZ         9.4370   10.3740   31.4250 C.ar  309  TYR309      0.1957
    165  OH        10.0010   10.9200   30.2920 O.3   309  TYR309     -0.2866
    166  N         14.9260    3.4090   26.1920 N.3   381  LEU381     -0.1245
    167  CA        16.0970    3.4880   27.0540 C.3   381  LEU381      0.1561
    168  C         16.5850    4.9270   27.2070 C.2   381  LEU381      0.2260
    169  O         16.2100    5.8260   26.4450 O.2   381  LEU381     -0.2867
    170  CB        17.2210    2.6150   26.5050 C.3   381  LEU381      0.0270
    171  CG        16.9060    1.1270   26.3620 C.3   381  LEU381      0.0019
    172  CD1       18.1060    0.4030   25.7690 C.3   381  LEU381      0.0001
    173  CD2       16.5140    0.5300   27.7070 C.3   381  LEU381      0.0001
@<TRIPOS>BOND
     1    65    64    2
     2    64    63    1
     3    63    62    1
     4    63    66    1
     5    66    67    1
     6    69    68    1
     7    69    70    2
     8    72    70    1
     9    67    68    1
    10    70    71    1
    11    54    53    2
    12    50    49    1
    13    49    46    1
    14   172   171    1
    15    53    52    1
    16   166   167    1
    17   171   170    1
    18   171   173    1
    19   169   168    2
    20   170   167    1
    21    56    55    1
    22    56    57    1
    23    55    52    1
    24    51    52    1
    25    51    47   am
    26   167   168    1
    27    46    47    1
    28    46    45    1
    29     1     2    1
    30    47    48    2
    31    45    43   am
    32    57    58    1
    33    44    43    2
    34     4     3    2
    35    58    59    2
    36     2     3    1
    37     2     5    1
    38    43    42    1
    39   142   141    1
    40    59    60    1
    41    59    61    1
    42     5     6    1
    43    42    41    1
    44   152   151    1
    45   141   140    1
    46   165   164    1
    47    75    74    1
    48    75    76    2
    49   153   151    1
    50    74    73    1
    51    74    77    1
    52   151   150    2
    53    80    79   ar
    54     6     7    1
    55    78    79    1
    56    78    77    1
    57   140   139    1
    58   164   163   ar
    59   164   162   ar
    60    79    81   ar
    61     8     7    1
    62    92    91   ar
    63    92    90   ar
    64   163   161   ar
    65   162   160   ar
    66   150   149    1
    67    99   101   ar
    68    99    98   ar
    69    30    29    1
    70    96    95    2
    71    91    89   ar
    72   149   148    1
    73   157   156    2
    74    90    88   ar
    75    29    28    1
    76    97    98    1
    77    97    94    1
    78   139   138    1
    79   101   102   ar
    80    98   100   ar
    81    34    33    2
    82    95    94    1
    83   161   159   ar
    84   160   159   ar
    85    89    87   ar
    86   138   135    1
    87    94    93    1
    88   156   155    1
    89    88    87   ar
    90   159   158    1
    91   148   147    1
    92    33    32    1
    93    93    84   am
    94    28    27    1
    95   102   100   ar
    96    87    86    1
    97    27    26    1
    98   134   135    1
    99    82    83    1
   100   147   144    1
   101   155   158    1
   102   155   154    1
   103   135   136    1
   104    84    83    1
   105    84    85    2
   106   124   122    1
   107   137   136    2
   108    32    35    1
   109    32    31    1
   110    83    86    1
   111    35    36    1
   112    31    24   am
   113   132   133    1
   114   132   131    1
   115   123   122    1
   116    26    23    1
   117    24    25    2
   118    24    23    1
   119   122   119    1
   120   144   143    1
   121   144   145    1
   122    23    22    1
   123   131   130    1
   124   130   129    1
   125    36    38   ar
   126    36    37   ar
   127   145   146    2
   128   119   118    1
   129   119   120    1
   130   117   115    1
   131    38    40   ar
   132    37    39   ar
   133    22    15   am
   134    16    15    2
   135   129   126    1
   136   120   121    2
   137   126   125    1
   138   126   127    1
   139    15    14    1
   140   110   109    1
   141    40    39   ar
   142   115   116    1
   143   115   112    1
   144    12    11    2
   145   127   128    2
   146    11    10    1
   147    11    13   am
   148    14    13    1
   149    14    17    1
   150   112   111    1
   151   112   113    1
   152   103   104    1
   153   109   108    1
   154    18    17    1
   155    18    19    1
   156    10     9    1
   157   104   105    1
   158   104   107    1
   159   108   107    1
   160    21    19   am
   161    19    20    2
   162   113   114    2
   163   106   105    2
