@<TRIPOS>MOLECULE
tmp/3ty5B00.pdb
 250 237 0 0 0
SMALL
GASTEIGER

@<TRIPOS>ATOM
      1  N        -14.0340   16.8610  -10.1360 N.3    15  PRO15      -0.2102
      2  CA       -13.0980   15.7370  -10.2160 C.3    15  PRO15       0.1504
      3  C        -11.6580   16.2050  -10.3340 C.2    15  PRO15       0.2576
      4  O        -11.4170   17.3480  -10.7240 O.2    15  PRO15      -0.2718
      5  CB       -13.5140   15.0520  -11.5150 C.3    15  PRO15       0.0282
      6  CG       -13.9640   16.1780  -12.3740 C.3    15  PRO15       0.0208
      7  CD       -14.5570   17.2290  -11.4640 C.3    15  PRO15       0.0893
      8  N        -10.7160   15.3290  -10.0010 N.am   16  THR16      -0.1939
      9  CA        -9.3050   15.6280  -10.2000 C.3    16  THR16       0.2028
     10  C         -9.0250   15.7240  -11.6970 C.2    16  THR16       0.2642
     11  O         -9.7620   15.1740  -12.5140 O.2    16  THR16      -0.2714
     12  CB        -8.4000   14.5520   -9.5660 C.3    16  THR16       0.1808
     13  OG1       -7.0620   15.0490   -9.4540 O.3    16  THR16      -0.2208
     14  CG2       -8.4080   13.2670  -10.3990 C.3    16  THR16       0.0379
     15  N         -7.9640   16.4300  -12.0600 N.am   17  MET17      -0.1976
     16  CA        -7.6350   16.6230  -13.4680 C.3    17  MET17       0.1605
     17  C         -6.2790   15.9920  -13.7800 C.2    17  MET17       0.2287
     18  O         -5.3830   15.9950  -12.9440 O.2    17  MET17      -0.2864
     19  CB        -7.6430   18.1160  -13.8070 C.3    17  MET17       0.0413
     20  CG        -7.4230   18.4260  -15.2830 C.3    17  MET17       0.0598
     21  SD        -7.4610   20.1990  -15.6520 S.3    17  MET17      -0.1393
     22  CE        -9.0480   20.6570  -14.9500 C.3    17  MET17       0.0692
     23  N         -8.3330   26.8100  -21.9990 N.3    50  GLY50      -0.1210
     24  CA        -8.6820   27.8370  -21.0430 C.3    50  GLY50       0.1956
     25  C         -7.4790   28.2110  -20.2070 C.2    50  GLY50       0.2612
     26  O         -6.6510   27.3710  -19.8630 O.2    50  GLY50      -0.2717
     27  N         -7.3820   29.4890  -19.8840 N.am   51  GLN51      -0.1965
     28  CA        -6.3010   29.9740  -19.0500 C.3    51  GLN51       0.1733
     29  C         -6.5370   29.5970  -17.5830 C.2    51  GLN51       0.2616
     30  O         -7.5940   29.8930  -17.0250 O.2    51  GLN51      -0.2715
     31  CB        -6.1900   31.4880  -19.2110 C.3    51  GLN51       0.0408
     32  CG        -5.1330   32.1360  -18.3610 C.3    51  GLN51       0.0908
     33  CD        -5.0220   33.6150  -18.6420 C.2    51  GLN51       0.2608
     34  OE1       -5.5240   34.1010  -19.6550 O.2    51  GLN51      -0.2717
     35  NE2       -4.3670   34.3430  -17.7460 N.am   51  GLN51      -0.0878
     36  N         -5.5640   28.9170  -16.9770 N.am   52  LYS52      -0.1963
     37  CA        -5.6010   28.6120  -15.5450 C.3    52  LYS52       0.1728
     38  C         -5.4750   29.9040  -14.7620 C.2    52  LYS52       0.2616
     39  O         -4.5330   30.6720  -14.9720 O.2    52  LYS52      -0.2715
     40  CB        -4.4470   27.6950  -15.1600 C.3    52  LYS52       0.0311
     41  CG        -4.7400   26.2280  -15.2820 C.3    52  LYS52       0.0038
     42  CD        -5.3240   25.6930  -13.9950 C.3    52  LYS52       0.0206
     43  CE        -5.0130   24.2120  -13.8160 C.3    52  LYS52       0.1093
     44  NZ        -3.5690   23.9650  -13.5330 N.3    52  LYS52      -0.1314
     45  N         -6.4120   30.1410  -13.8520 N.am   53  HIS53      -0.1959
     46  CA        -6.4920   31.4310  -13.1680 C.3    53  HIS53       0.1787
     47  C         -5.5450   31.5720  -11.9680 C.2    53  HIS53       0.2620
     48  O         -5.1370   32.6850  -11.6150 O.2    53  HIS53      -0.2715
     49  CB        -7.9360   31.7120  -12.7490 C.3    53  HIS53       0.0785
     50  CG        -8.8820   31.8420  -13.9030 C.ar   53  HIS53       0.0821
     51  ND1       -8.8340   32.8980  -14.7850 N.ar   53  HIS53      -0.2267
     52  CD2       -9.8960   31.0460  -14.3180 C.ar   53  HIS53       0.1154
     53  CE1       -9.7830   32.7510  -15.6940 C.ar   53  HIS53       0.1986
     54  NE2      -10.4410   31.6370  -15.4320 N.ar   53  HIS53      -0.2212
     55  N         -5.2060   30.4420  -11.3530 N.am   54  MET54      -0.1977
     56  CA        -4.3310   30.4100  -10.1780 C.3    54  MET54       0.1605
     57  C         -5.0330   30.8400   -8.8840 C.2    54  MET54       0.2287
     58  O         -4.4990   31.6220   -8.0990 O.2    54  MET54      -0.2864
     59  CB        -3.0510   31.2220  -10.4140 C.3    54  MET54       0.0413
     60  CG        -2.1870   30.6780  -11.5390 C.3    54  MET54       0.0598
     61  SD        -0.5220   31.3520  -11.5370 S.3    54  MET54      -0.1393
     62  CE         0.1340   30.6770  -10.0080 C.3    54  MET54       0.0692
     63  N        -10.5210   25.9840   -6.4790 N.3    57  ARG57      -0.1245
     64  CA       -11.7420   25.4300   -7.0560 C.3    57  ARG57       0.1563
     65  C        -12.9150   25.7320   -6.1310 C.2    57  ARG57       0.2260
     66  O        -12.8430   25.4860   -4.9270 O.2    57  ARG57      -0.2867
     67  CB       -11.5960   23.9190   -7.2630 C.3    57  ARG57       0.0307
     68  CG       -12.7210   23.2570   -8.0500 C.3    57  ARG57       0.0489
     69  CD       -12.8250   23.8360   -9.4410 C.3    57  ARG57       0.2205
     70  NE       -13.6500   23.0370  -10.3450 N.pl3  57  ARG57      -0.0865
     71  CZ       -13.2090   21.9920  -11.0410 C.cat  57  ARG57       0.5346
     72  NH1      -11.9520   21.6040  -10.9230 N.pl3  57  ARG57       0.1354
     73  NH2      -14.0250   21.3280  -11.8540 N.pl3  57  ARG57       0.1354
     74  N        -13.7800   21.9140   -2.2420 N.3    86  ARG86      -0.1245
     75  CA       -13.5630   20.6590   -2.9230 C.3    86  ARG86       0.1563
     76  C        -13.8170   19.4760   -1.9900 C.2    86  ARG86       0.2260
     77  O        -14.0790   18.3540   -2.4350 O.2    86  ARG86      -0.2867
     78  CB       -12.1050   20.6650   -3.3490 C.3    86  ARG86       0.0307
     79  CG       -11.7510   19.7570   -4.4580 C.3    86  ARG86       0.0489
     80  CD       -10.3810   20.1320   -4.9650 C.3    86  ARG86       0.2205
     81  NE        -9.8920   19.1330   -5.9000 N.pl3  86  ARG86      -0.0865
     82  CZ       -10.2940   19.0390   -7.1600 C.cat  86  ARG86       0.5346
     83  NH1      -11.1920   19.8890   -7.6380 N.pl3  86  ARG86       0.1354
     84  NH2       -9.8010   18.0930   -7.9420 N.pl3  86  ARG86       0.1354
     85  N        -13.5410   29.1240  -10.5090 N.3   128  GLU128     -0.1245
     86  CA       -12.3040   29.4190   -9.8180 C.3   128  GLU128      0.1567
     87  C        -12.5260   30.6750   -8.9840 C.2   128  GLU128      0.2260
     88  O        -13.1530   31.6320   -9.4420 O.2   128  GLU128     -0.2867
     89  CB       -11.1620   29.6230  -10.8130 C.3   128  GLU128      0.0388
     90  CG       -10.5020   28.3320  -11.2390 C.3   128  GLU128      0.1160
     91  CD        -9.7070   27.6950  -10.1130 C.2   128  GLU128      0.3649
     92  OE1       -8.8720   28.3950   -9.4990 O.co2 128  GLU128     -0.2457
     93  OE2       -9.9200   26.4940   -9.8380 O.co2 128  GLU128     -0.2457
     94  N          4.2740   25.6790   -3.1310 N.3   193  TYR193     -0.1241
     95  CA         3.0550   26.3390   -3.5970 C.3   193  TYR193      0.1605
     96  C          3.0510   27.8180   -3.2430 C.2   193  TYR193      0.2264
     97  O          2.6700   28.6660   -4.0550 O.2   193  TYR193     -0.2867
     98  CB         1.8100   25.6720   -3.0130 C.3   193  TYR193      0.0534
     99  CG         1.4010   24.4210   -3.7420 C.ar  193  TYR193     -0.0201
    100  CD1        0.7460   24.4940   -4.9620 C.ar  193  TYR193     -0.0009
    101  CD2        1.6700   23.1670   -3.2140 C.ar  193  TYR193     -0.0009
    102  CE1        0.3710   23.3530   -5.6380 C.ar  193  TYR193      0.0417
    103  CE2        1.2980   22.0200   -3.8790 C.ar  193  TYR193      0.0417
    104  CZ         0.6510   22.1170   -5.0930 C.ar  193  TYR193      0.1957
    105  OH         0.2790   20.9760   -5.7640 O.3   193  TYR193     -0.2866
    106  N          2.6760   30.7750   -6.0250 N.3   197  TYR197     -0.1241
    107  CA         1.4680   31.5950   -6.0240 C.3   197  TYR197      0.1605
    108  C          1.6570   32.9710   -5.3850 C.2   197  TYR197      0.2264
    109  O          0.7820   33.8270   -5.4920 O.2   197  TYR197     -0.2867
    110  CB         0.3230   30.8510   -5.3310 C.3   197  TYR197      0.0534
    111  CG        -0.2120   29.6910   -6.1360 C.ar  197  TYR197     -0.0201
    112  CD1       -1.2920   29.8570   -6.9970 C.ar  197  TYR197     -0.0009
    113  CD2        0.3680   28.4330   -6.0470 C.ar  197  TYR197     -0.0009
    114  CE1       -1.7820   28.8010   -7.7400 C.ar  197  TYR197      0.0417
    115  CE2       -0.1140   27.3690   -6.7890 C.ar  197  TYR197      0.0417
    116  CZ        -1.1880   27.5590   -7.6330 C.ar  197  TYR197      0.1957
    117  OH        -1.6700   26.5000   -8.3720 O.3   197  TYR197     -0.2866
    118  N        -16.4970   28.6120  -15.0250 N.3   215  PHE215     -0.1227
    119  CA       -16.2080   27.9960  -16.3150 C.3   215  PHE215      0.1736
    120  C        -17.2280   26.9290  -16.7220 C.2   215  PHE215      0.2595
    121  O        -17.2280   26.4690  -17.8590 O.2   215  PHE215     -0.2718
    122  CB       -14.7770   27.4430  -16.3580 C.3   215  PHE215      0.0547
    123  CG       -14.4220   26.5480  -15.1960 C.ar  215  PHE215     -0.0202
    124  CD1      -13.7070   27.0440  -14.1150 C.ar  215  PHE215     -0.0042
    125  CD2      -14.7850   25.2090  -15.1950 C.ar  215  PHE215     -0.0042
    126  CE1      -13.3680   26.2290  -13.0530 C.ar  215  PHE215     -0.0003
    127  CE2      -14.4490   24.3880  -14.1390 C.ar  215  PHE215     -0.0003
    128  CZ       -13.7420   24.9000  -13.0600 C.ar  215  PHE215     -0.0000
    129  N        -18.1010   26.5490  -15.7960 N.am  216  HIS216     -0.1975
    130  CA       -19.1490   25.5760  -16.0830 C.3   216  HIS216      0.1656
    131  C        -20.5020   26.0050  -15.5210 C.2   216  HIS216      0.2291
    132  O        -20.6090   26.4180  -14.3630 O.2   216  HIS216     -0.2864
    133  CB       -18.8040   24.2070  -15.4930 C.3   216  HIS216      0.0771
    134  CG       -17.6410   23.5280  -16.1490 C.ar  216  HIS216      0.0820
    135  ND1      -16.8320   22.6380  -15.4820 N.ar  216  HIS216     -0.2267
    136  CD2      -17.1660   23.6000  -17.4160 C.ar  216  HIS216      0.1154
    137  CE1      -15.8960   22.1920  -16.3070 C.ar  216  HIS216      0.1986
    138  NE2      -16.0800   22.7590  -17.4840 N.ar  216  HIS216     -0.2212
    139  N        -18.4850   28.8390  -22.0400 N.3   234  MET234     -0.1245
    140  CA       -17.6570   30.0370  -21.9250 C.3   234  MET234      0.1570
    141  C        -18.4360   31.3130  -22.2210 C.2   234  MET234      0.2261
    142  O        -18.3420   32.3010  -21.4860 O.2   234  MET234     -0.2867
    143  CB       -16.4540   29.9460  -22.8680 C.3   234  MET234      0.0387
    144  CG       -15.3350   29.0470  -22.3760 C.3   234  MET234      0.0595
    145  SD       -14.6670   29.5990  -20.7940 S.3   234  MET234     -0.1393
    146  CE       -13.3180   28.4380  -20.5790 C.3   234  MET234      0.0692
    147  N        -13.1680   34.0130  -18.8130 N.3   251  THR251     -0.1218
    148  CA       -11.9390   33.2400  -18.9220 C.3   251  THR251      0.1862
    149  C        -11.3320   33.3830  -20.3120 C.2   251  THR251      0.2287
    150  O        -11.9650   33.0470  -21.3100 O.2   251  THR251     -0.2866
    151  CB       -12.1760   31.7420  -18.6210 C.3   251  THR251      0.1770
    152  OG1      -12.7500   31.6050  -17.3240 O.3   251  THR251     -0.2211
    153  CG2      -10.8620   30.9510  -18.6720 C.3   251  THR251      0.0375
    154  N          0.6310   29.4760  -14.2490 N.3   280  GLU280     -0.1245
    155  CA         0.4190   28.0450  -14.0710 C.3   280  GLU280      0.1567
    156  C          0.2600   27.2900  -15.3970 C.2   280  GLU280      0.2260
    157  O          0.7930   26.1930  -15.5570 O.2   280  GLU280     -0.2867
    158  CB        -0.7690   27.7720  -13.1390 C.3   280  GLU280      0.0388
    159  CG        -0.8830   26.3110  -12.7260 C.3   280  GLU280      0.1160
    160  CD        -1.8930   26.0690  -11.6130 C.2   280  GLU280      0.3649
    161  OE1       -2.4600   27.0480  -11.0840 O.co2 280  GLU280     -0.2457
    162  OE2       -2.1160   24.8880  -11.2630 O.co2 280  GLU280     -0.2457
    163  N         -5.8690   24.6920  -19.2570 N.3   283  VAL283     -0.1245
    164  CA        -6.6280   23.4550  -19.2610 C.3   283  VAL283      0.1561
    165  C         -7.1160   23.2330  -20.6800 C.2   283  VAL283      0.2260
    166  O         -7.6660   24.1420  -21.3060 O.2   283  VAL283     -0.2867
    167  CB        -7.8410   23.5250  -18.3100 C.3   283  VAL283      0.0252
    168  CG1       -8.7180   22.2880  -18.4490 C.3   283  VAL283      0.0019
    169  CG2       -7.3830   23.6870  -16.8740 C.3   283  VAL283      0.0019
    170  N         -9.5590   21.0690  -23.0980 N.3   285  LYS285     -0.1245
    171  CA       -10.7560   20.2460  -23.0440 C.3   285  LYS285      0.1561
    172  C        -11.2660   19.8910  -24.4380 C.2   285  LYS285      0.2260
    173  O        -11.1050   20.6660  -25.3780 O.2   285  LYS285     -0.2867
    174  CB       -11.8480   20.9820  -22.2770 C.3   285  LYS285      0.0271
    175  CG       -11.4240   21.4410  -20.8970 C.3   285  LYS285      0.0035
    176  CD       -12.5200   22.2430  -20.2480 C.3   285  LYS285      0.0206
    177  CE       -12.1350   22.6790  -18.8490 C.3   285  LYS285      0.1093
    178  NZ       -13.2970   23.3030  -18.1560 N.3   285  LYS285     -0.1314
    179  N         -4.6490   19.1760  -17.9500 N.3   303  LYS303     -0.1245
    180  CA        -3.9110   20.3740  -17.5770 C.3   303  LYS303      0.1561
    181  C         -2.4920   20.3380  -18.1270 C.2   303  LYS303      0.2260
    182  O         -1.8550   19.2860  -18.1900 O.2   303  LYS303     -0.2867
    183  CB        -3.9120   20.6020  -16.0640 C.3   303  LYS303      0.0271
    184  CG        -3.3250   19.4780  -15.2350 C.3   303  LYS303      0.0035
    185  CD        -3.2300   19.9250  -13.7870 C.3   303  LYS303      0.0206
    186  CE        -2.7150   18.8320  -12.8730 C.3   303  LYS303      0.1093
    187  NZ        -3.8190   18.0180  -12.3160 N.3   303  LYS303     -0.1314
    188  N          0.9370   22.5890  -17.6080 N.3   305  ARG305     -0.1245
    189  CA         1.5340   23.6630  -16.8130 C.3   305  ARG305      0.1563
    190  C          2.8530   24.2020  -17.3630 C.2   305  ARG305      0.2260
    191  O          3.5740   23.5100  -18.0790 O.2   305  ARG305     -0.2867
    192  CB         1.6900   23.2420  -15.3460 C.3   305  ARG305      0.0307
    193  CG         0.3610   23.0410  -14.6110 C.3   305  ARG305      0.0489
    194  CD        -0.0340   21.5740  -14.6150 C.3   305  ARG305      0.2205
    195  NE         0.8030   20.8450  -13.6740 N.pl3 305  ARG305     -0.0865
    196  CZ         0.8570   19.5270  -13.5850 C.cat 305  ARG305      0.5346
    197  NH1        0.1180   18.7820  -14.3890 N.pl3 305  ARG305      0.1354
    198  NH2        1.6580   18.9590  -12.7000 N.pl3 305  ARG305      0.1354
    199  N          6.6380   27.4870  -13.6670 N.3   309  TYR309     -0.1241
    200  CA         5.7810   27.0150  -12.5820 C.3   309  TYR309      0.1605
    201  C          6.1910   25.6250  -12.0870 C.2   309  TYR309      0.2264
    202  O          6.4540   25.4290  -10.8980 O.2   309  TYR309     -0.2867
    203  CB         4.3160   27.0150  -13.0290 C.3   309  TYR309      0.0534
    204  CG         3.3610   26.4040  -12.0310 C.ar  309  TYR309     -0.0201
    205  CD1        2.9060   27.1340  -10.9390 C.ar  309  TYR309     -0.0009
    206  CD2        2.9000   25.1020  -12.1870 C.ar  309  TYR309     -0.0009
    207  CE1        2.0250   26.5820  -10.0220 C.ar  309  TYR309      0.0417
    208  CE2        2.0190   24.5410  -11.2760 C.ar  309  TYR309      0.0417
    209  CZ         1.5870   25.2870  -10.1940 C.ar  309  TYR309      0.1957
    210  OH         0.7100   24.7380   -9.2820 O.3   309  TYR309     -0.2866
    211  N         -3.8020    8.6810  -12.5630 N.3   335  LYS335     -0.1245
    212  CA        -4.5550    9.9110  -12.4110 C.3   335  LYS335      0.1561
    213  C         -5.6740    9.9630  -13.4420 C.2   335  LYS335      0.2260
    214  O         -6.7740   10.4360  -13.1540 O.2   335  LYS335     -0.2867
    215  CB        -3.6330   11.1170  -12.5800 C.3   335  LYS335      0.0271
    216  CG        -4.1190   12.3780  -11.8780 C.3   335  LYS335      0.0035
    217  CD        -3.7310   12.3650  -10.4030 C.3   335  LYS335      0.0206
    218  CE        -4.3710   13.5230   -9.6380 C.3   335  LYS335      0.1093
    219  NZ        -4.0890   14.8520  -10.2550 N.3   335  LYS335     -0.1314
    220  N        -10.7060   10.7090   -3.8600 N.3   373  GLU373     -0.1245
    221  CA        -9.6780   11.7250   -3.6650 C.3   373  GLU373      0.1567
    222  C         -8.8550   11.4670   -2.4090 C.2   373  GLU373      0.2260
    223  O         -7.8780   12.1670   -2.1450 O.2   373  GLU373     -0.2867
    224  CB       -10.3050   13.1140   -3.6020 C.3   373  GLU373      0.0388
    225  CG       -10.8300   13.6090   -4.9350 C.3   373  GLU373      0.1160
    226  CD        -9.7220   13.8430   -5.9540 C.2   373  GLU373      0.3649
    227  OE1      -10.0460   14.0570   -7.1370 O.co2 373  GLU373     -0.2457
    228  OE2       -8.5310   13.8230   -5.5810 O.co2 373  GLU373     -0.2457
    229  N         -1.8490   10.1160   -4.2140 N.3   377  VAL377     -0.1245
    230  CA        -1.3820   10.3960   -5.5650 C.3   377  VAL377      0.1561
    231  C         -0.2400   11.4020   -5.4990 C.2   377  VAL377      0.2260
    232  O         -0.0740   12.0960   -4.4950 O.2   377  VAL377     -0.2867
    233  CB        -2.5030   10.9690   -6.4610 C.3   377  VAL377      0.0252
    234  CG1       -3.7370   10.0770   -6.4170 C.3   377  VAL377      0.0019
    235  CG2       -2.8520   12.3880   -6.0390 C.3   377  VAL377      0.0019
    236  N          1.3710   14.6520   -5.6220 N.3   379  PRO379     -0.2116
    237  CA         0.8420   16.0120   -5.4640 C.3   379  PRO379      0.1372
    238  C          1.2870   16.9570   -6.5840 C.2   379  PRO379      0.2244
    239  O          0.5290   17.8380   -6.9860 O.2   379  PRO379     -0.2868
    240  CB         1.4210   16.4610   -4.1150 C.3   379  PRO379      0.0268
    241  CG         2.6240   15.6000   -3.9040 C.3   379  PRO379      0.0207
    242  CD         2.2910   14.2820   -4.5310 C.3   379  PRO379      0.0892
    243  N          1.3610   16.5280   -9.5260 N.3   381  LEU381     -0.1245
    244  CA         0.5810   16.3160  -10.7400 C.3   381  LEU381      0.1561
    245  C         -0.7980   16.9510  -10.6310 C.2   381  LEU381      0.2260
    246  O         -1.7110   16.5750  -11.3660 O.2   381  LEU381     -0.2867
    247  CB         0.4450   14.8240  -11.0530 C.3   381  LEU381      0.0270
    248  CG         1.7300   14.0440  -11.3340 C.3   381  LEU381      0.0019
    249  CD1        1.4100   12.5840  -11.6030 C.3   381  LEU381      0.0001
    250  CD2        2.4920   14.6560  -12.4980 C.3   381  LEU381      0.0001
@<TRIPOS>BOND
     1   173   172    2
     2   172   171    1
     3   170   171    1
     4   171   174    1
     5   143   144    1
     6   143   140    1
     7   144   145    1
     8   174   175    1
     9   141   140    1
    10   141   142    2
    11   139   140    1
    12    23    24    1
    13   150   149    2
    14   166   165    2
    15    24    25    1
    16   175   176    1
    17   145   146    1
    18   165   164    1
    19   149   148    1
    20   176   177    1
    21    25    27   am
    22    25    26    2
    23    27    28    1
    24    34    33    2
    25   164   163    1
    26   164   167    1
    27    31    28    1
    28    31    32    1
    29    28    29    1
    30   148   147    1
    31   148   151    1
    32   177   178    1
    33   153   151    1
    34    33    32    1
    35    33    35   am
    36   151   152    1
    37   168   167    1
    38   167   169    1
    39   182   181    2
    40   181   180    1
    41   191   190    2
    42   179   180    1
    43   121   120    2
    44   188   189    1
    45    29    30    2
    46    29    36   am
    47   180   183    1
    48   138   136   ar
    49   138   137   ar
    50   136   134   ar
    51   190   189    1
    52    36    37    1
    53   189   192    1
    54   120   119    1
    55   120   129   am
    56   122   119    1
    57   122   123    1
    58   119   118    1
    59   137   135   ar
    60   134   133    1
    61   134   135   ar
    62   130   129    1
    63   130   131    1
    64   130   133    1
    65   183   184    1
    66    53    54   ar
    67    53    51   ar
    68    21    20    1
    69    21    22    1
    70   157   156    2
    71    37    40    1
    72    37    38    1
    73   131   132    2
    74    54    52   ar
    75   156   155    1
    76   192   193    1
    77    20    19    1
    78    41    40    1
    79    41    42    1
    80   184   185    1
    81   123   125   ar
    82   123   124   ar
    83   125   127   ar
    84    39    38    2
    85    51    50   ar
    86    38    45   am
    87   194   193    1
    88   194   195    1
    89   197   196    1
    90    52    50   ar
    91   154   155    1
    92   127   128   ar
    93   124   126   ar
    94   155   158    1
    95    42    43    1
    96    50    49    1
    97    45    46    1
    98    43    44    1
    99    19    16    1
   100   185   186    1
   101    17    16    1
   102    17    18    2
   103   195   196    2
   104   199   200    1
   105   196   198    1
   106    16    15    1
   107   213   214    2
   108   213   212    1
   109    46    49    1
   110    46    47    1
   111   158   159    1
   112   128   126   ar
   113   203   200    1
   114   203   204    1
   115   186   187    1
   116   159   160    1
   117   200   201    1
   118   215   212    1
   119   215   216    1
   120   211   212    1
   121    11    10    2
   122   250   248    1
   123     6     5    1
   124     6     7    1
   125   206   204   ar
   126   206   208   ar
   127   201   202    2
   128    15    10   am
   129   204   205   ar
   130    47    48    2
   131    47    55   am
   132   216   217    1
   133    73    71    1
   134    10     9    1
   135   160   162   ar
   136   160   161   ar
   137   249   248    1
   138    60    61    1
   139    60    59    1
   140    61    62    1
   141     5     2    1
   142     7     1    1
   143   246   245    2
   144    55    56    1
   145   248   247    1
   146   208   209   ar
   147    90    89    1
   148    90    91    1
   149   247   244    1
   150    71    72    1
   151    71    70    2
   152   205   207   ar
   153    89    86    1
   154   244   245    1
   155   244   243    1
   156     4     3    2
   157    85    86    1
   158    59    56    1
   159   217   218    1
   160    14    12    1
   161    70    69    1
   162     3     2    1
   163     3     8   am
   164   219   218    1
   165     2     1    1
   166     9     8    1
   167     9    12    1
   168   209   207   ar
   169   209   210    1
   170    56    57    1
   171    91    93   ar
   172    91    92   ar
   173    86    87    1
   174    12    13    1
   175    88    87    2
   176    69    68    1
   177    57    58    2
   178   117   116    1
   179    68    67    1
   180    84    82    1
   181   114   116   ar
   182   114   112   ar
   183    83    82    1
   184   116   115   ar
   185    67    64    1
   186    82    81    2
   187   227   226   ar
   188    64    63    1
   189    64    65    1
   190   112   111   ar
   191   239   238    2
   192   115   113   ar
   193   238   237    1
   194   233   234    1
   195   233   235    1
   196   233   230    1
   197   111   113   ar
   198   111   110    1
   199    65    66    2
   200   106   107    1
   201   107   108    1
   202   107   110    1
   203   226   228   ar
   204   226   225    1
   205    81    80    1
   206   105   104    1
   207   102   104   ar
   208   102   100   ar
   209   236   237    1
   210   236   242    1
   211   230   231    1
   212   230   229    1
   213   231   232    2
   214   109   108    2
   215   237   240    1
   216   104   103   ar
   217    80    79    1
   218   100    99   ar
   219   225   224    1
   220   242   241    1
   221    79    78    1
   222   240   241    1
   223    97    96    2
   224   103   101   ar
   225   220   221    1
   226    99   101   ar
   227    99    98    1
   228   221   224    1
   229   221   222    1
   230    95    96    1
   231    95    94    1
   232    95    98    1
   233    78    75    1
   234    75    74    1
   235    75    76    1
   236    77    76    2
   237   222   223    2
