@<TRIPOS>MOLECULE
tmp/3ty5B01.pdb
 143 138 0 0 0
SMALL
GASTEIGER

@<TRIPOS>ATOM
      1  N        -22.7910   18.0900   -5.6890 N.3    12  TYR12      -0.1227
      2  CA       -21.7170   17.8950   -6.6520 C.3    12  TYR12       0.1736
      3  C        -20.3520   18.2110   -6.0570 C.2    12  TYR12       0.2595
      4  O        -20.2210   19.1010   -5.2210 O.2    12  TYR12      -0.2718
      5  CB       -21.9650   18.7760   -7.8750 C.3    12  TYR12       0.0548
      6  CG       -20.7690   18.9510   -8.7790 C.ar   12  TYR12      -0.0200
      7  CD1      -20.4700   18.0120   -9.7580 C.ar   12  TYR12      -0.0009
      8  CD2      -19.9470   20.0680   -8.6680 C.ar   12  TYR12      -0.0009
      9  CE1      -19.3730   18.1780  -10.6030 C.ar   12  TYR12       0.0417
     10  CE2      -18.8520   20.2420   -9.5040 C.ar   12  TYR12       0.0417
     11  CZ       -18.5730   19.2930  -10.4670 C.ar   12  TYR12       0.1957
     12  OH       -17.4890   19.4680  -11.2910 O.3    12  TYR12      -0.2866
     13  N        -19.3440   17.4620   -6.4880 N.am   13  LEU13      -0.1980
     14  CA       -17.9490   17.7530   -6.1680 C.3    13  LEU13       0.1596
     15  C        -17.1090   17.5430   -7.4200 C.2    13  LEU13       0.2287
     16  O        -17.2140   16.4970   -8.0540 O.2    13  LEU13      -0.2864
     17  CB       -17.4290   16.8420   -5.0540 C.3    13  LEU13       0.0297
     18  CG       -17.8770   17.0770   -3.6120 C.3    13  LEU13       0.0022
     19  CD1      -17.2680   16.0100   -2.7160 C.3    13  LEU13       0.0001
     20  CD2      -17.4930   18.4700   -3.1300 C.3    13  LEU13       0.0001
     21  N        -14.0340   16.8610  -10.1360 N.3    15  PRO15      -0.2102
     22  CA       -13.0980   15.7370  -10.2160 C.3    15  PRO15       0.1504
     23  C        -11.6580   16.2050  -10.3340 C.2    15  PRO15       0.2576
     24  O        -11.4170   17.3480  -10.7240 O.2    15  PRO15      -0.2718
     25  CB       -13.5140   15.0520  -11.5150 C.3    15  PRO15       0.0282
     26  CG       -13.9640   16.1780  -12.3740 C.3    15  PRO15       0.0208
     27  CD       -14.5570   17.2290  -11.4640 C.3    15  PRO15       0.0893
     28  N        -10.7160   15.3290  -10.0010 N.am   16  THR16      -0.1939
     29  CA        -9.3050   15.6280  -10.2000 C.3    16  THR16       0.2028
     30  C         -9.0250   15.7240  -11.6970 C.2    16  THR16       0.2642
     31  O         -9.7620   15.1740  -12.5140 O.2    16  THR16      -0.2714
     32  CB        -8.4000   14.5520   -9.5660 C.3    16  THR16       0.1808
     33  OG1       -7.0620   15.0490   -9.4540 O.3    16  THR16      -0.2208
     34  CG2       -8.4080   13.2670  -10.3990 C.3    16  THR16       0.0379
     35  N         -7.9640   16.4300  -12.0600 N.am   17  MET17      -0.1976
     36  CA        -7.6350   16.6230  -13.4680 C.3    17  MET17       0.1605
     37  C         -6.2790   15.9920  -13.7800 C.2    17  MET17       0.2287
     38  O         -5.3830   15.9950  -12.9440 O.2    17  MET17      -0.2864
     39  CB        -7.6430   18.1160  -13.8070 C.3    17  MET17       0.0413
     40  CG        -7.4230   18.4260  -15.2830 C.3    17  MET17       0.0598
     41  SD        -7.4610   20.1990  -15.6520 S.3    17  MET17      -0.1393
     42  CE        -9.0480   20.6570  -14.9500 C.3    17  MET17       0.0692
     43  N        -10.5210   25.9840   -6.4790 N.3    57  ARG57      -0.1245
     44  CA       -11.7420   25.4300   -7.0560 C.3    57  ARG57       0.1563
     45  C        -12.9150   25.7320   -6.1310 C.2    57  ARG57       0.2260
     46  O        -12.8430   25.4860   -4.9270 O.2    57  ARG57      -0.2867
     47  CB       -11.5960   23.9190   -7.2630 C.3    57  ARG57       0.0307
     48  CG       -12.7210   23.2570   -8.0500 C.3    57  ARG57       0.0489
     49  CD       -12.8250   23.8360   -9.4410 C.3    57  ARG57       0.2205
     50  NE       -13.6500   23.0370  -10.3450 N.pl3  57  ARG57      -0.0865
     51  CZ       -13.2090   21.9920  -11.0410 C.cat  57  ARG57       0.5346
     52  NH1      -11.9520   21.6040  -10.9230 N.pl3  57  ARG57       0.1354
     53  NH2      -14.0250   21.3280  -11.8540 N.pl3  57  ARG57       0.1354
     54  N        -19.4760   25.7110  -11.7060 N.3   126  ASP126     -0.1239
     55  CA       -18.1020   25.3090  -11.4420 C.3   126  ASP126      0.1674
     56  C        -17.2080   26.5220  -11.6640 C.2   126  ASP126      0.2266
     57  O        -17.2000   27.1040  -12.7490 O.2   126  ASP126     -0.2867
     58  CB       -17.6890   24.1770  -12.3760 C.3   126  ASP126      0.1410
     59  CG       -16.8990   23.0920  -11.6680 C.2   126  ASP126      0.3668
     60  OD1      -16.4210   23.3380  -10.5370 O.co2 126  ASP126     -0.2456
     61  OD2      -16.7570   21.9920  -12.2460 O.co2 126  ASP126     -0.2456
     62  N        -18.1010   26.5490  -15.7960 N.3   216  HIS216     -0.1241
     63  CA       -19.1490   25.5760  -16.0830 C.3   216  HIS216      0.1621
     64  C        -20.5020   26.0050  -15.5210 C.2   216  HIS216      0.2264
     65  O        -20.6090   26.4180  -14.3630 O.2   216  HIS216     -0.2867
     66  CB       -18.8040   24.2070  -15.4930 C.3   216  HIS216      0.0745
     67  CG       -17.6410   23.5280  -16.1490 C.ar  216  HIS216      0.0817
     68  ND1      -16.8320   22.6380  -15.4820 N.ar  216  HIS216     -0.2268
     69  CD2      -17.1660   23.6000  -17.4160 C.ar  216  HIS216      0.1154
     70  CE1      -15.8960   22.1920  -16.3070 C.ar  216  HIS216      0.1986
     71  NE2      -16.0800   22.7590  -17.4840 N.ar  216  HIS216     -0.2212
     72  N        -23.0530   23.8970  -14.5410 N.3   218  LEU218     -0.1245
     73  CA       -23.2480   22.4730  -14.2870 C.3   218  LEU218      0.1561
     74  C        -24.7110   22.0810  -14.3980 C.2   218  LEU218      0.2260
     75  O        -25.0600   21.1510  -15.1220 O.2   218  LEU218     -0.2867
     76  CB       -22.7160   22.1010  -12.9010 C.3   218  LEU218      0.0270
     77  CG       -21.2250   22.3370  -12.6650 C.3   218  LEU218      0.0019
     78  CD1      -20.8960   22.2980  -11.1910 C.3   218  LEU218      0.0001
     79  CD2      -20.4020   21.3220  -13.4320 C.3   218  LEU218      0.0001
     80  N         -9.5590   21.0690  -23.0980 N.3   285  LYS285     -0.1245
     81  CA       -10.7560   20.2460  -23.0440 C.3   285  LYS285      0.1561
     82  C        -11.2660   19.8910  -24.4380 C.2   285  LYS285      0.2260
     83  O        -11.1050   20.6660  -25.3780 O.2   285  LYS285     -0.2867
     84  CB       -11.8480   20.9820  -22.2770 C.3   285  LYS285      0.0271
     85  CG       -11.4240   21.4410  -20.8970 C.3   285  LYS285      0.0035
     86  CD       -12.5200   22.2430  -20.2480 C.3   285  LYS285      0.0206
     87  CE       -12.1350   22.6790  -18.8490 C.3   285  LYS285      0.1093
     88  NZ       -13.2970   23.3030  -18.1560 N.3   285  LYS285     -0.1314
     89  N        -18.5160   18.5520  -23.9970 N.3   289  PHE289     -0.1241
     90  CA       -18.3870   18.3070  -22.5610 C.3   289  PHE289      0.1605
     91  C        -18.0450   16.8440  -22.3000 C.2   289  PHE289      0.2264
     92  O        -17.2020   16.5290  -21.4550 O.2   289  PHE289     -0.2867
     93  CB       -19.6920   18.6780  -21.8430 C.3   289  PHE289      0.0534
     94  CG       -19.5120   19.0930  -20.4020 C.ar  289  PHE289     -0.0203
     95  CD1      -19.3350   20.4270  -20.0690 C.ar  289  PHE289     -0.0042
     96  CD2      -19.5490   18.1560  -19.3820 C.ar  289  PHE289     -0.0042
     97  CE1      -19.1820   20.8170  -18.7460 C.ar  289  PHE289     -0.0003
     98  CE2      -19.3950   18.5380  -18.0580 C.ar  289  PHE289     -0.0003
     99  CZ       -19.2120   19.8700  -17.7400 C.ar  289  PHE289     -0.0000
    100  N        -12.0940   14.6060  -19.7820 N.3   300  PRO300     -0.2102
    101  CA       -12.8820   15.8250  -19.9840 C.3   300  PRO300      0.1504
    102  C        -11.9900   17.0660  -19.9480 C.2   300  PRO300      0.2575
    103  O        -12.3880   18.1350  -20.4180 O.2   300  PRO300     -0.2718
    104  CB       -13.8420   15.8210  -18.7920 C.3   300  PRO300      0.0282
    105  CG       -13.1220   15.0520  -17.7320 C.3   300  PRO300      0.0208
    106  CD       -12.3190   14.0050  -18.4550 C.3   300  PRO300      0.0893
    107  N        -10.7920   16.9190  -19.3950 N.am  301  ALA301     -0.1980
    108  CA        -9.8400   18.0190  -19.3410 C.3   301  ALA301      0.1597
    109  C         -8.4230   17.5090  -19.1060 C.2   301  ALA301      0.2287
    110  O         -8.2180   16.5050  -18.4340 O.2   301  ALA301     -0.2864
    111  CB       -10.2370   19.0080  -18.2560 C.3   301  ALA301      0.0319
    112  N        -14.2040    9.8050  -11.0270 N.3   342  GLU342     -0.1231
    113  CA       -14.6950   10.9690  -10.3000 C.3   342  GLU342      0.1699
    114  C        -15.6000   11.8090  -11.1800 C.2   342  GLU342      0.2592
    115  O        -16.6730   12.2320  -10.7570 O.2   342  GLU342     -0.2718
    116  CB       -13.5300   11.8130   -9.8010 C.3   342  GLU342      0.0402
    117  CG       -12.6040   11.0490   -8.8790 C.3   342  GLU342      0.1161
    118  CD       -11.5480   11.9260   -8.2590 C.2   342  GLU342      0.3649
    119  OE1      -11.2640   13.0050   -8.8250 O.co2 342  GLU342     -0.2457
    120  OE2      -11.0040   11.5340   -7.2060 O.co2 342  GLU342     -0.2457
    121  N        -15.1540   12.0490  -12.4080 N.am  343  PHE343     -0.1976
    122  CA       -15.9330   12.8150  -13.3660 C.3   343  PHE343      0.1639
    123  C        -17.3520   12.2710  -13.5030 C.2   343  PHE343      0.2290
    124  O        -18.3190   13.0290  -13.4540 O.2   343  PHE343     -0.2864
    125  CB       -15.2480   12.8380  -14.7340 C.3   343  PHE343      0.0560
    126  CG       -16.0350   13.5650  -15.7830 C.ar  343  PHE343     -0.0200
    127  CD1      -16.2080   14.9370  -15.7050 C.ar  343  PHE343     -0.0042
    128  CD2      -16.6070   12.8820  -16.8380 C.ar  343  PHE343     -0.0042
    129  CE1      -16.9390   15.6160  -16.6570 C.ar  343  PHE343     -0.0003
    130  CE2      -17.3330   13.5570  -17.8060 C.ar  343  PHE343     -0.0003
    131  CZ       -17.5000   14.9270  -17.7160 C.ar  343  PHE343     -0.0000
    132  N        -19.5770   12.5730  -10.3000 N.3   346  GLY346     -0.1210
    133  CA       -20.0670   13.9360  -10.1840 C.3   346  GLY346      0.1956
    134  C        -21.1910   14.2600  -11.1550 C.2   346  GLY346      0.2611
    135  O        -22.1060   15.0150  -10.8240 O.2   346  GLY346     -0.2717
    136  N        -21.1220   13.6960  -12.3580 N.am  347  MET347     -0.1979
    137  CA       -22.1720   13.8870  -13.3560 C.3   347  MET347      0.1605
    138  C        -23.4700   13.1670  -12.9610 C.2   347  MET347      0.2287
    139  O        -24.5660   13.7030  -13.1240 O.2   347  MET347     -0.2864
    140  CB       -21.6960   13.4020  -14.7270 C.3   347  MET347      0.0413
    141  CG       -20.6250   14.2760  -15.3680 C.3   347  MET347      0.0598
    142  SD       -21.2600   15.8730  -15.9250 S.3   347  MET347     -0.1393
    143  CE       -20.8330   16.9370  -14.5500 C.3   347  MET347      0.0692
@<TRIPOS>BOND
     1    83    82    2
     2    82    81    1
     3    89    90    1
     4    80    81    1
     5    81    84    1
     6    90    91    1
     7    90    93    1
     8    91    92    2
     9    84    85    1
    10    93    94    1
    11    85    86    1
    12   103   102    2
    13    94    95   ar
    14    94    96   ar
    15    86    87    1
    16    95    97   ar
    17   101   102    1
    18   101   100    1
    19   101   104    1
    20   102   107   am
    21   100   106    1
    22   107   108    1
    23    96    98   ar
    24   108   109    1
    25   108   111    1
    26   109   110    2
    27    87    88    1
    28   104   105    1
    29    97    99   ar
    30   106   105    1
    31    98    99   ar
    32   130   131   ar
    33   130   128   ar
    34   131   129   ar
    35    71    69   ar
    36    71    70   ar
    37    69    67   ar
    38   128   126   ar
    39   129   127   ar
    40    70    68   ar
    41    67    66    1
    42    67    68   ar
    43    63    62    1
    44    63    64    1
    45    63    66    1
    46   142   141    1
    47   142   143    1
    48   126   127   ar
    49   126   125    1
    50    41    40    1
    51    41    42    1
    52    64    65    2
    53   141   140    1
    54    40    39    1
    55    75    74    2
    56   125   122    1
    57   140   137    1
    58    72    73    1
    59    74    73    1
    60    73    76    1
    61    39    36    1
    62    37    36    1
    63    37    38    2
    64   123   124    2
    65   123   122    1
    66    36    35    1
    67    79    77    1
    68   122   121    1
    69   137   138    1
    70   137   136    1
    71   139   138    2
    72    76    77    1
    73    57    56    2
    74    77    78    1
    75    31    30    2
    76   121   114   am
    77    58    59    1
    78    58    55    1
    79    26    25    1
    80    26    27    1
    81   136   134   am
    82    61    59   ar
    83    35    30   am
    84    53    51    1
    85    54    55    1
    86    30    29    1
    87    59    60   ar
    88    56    55    1
    89    25    22    1
    90    27    21    1
    91    12    11    1
    92   114   115    2
    93   114   113    1
    94   134   135    2
    95   134   133    1
    96    51    52    1
    97    51    50    2
    98   112   113    1
    99    24    23    2
   100     9    11   ar
   101     9     7   ar
   102    11    10   ar
   103    34    32    1
   104    50    49    1
   105    23    22    1
   106    23    28   am
   107   132   133    1
   108   113   116    1
   109    22    21    1
   110    29    28    1
   111    29    32    1
   112   116   117    1
   113     7     6   ar
   114    32    33    1
   115    10     8   ar
   116    49    48    1
   117   117   118    1
   118   119   118   ar
   119     6     8   ar
   120     6     5    1
   121   118   120   ar
   122    16    15    2
   123    48    47    1
   124     5     2    1
   125    15    14    1
   126    47    44    1
   127    44    43    1
   128    44    45    1
   129     2     3    1
   130     2     1    1
   131    13    14    1
   132    13     3   am
   133    14    17    1
   134    45    46    2
   135     3     4    2
   136    17    18    1
   137    18    20    1
   138    18    19    1
