@<TRIPOS>MOLECULE
tmp/3ty9C04.pdb
 74 69 0 0 0
SMALL
GASTEIGER

@<TRIPOS>ATOM
      1  N         26.1370    4.0120   59.3560 N.3     6  ALA6       -0.1231
      2  CA        26.3490    4.4740   57.9940 C.3     6  ALA6        0.1694
      3  C         27.4940    5.4760   58.0210 C.2     6  ALA6        0.2591
      4  O         27.6650    6.2070   58.9970 O.2     6  ALA6       -0.2718
      5  CB        25.0930    5.1070   57.4390 C.3     6  ALA6        0.0304
      6  N         28.2900    5.4990   56.9620 N.am    7  ALA7       -0.1980
      7  CA        29.4430    6.3850   56.9200 C.3     7  ALA7        0.1597
      8  C         29.1250    7.6680   56.1530 C.2     7  ALA7        0.2287
      9  O         28.2280    7.6880   55.3050 O.2     7  ALA7       -0.2864
     10  CB        30.6420    5.6650   56.3050 C.3     7  ALA7        0.0319
     11  N         29.1960    9.8270   53.3240 N.3     9  PRO9       -0.2116
     12  CA        29.4600    9.4930   51.9200 C.3     9  PRO9        0.1372
     13  C         30.7520   10.1080   51.3800 C.2     9  PRO9        0.2244
     14  O         31.3510    9.5450   50.4690 O.2     9  PRO9       -0.2868
     15  CB        28.2370   10.0580   51.2010 C.3     9  PRO9        0.0268
     16  CG        27.1440    9.9280   52.2150 C.3     9  PRO9        0.0207
     17  CD        27.7980   10.2420   53.5370 C.3     9  PRO9        0.0892
     18  N         33.4850    7.5970   51.1250 N.3    12  LEU12      -0.1245
     19  CA        33.3170    6.4380   50.2510 C.3    12  LEU12       0.1561
     20  C         33.8080    6.6970   48.8200 C.2    12  LEU12       0.2260
     21  O         33.0180    6.9170   47.9020 O.2    12  LEU12      -0.2867
     22  CB        31.8620    5.9510   50.2630 C.3    12  LEU12       0.0270
     23  CG        31.3150    5.5680   51.6410 C.3    12  LEU12       0.0019
     24  CD1       29.9390    4.9400   51.5200 C.3    12  LEU12       0.0001
     25  CD2       32.2740    4.6350   52.3580 C.3    12  LEU12       0.0001
     26  N         34.7070    0.9780   46.9170 N.3    15  LEU15      -0.1245
     27  CA        34.1800   -0.2200   47.5390 C.3    15  LEU15       0.1561
     28  C         34.9330   -1.3820   46.9300 C.2    15  LEU15       0.2260
     29  O         35.1950   -1.3810   45.7280 O.2    15  LEU15      -0.2867
     30  CB        32.6750   -0.3570   47.3050 C.3    15  LEU15       0.0270
     31  CG        31.7780    0.4800   48.2210 C.3    15  LEU15       0.0019
     32  CD1       30.3170    0.0610   48.0940 C.3    15  LEU15       0.0001
     33  CD2       32.2320    0.3680   49.6700 C.3    15  LEU15       0.0001
     34  N         30.5800   -2.7250   52.6620 N.3    89  THR89      -0.1203
     35  CA        29.2430   -2.2350   52.3490 C.3    89  THR89       0.1994
     36  C         29.0490   -0.7810   52.7800 C.2    89  THR89       0.2618
     37  O         27.9200   -0.3240   52.9820 O.2    89  THR89      -0.2717
     38  CB        28.1590   -3.1230   52.9790 C.3    89  THR89       0.1784
     39  OG1       28.4670   -3.3540   54.3620 O.3    89  THR89      -0.2211
     40  CG2       28.0870   -4.4570   52.2520 C.3    89  THR89       0.0376
     41  N         30.1630   -0.0660   52.9190 N.am   90  GLY90      -0.1942
     42  CA        30.1420    1.3630   53.1710 C.3    90  GLY90       0.2014
     43  C         29.7590    1.7610   54.5820 C.2    90  GLY90       0.2638
     44  O         29.3850    2.9150   54.8270 O.2    90  GLY90      -0.2714
     45  N         29.8560    0.8130   55.5130 N.am   91  ARG91      -0.1977
     46  CA        29.5300    1.0750   56.9140 C.3    91  ARG91       0.1597
     47  C         30.7890    1.2050   57.7480 C.2    91  ARG91       0.2287
     48  O         31.8250    0.6430   57.4060 O.2    91  ARG91      -0.2864
     49  CB        28.6650   -0.0450   57.4850 C.3    91  ARG91       0.0334
     50  CG        27.4590   -0.3680   56.6420 C.3    91  ARG91       0.0492
     51  CD        26.5840   -1.3860   57.3160 C.3    91  ARG91       0.2205
     52  NE        25.3270   -1.5520   56.5990 N.pl3  91  ARG91      -0.0865
     53  CZ        24.3010   -2.2620   57.0530 C.cat  91  ARG91       0.5346
     54  NH1       24.3860   -2.8760   58.2320 N.pl3  91  ARG91       0.1354
     55  NH2       23.1880   -2.3550   56.3320 N.pl3  91  ARG91       0.1354
     56  N         28.6680    3.3690   44.2140 N.3   362  PHE362     -0.1241
     57  CA        27.3510    2.8010   44.4750 C.3   362  PHE362      0.1605
     58  C         27.0180    1.7190   43.4570 C.2   362  PHE362      0.2264
     59  O         26.1150    0.9120   43.6700 O.2   362  PHE362     -0.2867
     60  CB        26.2720    3.8840   44.5160 C.3   362  PHE362      0.0534
     61  CG        26.4980    4.9110   45.5860 C.ar  362  PHE362     -0.0203
     62  CD1       27.1690    4.5790   46.7480 C.ar  362  PHE362     -0.0042
     63  CD2       26.0660    6.2140   45.4200 C.ar  362  PHE362     -0.0042
     64  CE1       27.3900    5.5220   47.7240 C.ar  362  PHE362     -0.0003
     65  CE2       26.2870    7.1620   46.4040 C.ar  362  PHE362     -0.0003
     66  CZ        26.9490    6.8140   47.5510 C.ar  362  PHE362     -0.0000
     67  N         28.2190   -1.3950   45.0560 N.3   365  LEU365     -0.1245
     68  CA        27.2230   -1.6990   46.0720 C.3   365  LEU365      0.1561
     69  C         25.9500   -2.3130   45.4690 C.2   365  LEU365      0.2260
     70  O         25.3360   -3.2000   46.0580 O.2   365  LEU365     -0.2867
     71  CB        26.8850   -0.4300   46.8520 C.3   365  LEU365      0.0270
     72  CG        26.0680   -0.5920   48.1270 C.3   365  LEU365      0.0019
     73  CD1       26.8780   -1.3210   49.1520 C.3   365  LEU365      0.0001
     74  CD2       25.6720    0.7670   48.6430 C.3   365  LEU365      0.0001
@<TRIPOS>BOND
     1    58    59    2
     2    58    57    1
     3    56    57    1
     4    57    60    1
     5    60    61    1
     6    67    68    1
     7    63    61   ar
     8    63    65   ar
     9    69    70    2
    10    69    68    1
    11    61    62   ar
    12    29    28    2
    13    68    71    1
    14    65    66   ar
    15    62    64   ar
    16    71    72    1
    17    26    27    1
    18    28    27    1
    19    30    27    1
    20    30    31    1
    21    66    64   ar
    22    21    20    2
    23    32    31    1
    24    72    74    1
    25    72    73    1
    26    31    33    1
    27    20    19    1
    28    19    22    1
    29    19    18    1
    30    22    23    1
    31    14    13    2
    32    15    12    1
    33    15    16    1
    34    13    12    1
    35    24    23    1
    36    23    25    1
    37    12    11    1
    38    16    17    1
    39    40    38    1
    40    35    34    1
    41    35    36    1
    42    35    38    1
    43    36    41   am
    44    36    37    2
    45    41    42    1
    46    38    39    1
    47    42    43    1
    48    11    17    1
    49    43    44    2
    50    43    45   am
    51     9     8    2
    52    45    46    1
    53     8     7    1
    54    10     7    1
    55    55    53    1
    56    52    53    2
    57    52    51    1
    58    50    51    1
    59    50    49    1
    60    46    49    1
    61    46    47    1
    62     7     6    1
    63     6     3   am
    64    53    54    1
    65    48    47    2
    66     5     2    1
    67     2     3    1
    68     2     1    1
    69     3     4    2
