@<TRIPOS>MOLECULE
tmp/3ty9C03.pdb
 94 89 0 0 0
SMALL
GASTEIGER

@<TRIPOS>ATOM
      1  N         29.9900  -23.7790   62.7850 N.3   189  GLN189     -0.1245
      2  CA        29.6840  -23.0580   61.5620 C.3   189  GLN189      0.1566
      3  C         29.2390  -21.6400   61.9130 C.2   189  GLN189      0.2260
      4  O         29.8120  -20.6560   61.4430 O.2   189  GLN189     -0.2867
      5  CB        28.5920  -23.7980   60.7860 C.3   189  GLN189      0.0367
      6  CG        28.4950  -23.4430   59.3130 C.3   189  GLN189      0.0905
      7  CD        27.3450  -24.1560   58.6290 C.2   189  GLN189      0.2608
      8  OE1       26.2420  -23.6170   58.5230 O.2   189  GLN189     -0.2717
      9  NE2       27.5950  -25.3780   58.1670 N.am  189  GLN189     -0.0878
     10  N         32.1540  -19.2500   63.1940 N.3   192  VAL192     -0.1231
     11  CA        32.9670  -18.6150   62.1670 C.3   192  VAL192      0.1692
     12  C         32.1570  -17.5440   61.4460 C.2   192  VAL192      0.2591
     13  O         32.6490  -16.4430   61.2060 O.2   192  VAL192     -0.2718
     14  CB        33.5440  -19.6270   61.1700 C.3   192  VAL192      0.0266
     15  CG1       34.0810  -18.9120   59.9420 C.3   192  VAL192      0.0020
     16  CG2       34.6470  -20.4140   61.8250 C.3   192  VAL192      0.0020
     17  N         30.9080  -17.8600   61.1210 N.am  193  GLU193     -0.1979
     18  CA        30.0330  -16.8740   60.5030 C.3   193  GLU193      0.1602
     19  C         29.9920  -15.6080   61.3340 C.2   193  GLU193      0.2287
     20  O         30.3190  -14.5240   60.8490 O.2   193  GLU193     -0.2864
     21  CB        28.6110  -17.4010   60.3520 C.3   193  GLU193      0.0415
     22  CG        27.6240  -16.2760   60.0800 C.3   193  GLU193      0.1163
     23  CD        26.4030  -16.7240   59.3090 C.2   193  GLU193      0.3649
     24  OE1       25.9150  -17.8480   59.5570 O.co2 193  GLU193     -0.2457
     25  OE2       25.9330  -15.9480   58.4470 O.co2 193  GLU193     -0.2457
     26  N         33.3580  -13.6970   61.5920 N.3   196  ARG196     -0.1231
     27  CA        33.8170  -13.0330   60.3760 C.3   196  ARG196      0.1694
     28  C         32.9940  -11.7890   60.0400 C.2   196  ARG196      0.2591
     29  O         33.4820  -10.8780   59.3760 O.2   196  ARG196     -0.2718
     30  CB        33.8580  -14.0020   59.1890 C.3   196  ARG196      0.0321
     31  CG        34.9010  -15.1130   59.3150 C.3   196  ARG196      0.0489
     32  CD        35.3830  -15.5830   57.9440 C.3   196  ARG196      0.2205
     33  NE        36.3030  -14.6250   57.3250 N.pl3 196  ARG196     -0.0865
     34  CZ        36.6110  -14.6070   56.0290 C.cat 196  ARG196      0.5346
     35  NH1       36.0630  -15.4900   55.2110 N.pl3 196  ARG196      0.1354
     36  NH2       37.4600  -13.7040   55.5450 N.pl3 196  ARG196      0.1354
     37  N         31.7490  -11.7550   60.5050 N.am  197  LYS197     -0.1980
     38  CA        30.8830  -10.5940   60.3090 C.3   197  LYS197      0.1596
     39  C         31.1420   -9.5270   61.3680 C.2   197  LYS197      0.2287
     40  O         30.6530   -8.4040   61.2650 O.2   197  LYS197     -0.2864
     41  CB        29.4090  -11.0120   60.3470 C.3   197  LYS197      0.0298
     42  CG        28.7260  -10.9900   58.9910 C.3   197  LYS197      0.0038
     43  CD        29.5090  -11.8220   57.9830 C.3   197  LYS197      0.0206
     44  CE        29.6850  -11.0930   56.6470 C.3   197  LYS197      0.1093
     45  NZ        30.6450  -11.8040   55.7470 N.3   197  LYS197     -0.1314
     46  N         41.1180  -21.9280   49.3480 N.3   300  ARG300     -0.1245
     47  CA        40.8530  -22.0950   50.7620 C.3   300  ARG300      0.1563
     48  C         41.1170  -23.5040   51.2780 C.2   300  ARG300      0.2260
     49  O         40.7830  -24.4880   50.6240 O.2   300  ARG300     -0.2867
     50  CB        39.4240  -21.6650   51.0530 C.3   300  ARG300      0.0307
     51  CG        39.2160  -20.1960   50.7810 C.3   300  ARG300      0.0489
     52  CD        37.7690  -19.8160   50.9000 C.3   300  ARG300      0.2205
     53  NE        36.9430  -20.5360   49.9420 N.pl3 300  ARG300     -0.0865
     54  CZ        35.6430  -20.3210   49.7860 C.cat 300  ARG300      0.5346
     55  NH1       35.0270  -19.4090   50.5230 N.pl3 300  ARG300      0.1354
     56  NH2       34.9550  -21.0130   48.8970 N.pl3 300  ARG300      0.1354
     57  N         39.0010  -25.4320   56.6820 N.3   304  TYR304     -0.1241
     58  CA        38.1050  -24.2880   56.6710 C.3   304  TYR304      0.1605
     59  C         36.8280  -24.5930   55.8870 C.2   304  TYR304      0.2264
     60  O         35.7160  -24.4060   56.3830 O.2   304  TYR304     -0.2867
     61  CB        38.8230  -23.0600   56.0970 C.3   304  TYR304      0.0534
     62  CG        37.9650  -21.8170   56.0010 C.ar  304  TYR304     -0.0201
     63  CD1       37.8020  -20.9730   57.0860 C.ar  304  TYR304     -0.0009
     64  CD2       37.3320  -21.4840   54.8190 C.ar  304  TYR304     -0.0009
     65  CE1       37.0210  -19.8400   57.0010 C.ar  304  TYR304      0.0417
     66  CE2       36.5570  -20.3580   54.7200 C.ar  304  TYR304      0.0417
     67  CZ        36.4020  -19.5380   55.8120 C.ar  304  TYR304      0.1957
     68  OH        35.6230  -18.4110   55.7000 O.3   304  TYR304     -0.2866
     69  N         32.5400  -24.3850   56.7170 N.3   308  ILE308     -0.1245
     70  CA        31.6590  -23.5390   55.9280 C.3   308  ILE308      0.1561
     71  C         30.6480  -24.3020   55.0690 C.2   308  ILE308      0.2260
     72  O         29.4650  -23.9580   55.0290 O.2   308  ILE308     -0.2867
     73  CB        32.4980  -22.6410   55.0180 C.3   308  ILE308      0.0252
     74  CG1       33.0230  -21.4430   55.8130 C.3   308  ILE308      0.0019
     75  CG2       31.6940  -22.2090   53.7980 C.3   308  ILE308      0.0019
     76  CD1       33.4310  -20.2830   54.9430 C.3   308  ILE308      0.0001
     77  N         26.8840  -18.1880   48.9250 N.3   374  PRO374     -0.2102
     78  CA        27.5870  -17.6070   50.0730 C.3   374  PRO374      0.1504
     79  C         28.8510  -18.3860   50.4050 C.2   374  PRO374      0.2575
     80  O         29.8050  -17.8330   50.9510 O.2   374  PRO374     -0.2718
     81  CB        26.5660  -17.7390   51.2020 C.3   374  PRO374      0.0282
     82  CG        25.2410  -17.8240   50.5050 C.3   374  PRO374      0.0208
     83  CD        25.5180  -18.6090   49.2700 C.3   374  PRO374      0.0893
     84  N         28.8520  -19.6640   50.0540 N.am  375  ARG375     -0.1980
     85  CA        29.9700  -20.5450   50.3530 C.3   375  ARG375      0.1597
     86  C         31.1880  -20.2790   49.4650 C.2   375  ARG375      0.2287
     87  O         32.2840  -20.7670   49.7420 O.2   375  ARG375     -0.2864
     88  CB        29.5210  -22.0010   50.2370 C.3   375  ARG375      0.0334
     89  CG        28.4470  -22.3770   51.2380 C.3   375  ARG375      0.0492
     90  CD        27.8000  -23.6930   50.8830 C.3   375  ARG375      0.2205
     91  NE        27.1530  -23.6320   49.5790 N.pl3 375  ARG375     -0.0865
     92  CZ        26.5990  -24.6780   48.9770 C.cat 375  ARG375      0.5346
     93  NH1       26.6120  -25.8690   49.5670 N.pl3 375  ARG375      0.1354
     94  NH2       26.0260  -24.5310   47.7900 N.pl3 375  ARG375      0.1354
@<TRIPOS>BOND
     1    94    92    1
     2    56    54    1
     3    77    83    1
     4    77    78    1
     5    92    93    1
     6    92    91    2
     7    83    82    1
     8    46    47    1
     9    86    87    2
    10    86    85    1
    11    91    90    1
    12    54    53    2
    13    54    55    1
    14    53    52    1
    15    84    85    1
    16    84    79   am
    17    78    79    1
    18    78    81    1
    19    88    85    1
    20    88    89    1
    21    79    80    2
    22    82    81    1
    23    49    48    2
    24    47    50    1
    25    47    48    1
    26    51    52    1
    27    51    50    1
    28    90    89    1
    29    75    73    1
    30    66    64   ar
    31    66    67   ar
    32    64    62   ar
    33    76    74    1
    34    73    74    1
    35    73    70    1
    36    72    71    2
    37    71    70    1
    38    35    34    1
    39    36    34    1
    40    68    67    1
    41    45    44    1
    42    67    65   ar
    43    59    60    2
    44    59    58    1
    45    70    69    1
    46    62    61    1
    47    62    63   ar
    48    34    33    2
    49    61    58    1
    50    44    43    1
    51    58    57    1
    52    65    63   ar
    53    33    32    1
    54    32    31    1
    55    43    42    1
    56     9     7   am
    57    25    23   ar
    58     8     7    2
    59     7     6    1
    60    42    41    1
    61    30    31    1
    62    30    27    1
    63    23    24   ar
    64    23    22    1
    65     6     5    1
    66    29    28    2
    67    15    14    1
    68    28    27    1
    69    28    37   am
    70    22    21    1
    71    38    41    1
    72    38    37    1
    73    38    39    1
    74    21    18    1
    75    27    26    1
    76    18    17    1
    77    18    19    1
    78     5     2    1
    79    20    19    2
    80    17    12   am
    81    14    16    1
    82    14    11    1
    83    13    12    2
    84    40    39    2
    85     4     3    2
    86    12    11    1
    87     2     3    1
    88     2     1    1
    89    11    10    1
