@<TRIPOS>MOLECULE
tmp/3ty9A04.pdb
 94 91 0 0 0
SMALL
GASTEIGER

@<TRIPOS>ATOM
      1  N         48.6110   23.5940    0.5730 N.3    24  THR24      -0.1203
      2  CA        49.4910   24.2240    1.5530 C.3    24  THR24       0.1994
      3  C         49.9220   25.6440    1.1490 C.2    24  THR24       0.2619
      4  O         50.6040   25.8350    0.1410 O.2    24  THR24      -0.2717
      5  CB        50.7280   23.3550    1.8330 C.3    24  THR24       0.1784
      6  OG1       51.7300   23.6070    0.8450 O.3    24  THR24      -0.2211
      7  CG2       50.3550   21.9000    1.7770 C.3    24  THR24       0.0376
      8  N         49.5060   26.6340    1.9370 N.am   25  SER25      -0.1937
      9  CA        49.9370   28.0140    1.7370 C.3    25  SER25       0.2055
     10  C         51.4170   28.1070    1.3970 C.2    25  SER25       0.2643
     11  O         52.2530   27.4840    2.0530 O.2    25  SER25      -0.2714
     12  CB        49.6800   28.8420    2.9910 C.3    25  SER25       0.2130
     13  OG        50.3490   30.0900    2.8990 O.3    25  SER25      -0.2179
     14  N         51.7400   28.9040    0.3830 N.am   26  LYS26      -0.1963
     15  CA        53.1320   29.0910   -0.0080 C.3    26  LYS26       0.1728
     16  C         53.8180   30.1920    0.8030 C.2    26  LYS26       0.2616
     17  O         54.8550   30.7110    0.3940 O.2    26  LYS26      -0.2715
     18  CB        53.2590   29.3480   -1.5170 C.3    26  LYS26       0.0311
     19  CG        53.1100   28.0900   -2.3700 C.3    26  LYS26       0.0038
     20  CD        53.3930   28.3430   -3.8540 C.3    26  LYS26       0.0206
     21  CE        52.2070   28.9840   -4.5820 C.3    26  LYS26       0.1093
     22  NZ        52.3430   28.9070   -6.0760 N.3    26  LYS26      -0.1314
     23  N         53.2380   30.5380    1.9520 N.am   27  LYS27      -0.1963
     24  CA        53.8800   31.4460    2.9010 C.3    27  LYS27       0.1728
     25  C         54.7950   30.6560    3.8200 C.2    27  LYS27       0.2616
     26  O         54.4640   29.5380    4.2150 O.2    27  LYS27      -0.2715
     27  CB        52.8400   32.1830    3.7360 C.3    27  LYS27       0.0311
     28  CG        51.8420   32.9710    2.9250 C.3    27  LYS27       0.0038
     29  CD        50.9420   33.8090    3.8150 C.3    27  LYS27       0.0206
     30  CE        51.3190   35.2850    3.7710 C.3    27  LYS27       0.1093
     31  NZ        51.0640   35.9080    2.4330 N.3    27  LYS27      -0.1314
     32  N         55.9430   31.2280    4.1670 N.am   28  GLU28      -0.1963
     33  CA        56.8990   30.5130    5.0030 C.3    28  GLU28       0.1733
     34  C         56.3450   30.3130    6.4080 C.2    28  GLU28       0.2617
     35  O         55.8140   31.2470    7.0100 O.2    28  GLU28      -0.2715
     36  CB        58.2430   31.2440    5.0610 C.3    28  GLU28       0.0429
     37  CG        59.3350   30.4230    5.7380 C.3    28  GLU28       0.1163
     38  CD        60.6460   31.1740    5.8940 C.2    28  GLU28       0.3649
     39  OE1       60.6580   32.4130    5.7070 O.co2  28  GLU28      -0.2457
     40  OE2       61.6660   30.5170    6.2060 O.co2  28  GLU28      -0.2457
     41  N         56.4600   29.0890    6.9200 N.am   29  GLY29      -0.1940
     42  CA        56.0230   28.7750    8.2710 C.3    29  GLY29       0.2014
     43  C         54.5170   28.6850    8.4170 C.2    29  GLY29       0.2639
     44  O         53.9850   28.6120    9.5260 O.2    29  GLY29      -0.2714
     45  N         53.8270   28.6810    7.2860 N.am   30  MET30      -0.1963
     46  CA        52.3750   28.6140    7.2820 C.3    30  MET30       0.1736
     47  C         51.8550   27.4530    6.4370 C.2    30  MET30       0.2616
     48  O         52.3790   27.1590    5.3580 O.2    30  MET30      -0.2715
     49  CB        51.7930   29.9360    6.7880 C.3    30  MET30       0.0427
     50  CG        52.1690   31.1100    7.6640 C.3    30  MET30       0.0599
     51  SD        51.4220   30.9980    9.3000 S.3    30  MET30      -0.1393
     52  CE        49.8140   31.7360    8.9980 C.3    30  MET30       0.0692
     53  N         50.8210   26.7930    6.9460 N.am   31  LEU31      -0.1977
     54  CA        50.2010   25.6870    6.2390 C.3    31  LEU31       0.1596
     55  C         48.8930   26.1310    5.6160 C.2    31  LEU31       0.2287
     56  O         48.5160   25.6630    4.5540 O.2    31  LEU31      -0.2864
     57  CB        49.9700   24.4980    7.1750 C.3    31  LEU31       0.0297
     58  CG        51.2110   23.7010    7.5870 C.3    31  LEU31       0.0022
     59  CD1       50.8150   22.3570    8.1710 C.3    31  LEU31       0.0001
     60  CD2       52.1250   23.5000    6.4030 C.3    31  LEU31       0.0001
     61  N         57.6210   20.9240    7.0860 N.3   315  MET315     -0.1230
     62  CA        57.7820   19.8360    6.1330 C.3   315  MET315      0.1702
     63  C         58.6330   20.2840    4.9500 C.2   315  MET315      0.2592
     64  O         58.8000   21.4850    4.7140 O.2   315  MET315     -0.2718
     65  CB        56.4050   19.4130    5.6370 C.3   315  MET315      0.0401
     66  CG        55.5460   20.5980    5.2150 C.3   315  MET315      0.0596
     67  SD        53.8000   20.1950    5.0430 S.3   315  MET315     -0.1393
     68  CE        53.4360   19.5650    6.6810 C.3   315  MET315      0.0692
     69  N         59.1650   19.3150    4.2100 N.am  316  ASP316     -0.1960
     70  CA        59.9400   19.5990    3.0030 C.3   316  ASP316      0.1840
     71  C         59.0910   19.4880    1.7340 C.2   316  ASP316      0.2621
     72  O         57.9360   19.0630    1.7820 O.2   316  ASP316     -0.2715
     73  CB        61.1650   18.6820    2.9130 C.3   316  ASP316      0.1450
     74  CG        60.8020   17.2070    2.9460 C.2   316  ASP316      0.3671
     75  OD1       59.7460   16.8390    2.3890 O.co2 316  ASP316     -0.2456
     76  OD2       61.5750   16.4140    3.5280 O.co2 316  ASP316     -0.2456
     77  N         59.6780   19.8600    0.6000 N.am  317  GLU317     -0.1977
     78  CA        58.9430   19.9810   -0.6650 C.3   317  GLU317      0.1602
     79  C         58.0930   18.7630   -1.0550 C.2   317  GLU317      0.2287
     80  O         57.0350   18.9160   -1.6670 O.2   317  GLU317     -0.2864
     81  CB        59.8900   20.3630   -1.8160 C.3   317  GLU317      0.0415
     82  CG        60.1990   21.8590   -1.9300 C.3   317  GLU317      0.1163
     83  CD        61.0180   22.4010   -0.7620 C.2   317  GLU317      0.3649
     84  OE1       62.0250   21.7620   -0.3790 O.co2 317  GLU317     -0.2457
     85  OE2       60.6520   23.4720   -0.2250 O.co2 317  GLU317     -0.2457
     86  N         55.1880   17.9850    1.3960 N.3   320  GLU320     -0.1245
     87  CA        54.2500   19.0560    1.1390 C.3   320  GLU320      0.1567
     88  C         53.3740   18.6540   -0.0340 C.2   320  GLU320      0.2260
     89  O         52.1510   18.6230    0.0750 O.2   320  GLU320     -0.2867
     90  CB        55.0000   20.3520    0.8380 C.3   320  GLU320      0.0388
     91  CG        54.1270   21.5920    0.7890 C.3   320  GLU320      0.1160
     92  CD        54.9400   22.8610    0.6060 C.2   320  GLU320      0.3649
     93  OE1       56.1410   22.8480    0.9590 O.co2 320  GLU320     -0.2457
     94  OE2       54.3850   23.8670    0.1070 O.co2 320  GLU320     -0.2457
@<TRIPOS>BOND
     1    22    21    1
     2    21    20    1
     3    20    19    1
     4    19    18    1
     5    82    81    1
     6    82    83    1
     7    81    78    1
     8    80    79    2
     9    18    15    1
    10    79    78    1
    11    83    84   ar
    12    83    85   ar
    13    78    77    1
    14    88    89    2
    15    88    87    1
    16    15    14    1
    17    15    16    1
    18    94    92   ar
    19     4     3    2
    20    14    10   am
    21    17    16    2
    22     1     2    1
    23    77    71   am
    24    92    91    1
    25    92    93   ar
    26    91    90    1
    27    16    23   am
    28    90    87    1
    29     6     5    1
    30    87    86    1
    31     3     2    1
    32     3     8   am
    33    10     9    1
    34    10    11    2
    35     2     5    1
    36    71    72    2
    37    71    70    1
    38     9     8    1
    39     9    12    1
    40     7     5    1
    41    23    24    1
    42    75    74   ar
    43    31    30    1
    44    13    12    1
    45    24    27    1
    46    24    25    1
    47    73    74    1
    48    73    70    1
    49    28    27    1
    50    28    29    1
    51    74    76   ar
    52    70    69    1
    53    30    29    1
    54    25    32   am
    55    25    26    2
    56    32    33    1
    57    69    63   am
    58    56    55    2
    59    64    63    2
    60    63    62    1
    61    33    36    1
    62    33    34    1
    63    67    66    1
    64    67    68    1
    65    36    37    1
    66    66    65    1
    67    48    47    2
    68    55    54    1
    69    65    62    1
    70    39    38   ar
    71    37    38    1
    72    38    40   ar
    73    62    61    1
    74    54    53    1
    75    54    57    1
    76    60    58    1
    77    34    41   am
    78    34    35    2
    79    47    53   am
    80    47    46    1
    81    49    46    1
    82    49    50    1
    83    41    42    1
    84    57    58    1
    85    46    45    1
    86    45    43   am
    87    58    59    1
    88    50    51    1
    89    42    43    1
    90    43    44    2
    91    52    51    1
