@<TRIPOS>MOLECULE
tmp/3ty9B03.pdb
 95 92 0 0 0
SMALL
GASTEIGER

@<TRIPOS>ATOM
      1  N         42.8870  -26.0010   11.4750 N.3   119  ASP119     -0.1225
      2  CA        42.2610  -26.6950   10.3490 C.3   119  ASP119      0.1805
      3  C         41.7300  -25.7610    9.2510 C.2   119  ASP119      0.2598
      4  O         41.7390  -26.1160    8.0690 O.2   119  ASP119     -0.2718
      5  CB        41.1510  -27.6330   10.8410 C.3   119  ASP119      0.1424
      6  CG        41.6630  -28.6790   11.8150 C.2   119  ASP119      0.3668
      7  OD1       42.8590  -29.0350   11.7430 O.co2 119  ASP119     -0.2456
      8  OD2       40.8690  -29.1450   12.6570 O.co2 119  ASP119     -0.2456
      9  N         41.2620  -24.5780    9.6360 N.am  120  PHE120     -0.1962
     10  CA        40.7830  -23.6040    8.6600 C.3   120  PHE120      0.1771
     11  C         41.8730  -22.6010    8.3160 C.2   120  PHE120      0.2619
     12  O         41.6470  -21.6620    7.5420 O.2   120  PHE120     -0.2715
     13  CB        39.5610  -22.8630    9.1880 C.3   120  PHE120      0.0574
     14  CG        38.2670  -23.5680    8.9370 C.ar  120  PHE120     -0.0200
     15  CD1       37.8530  -24.5970    9.7620 C.ar  120  PHE120     -0.0042
     16  CD2       37.4590  -23.1930    7.8770 C.ar  120  PHE120     -0.0042
     17  CE1       36.6550  -25.2400    9.5340 C.ar  120  PHE120     -0.0003
     18  CE2       36.2600  -23.8310    7.6420 C.ar  120  PHE120     -0.0003
     19  CZ        35.8560  -24.8560    8.4710 C.ar  120  PHE120     -0.0000
     20  N         43.0520  -22.8100    8.8970 N.am  121  ASN121     -0.1972
     21  CA        44.1740  -21.9020    8.7050 C.3   121  ASN121      0.1688
     22  C         43.6990  -20.4480    8.7200 C.2   121  ASN121      0.2292
     23  O         43.6620  -19.7760    7.6830 O.2   121  ASN121     -0.2864
     24  CB        44.9080  -22.2200    7.4040 C.3   121  ASN121      0.1181
     25  CG        46.2820  -21.5880    7.3440 C.2   121  ASN121      0.2629
     26  OD1       46.8780  -21.2670    8.3760 O.2   121  ASN121     -0.2716
     27  ND2       46.7940  -21.4020    6.1320 N.am  121  ASN121     -0.0877
     28  N         36.3870  -17.2350    6.8160 N.3   216  THR216     -0.1218
     29  CA        37.6280  -17.2540    7.5820 C.3   216  THR216      0.1862
     30  C         38.7010  -16.5850    6.7520 C.2   216  THR216      0.2287
     31  O         38.4000  -15.9600    5.7400 O.2   216  THR216     -0.2866
     32  CB        38.0930  -18.6770    7.9680 C.3   216  THR216      0.1770
     33  OG1       38.0370  -19.5390    6.8230 O.3   216  THR216     -0.2211
     34  CG2       37.2350  -19.2440    9.1010 C.3   216  THR216      0.0375
     35  N         38.8670  -16.7960    2.5340 N.3   219  LYS219     -0.1245
     36  CA        37.8130  -17.5900    1.9120 C.3   219  LYS219      0.1561
     37  C         36.4250  -17.2800    2.4650 C.2   219  LYS219      0.2260
     38  O         36.2420  -17.1680    3.6770 O.2   219  LYS219     -0.2867
     39  CB        38.1150  -19.0840    2.0770 C.3   219  LYS219      0.0271
     40  CG        37.0000  -20.0150    1.6060 C.3   219  LYS219      0.0035
     41  CD        37.0060  -20.2520    0.1000 C.3   219  LYS219      0.0206
     42  CE        37.8700  -21.4530   -0.2770 C.3   219  LYS219      0.1093
     43  NZ        37.6330  -21.8940   -1.6880 N.3   219  LYS219     -0.1314
     44  N         33.0060  -19.1390    2.7140 N.3   221  HIS221     -0.1241
     45  CA        32.5220  -20.5090    2.5620 C.3   221  HIS221      0.1621
     46  C         31.0930  -20.5950    2.0320 C.2   221  HIS221      0.2264
     47  O         30.3080  -21.4310    2.4840 O.2   221  HIS221     -0.2867
     48  CB        32.6680  -21.2680    3.8790 C.3   221  HIS221      0.0745
     49  CG        34.0360  -21.1570    4.4690 C.ar  221  HIS221      0.0817
     50  ND1       35.1060  -21.8910    4.0070 N.ar  221  HIS221     -0.2268
     51  CD2       34.5200  -20.3690    5.4580 C.ar  221  HIS221      0.1154
     52  CE1       36.1870  -21.5770    4.6990 C.ar  221  HIS221      0.1986
     53  NE2       35.8580  -20.6550    5.5860 N.ar  221  HIS221     -0.2212
     54  N         30.4960  -24.1330    0.1100 N.3   224  LYS224     -0.1245
     55  CA        30.0740  -25.3200    0.8490 C.3   224  LYS224      0.1561
     56  C         28.5570  -25.3980    1.0010 C.2   224  LYS224      0.2260
     57  O         27.8710  -24.3790    1.0930 O.2   224  LYS224     -0.2867
     58  CB        30.7360  -25.3770    2.2240 C.3   224  LYS224      0.0271
     59  CG        32.1680  -25.8830    2.2160 C.3   224  LYS224      0.0035
     60  CD        33.1440  -24.8160    1.7630 C.3   224  LYS224      0.0206
     61  CE        34.5890  -25.2730    1.9500 C.3   224  LYS224      0.1093
     62  NZ        35.5670  -24.2020    1.5840 N.3   224  LYS224     -0.1314
     63  N         27.2480  -29.2480    5.0120 N.3   228  TRP228     -0.1241
     64  CA        28.6110  -28.9610    5.4310 C.3   228  TRP228      0.1605
     65  C         28.5710  -27.9680    6.5750 C.2   228  TRP228      0.2264
     66  O         29.2290  -28.1520    7.5980 O.2   228  TRP228     -0.2867
     67  CB        29.4330  -28.3830    4.2880 C.3   228  TRP228      0.0550
     68  CG        30.8360  -28.0430    4.6930 C.ar  228  TRP228      0.0003
     69  CD1       31.9220  -28.8690    4.6660 C.ar  228  TRP228      0.0946
     70  CD2       31.3030  -26.7860    5.1870 C.ar  228  TRP228      0.0152
     71  NE1       33.0400  -28.2030    5.1080 N.ar  228  TRP228     -0.2442
     72  CE2       32.6870  -26.9210    5.4330 C.ar  228  TRP228      0.0810
     73  CE3       30.6880  -25.5580    5.4450 C.ar  228  TRP228      0.0012
     74  CZ2       33.4630  -25.8750    5.9240 C.ar  228  TRP228      0.0191
     75  CZ3       31.4590  -24.5200    5.9310 C.ar  228  TRP228      0.0001
     76  CH2       32.8330  -24.6860    6.1680 C.ar  228  TRP228      0.0015
     77  N         29.8790  -28.9980   10.1020 N.3   232  THR232     -0.1218
     78  CA        31.1380  -28.3470   10.4570 C.3   232  THR232      0.1862
     79  C         30.9730  -27.4690   11.6870 C.2   232  THR232      0.2287
     80  O         31.8360  -27.4510   12.5680 O.2   232  THR232     -0.2866
     81  CB        31.6890  -27.4890    9.3080 C.3   232  THR232      0.1770
     82  OG1       31.8240  -28.2900    8.1270 O.3   232  THR232     -0.2211
     83  CG2       33.0480  -26.9190    9.6900 C.3   232  THR232      0.0375
     84  N         32.8500  -28.1770   15.2430 N.3   236  TYR236     -0.1241
     85  CA        33.9240  -27.2840   15.6610 C.3   236  TYR236      0.1605
     86  C         33.5860  -26.3150   16.7940 C.2   236  TYR236      0.2264
     87  O         34.4940  -25.7260   17.3840 O.2   236  TYR236     -0.2867
     88  CB        34.4820  -26.5170   14.4650 C.3   236  TYR236      0.0534
     89  CG        35.5380  -27.2640   13.6860 C.ar  236  TYR236     -0.0201
     90  CD1       36.8340  -27.3880   14.1780 C.ar  236  TYR236     -0.0009
     91  CD2       35.2480  -27.8250   12.4480 C.ar  236  TYR236     -0.0009
     92  CE1       37.8090  -28.0670   13.4660 C.ar  236  TYR236      0.0417
     93  CE2       36.2170  -28.5030   11.7250 C.ar  236  TYR236      0.0417
     94  CZ        37.4950  -28.6220   12.2380 C.ar  236  TYR236      0.1957
     95  OH        38.4590  -29.2890   11.5180 O.3   236  TYR236     -0.2866
@<TRIPOS>BOND
     1    43    42    1
     2    42    41    1
     3    41    40    1
     4    54    55    1
     5    55    56    1
     6    55    58    1
     7    56    57    2
     8    62    61    1
     9    40    39    1
    10    60    61    1
    11    60    59    1
    12    36    39    1
    13    36    37    1
    14    36    35    1
    15    46    47    2
    16    46    45    1
    17    59    58    1
    18    37    38    2
    19    45    44    1
    20    45    48    1
    21    48    49    1
    22    50    49   ar
    23    50    52   ar
    24    67    68    1
    25    67    64    1
    26    49    51   ar
    27    69    68   ar
    28    69    71   ar
    29    68    70   ar
    30    52    53   ar
    31    63    64    1
    32    71    72   ar
    33    70    72   ar
    34    70    73   ar
    35    64    65    1
    36    72    74   ar
    37    73    75   ar
    38    51    53   ar
    39    31    30    2
    40    74    76   ar
    41    75    76   ar
    42    27    25   am
    43    65    66    2
    44    30    29    1
    45    28    29    1
    46    33    32    1
    47    25    24    1
    48    25    26    2
    49    24    21    1
    50    12    11    2
    51    29    32    1
    52    18    16   ar
    53    18    19   ar
    54    23    22    2
    55    16    14   ar
    56    32    34    1
    57     4     3    2
    58    82    81    1
    59    11    10    1
    60    11    20   am
    61    19    17   ar
    62    10    13    1
    63    10     9    1
    64    21    22    1
    65    21    20    1
    66    14    13    1
    67    14    15   ar
    68     3     9   am
    69     3     2    1
    70    81    83    1
    71    81    78    1
    72    17    15   ar
    73    77    78    1
    74     2     5    1
    75     2     1    1
    76    78    79    1
    77     5     6    1
    78    95    94    1
    79    79    80    2
    80    93    94   ar
    81    93    91   ar
    82     7     6   ar
    83     6     8   ar
    84    94    92   ar
    85    91    89   ar
    86    92    90   ar
    87    89    90   ar
    88    89    88    1
    89    88    85    1
    90    84    85    1
    91    85    86    1
    92    86    87    2
