@<TRIPOS>MOLECULE
tmp/3ty9C02.pdb
 119 113 0 0 0
SMALL
GASTEIGER

@<TRIPOS>ATOM
      1  N         41.9140  -14.4490   58.0640 N.3    56  MET56      -0.1245
      2  CA        40.5280  -14.7650   58.3710 C.3    56  MET56       0.1570
      3  C         39.8970  -13.7080   59.2550 C.2    56  MET56       0.2261
      4  O         40.0440  -13.7350   60.4740 O.2    56  MET56      -0.2867
      5  CB        40.3860  -16.1490   59.0060 C.3    56  MET56       0.0387
      6  CG        38.9480  -16.6410   59.0130 C.3    56  MET56       0.0595
      7  SD        38.7180  -18.1620   59.9340 S.3    56  MET56      -0.1393
      8  CE        39.3130  -17.6700   61.5500 C.3    56  MET56       0.0692
      9  N         40.6020  -10.4000   66.7590 N.3   134  TRP134     -0.1241
     10  CA        41.0810  -11.5560   67.5050 C.3   134  TRP134      0.1605
     11  C         41.1920  -11.2320   69.0020 C.2   134  TRP134      0.2264
     12  O         42.2820  -11.0270   69.5470 O.2   134  TRP134     -0.2867
     13  CB        42.4030  -12.0830   66.9220 C.3   134  TRP134      0.0550
     14  CG        42.6560  -13.5490   67.2100 C.ar  134  TRP134      0.0003
     15  CD1       43.6730  -14.0740   67.9540 C.ar  134  TRP134      0.0946
     16  CD2       41.8650  -14.6660   66.7690 C.ar  134  TRP134      0.0152
     17  NE1       43.5670  -15.4470   68.0020 N.ar  134  TRP134     -0.2442
     18  CE2       42.4660  -15.8340   67.2840 C.ar  134  TRP134      0.0810
     19  CE3       40.7100  -14.7930   65.9930 C.ar  134  TRP134      0.0012
     20  CZ2       41.9520  -17.1090   67.0430 C.ar  134  TRP134      0.0191
     21  CZ3       40.2010  -16.0590   65.7570 C.ar  134  TRP134      0.0001
     22  CH2       40.8200  -17.1990   66.2810 C.ar  134  TRP134      0.0015
     23  N         36.4450  -20.0300   69.5350 N.3   142  LEU142     -0.1231
     24  CA        36.6270  -20.7090   68.2640 C.3   142  LEU142      0.1693
     25  C         37.4360  -21.9940   68.4290 C.2   142  LEU142      0.2591
     26  O         37.0030  -23.0630   68.0040 O.2   142  LEU142     -0.2718
     27  CB        37.3060  -19.7860   67.2440 C.3   142  LEU142      0.0284
     28  CG        36.4920  -18.6870   66.5500 C.3   142  LEU142      0.0019
     29  CD1       37.4110  -17.8430   65.6850 C.3   142  LEU142      0.0001
     30  CD2       35.3410  -19.2630   65.7210 C.3   142  LEU142      0.0001
     31  N         38.6100  -21.8880   69.0440 N.am  143  GLU143     -0.1979
     32  CA        39.4960  -23.0350   69.1940 C.3   143  GLU143      0.1602
     33  C         38.8380  -24.1900   69.9370 C.2   143  GLU143      0.2287
     34  O         38.9050  -25.3380   69.4910 O.2   143  GLU143     -0.2864
     35  CB        40.7920  -22.6400   69.8950 C.3   143  GLU143      0.0415
     36  CG        41.6990  -21.7430   69.0710 C.3   143  GLU143      0.1163
     37  CD        42.9560  -21.3320   69.8270 C.2   143  GLU143      0.3649
     38  OE1       43.1920  -21.8810   70.9290 O.co2 143  GLU143     -0.2457
     39  OE2       43.7040  -20.4590   69.3250 O.co2 143  GLU143     -0.2457
     40  N         36.1880  -25.9200   67.7920 N.3   146  TYR146     -0.1241
     41  CA        36.8680  -26.6820   66.7500 C.3   146  TYR146      0.1605
     42  C         37.3920  -27.9690   67.3540 C.2   146  TYR146      0.2264
     43  O         37.2350  -29.0420   66.7770 O.2   146  TYR146     -0.2867
     44  CB        38.0270  -25.8760   66.1730 C.3   146  TYR146      0.0534
     45  CG        38.7510  -26.5450   65.0290 C.ar  146  TYR146     -0.0201
     46  CD1       38.0510  -27.1590   63.9970 C.ar  146  TYR146     -0.0009
     47  CD2       40.1370  -26.5320   64.9640 C.ar  146  TYR146     -0.0009
     48  CE1       38.7130  -27.7570   62.9400 C.ar  146  TYR146      0.0417
     49  CE2       40.8080  -27.1210   63.9120 C.ar  146  TYR146      0.0417
     50  CZ        40.0940  -27.7340   62.9020 C.ar  146  TYR146      0.1957
     51  OH        40.7720  -28.3280   61.8600 O.3   146  TYR146     -0.2866
     52  N         29.9300  -24.7130   65.3140 N.3   188  MET188     -0.1245
     53  CA        31.2210  -24.2640   64.8050 C.3   188  MET188      0.1570
     54  C         31.0260  -23.4440   63.5390 C.2   188  MET188      0.2261
     55  O         31.7930  -22.5280   63.2480 O.2   188  MET188     -0.2867
     56  CB        32.1430  -25.4550   64.5180 C.3   188  MET188      0.0387
     57  CG        33.5220  -25.0540   63.9930 C.3   188  MET188      0.0595
     58  SD        34.4760  -24.1080   65.2000 S.3   188  MET188     -0.1393
     59  CE        35.8050  -23.4520   64.2080 C.3   188  MET188      0.0692
     60  N         32.1540  -19.2500   63.1940 N.3   192  VAL192     -0.1245
     61  CA        32.9670  -18.6150   62.1670 C.3   192  VAL192      0.1561
     62  C         32.1570  -17.5440   61.4460 C.2   192  VAL192      0.2260
     63  O         32.6490  -16.4430   61.2060 O.2   192  VAL192     -0.2867
     64  CB        33.5440  -19.6270   61.1700 C.3   192  VAL192      0.0252
     65  CG1       34.0810  -18.9120   59.9420 C.3   192  VAL192      0.0019
     66  CG2       34.6470  -20.4140   61.8250 C.3   192  VAL192      0.0019
     67  N         47.8890  -23.7180   55.7080 N.3   273  THR273     -0.1218
     68  CA        46.5120  -24.1770   55.6780 C.3   273  THR273      0.1862
     69  C         46.2910  -25.1760   56.8120 C.2   273  THR273      0.2287
     70  O         45.2130  -25.2300   57.4080 O.2   273  THR273     -0.2866
     71  CB        46.1470  -24.8260   54.3290 C.3   273  THR273      0.1770
     72  OG1       44.7270  -24.8120   54.1680 O.3   273  THR273     -0.2211
     73  CG2       46.6400  -26.2710   54.2580 C.3   273  THR273      0.0375
     74  N         46.3530  -23.7330   60.7460 N.3   276  GLY276     -0.1210
     75  CA        45.2650  -22.8800   61.1970 C.3   276  GLY276      0.1956
     76  C         44.8050  -21.7970   60.2340 C.2   276  GLY276      0.2612
     77  O         43.6980  -21.2740   60.3770 O.2   276  GLY276     -0.2717
     78  N         45.6510  -21.4540   59.2640 N.am  277  GLY277     -0.1942
     79  CA        45.3260  -20.4430   58.2680 C.3   277  GLY277      0.2014
     80  C         44.0750  -20.7960   57.4850 C.2   277  GLY277      0.2638
     81  O         43.7210  -21.9720   57.3660 O.2   277  GLY277     -0.2714
     82  N         43.4000  -19.7820   56.9530 N.am  278  GLU278     -0.1977
     83  CA        42.1640  -20.0060   56.2140 C.3   278  GLU278      0.1602
     84  C         42.4680  -20.4590   54.8000 C.2   278  GLU278      0.2287
     85  O         41.7440  -21.2660   54.2180 O.2   278  GLU278     -0.2864
     86  CB        41.3250  -18.7350   56.1570 C.3   278  GLU278      0.0415
     87  CG        40.0290  -18.9140   55.3900 C.3   278  GLU278      0.1163
     88  CD        39.4370  -17.5990   54.9180 C.2   278  GLU278      0.3649
     89  OE1       40.0920  -16.5480   55.0820 O.co2 278  GLU278     -0.2457
     90  OE2       38.3140  -17.6170   54.3730 O.co2 278  GLU278     -0.2457
     91  N         40.2280  -27.7760   55.7970 N.3   303  GLU303     -0.1231
     92  CA        39.6420  -27.7180   57.1210 C.3   303  GLU303      0.1699
     93  C         38.6310  -26.5920   57.2110 C.2   303  GLU303      0.2592
     94  O         37.5270  -26.7830   57.7220 O.2   303  GLU303     -0.2718
     95  CB        40.7240  -27.6120   58.1880 C.3   303  GLU303      0.0402
     96  CG        41.3800  -28.9460   58.4520 C.3   303  GLU303      0.1161
     97  CD        40.3510  -30.0600   58.6240 C.2   303  GLU303      0.3649
     98  OE1       39.2800  -29.8060   59.2240 O.co2 303  GLU303     -0.2457
     99  OE2       40.6080  -31.1850   58.1430 O.co2 303  GLU303     -0.2457
    100  N         39.0010  -25.4320   56.6820 N.am  304  TYR304     -0.1976
    101  CA        38.1050  -24.2880   56.6710 C.3   304  TYR304      0.1639
    102  C         36.8280  -24.5930   55.8870 C.2   304  TYR304      0.2290
    103  O         35.7160  -24.4060   56.3830 O.2   304  TYR304     -0.2864
    104  CB        38.8230  -23.0600   56.0970 C.3   304  TYR304      0.0560
    105  CG        37.9650  -21.8170   56.0010 C.ar  304  TYR304     -0.0198
    106  CD1       37.8020  -20.9730   57.0860 C.ar  304  TYR304     -0.0009
    107  CD2       37.3320  -21.4840   54.8190 C.ar  304  TYR304     -0.0009
    108  CE1       37.0210  -19.8400   57.0010 C.ar  304  TYR304      0.0417
    109  CE2       36.5570  -20.3580   54.7200 C.ar  304  TYR304      0.0417
    110  CZ        36.4020  -19.5380   55.8120 C.ar  304  TYR304      0.1957
    111  OH        35.6230  -18.4110   55.7000 O.3   304  TYR304     -0.2866
    112  N         34.0500  -26.7010   57.4040 N.3   307  ILE307     -0.1245
    113  CA        33.2110  -25.9820   58.3640 C.3   307  ILE307      0.1561
    114  C         32.1100  -25.2540   57.6230 C.2   307  ILE307      0.2260
    115  O         30.9230  -25.4690   57.8610 O.2   307  ILE307     -0.2867
    116  CB        34.0160  -24.9030   59.1290 C.3   307  ILE307      0.0252
    117  CG1       34.9520  -25.5240   60.1660 C.3   307  ILE307      0.0019
    118  CG2       33.0790  -23.9090   59.8040 C.3   307  ILE307      0.0019
    119  CD1       35.9130  -24.5140   60.7700 C.3   307  ILE307      0.0001
@<TRIPOS>BOND
     1    72    71    1
     2    85    84    2
     3    73    71    1
     4    71    68    1
     5    90    88   ar
     6   109   107   ar
     7   109   110   ar
     8    84    83    1
     9   107   105   ar
    10    88    89   ar
    11    88    87    1
    12    87    86    1
    13    68    67    1
    14    68    69    1
    15   111   110    1
    16    91    92    1
    17   110   108   ar
    18   102   103    2
    19   102   101    1
    20   105   104    1
    21   105   106   ar
    22   104   101    1
    23    86    83    1
    24    83    82    1
    25   101   100    1
    26   100    93   am
    27    69    70    2
    28    82    80   am
    29   108   106   ar
    30    92    93    1
    31    92    95    1
    32    93    94    2
    33    81    80    2
    34   112   113    1
    35    80    79    1
    36   114   115    2
    37   114   113    1
    38     1     2    1
    39    99    97   ar
    40    95    96    1
    41    79    78    1
    42   113   116    1
    43     2     5    1
    44     2     3    1
    45    96    97    1
    46    97    98   ar
    47     5     6    1
    48     6     7    1
    49   116   118    1
    50   116   117    1
    51     3     4    2
    52    78    76   am
    53     7     8    1
    54    65    64    1
    55   117   119    1
    56    76    77    2
    57    76    75    1
    58    74    75    1
    59    64    66    1
    60    64    61    1
    61    63    62    2
    62    62    61    1
    63    51    50    1
    64    61    60    1
    65    50    48   ar
    66    50    49   ar
    67    48    46   ar
    68    55    54    2
    69    54    53    1
    70    49    47   ar
    71    57    56    1
    72    57    58    1
    73    46    45   ar
    74    59    58    1
    75    56    53    1
    76    53    52    1
    77    47    45   ar
    78    45    44    1
    79    29    28    1
    80    30    28    1
    81    21    19   ar
    82    21    22   ar
    83    19    16   ar
    84    44    41    1
    85    22    20   ar
    86    28    27    1
    87    41    42    1
    88    41    40    1
    89     9    10    1
    90    16    14   ar
    91    16    18   ar
    92    43    42    2
    93    13    14    1
    94    13    10    1
    95    20    18   ar
    96    14    15   ar
    97    27    24    1
    98    18    17   ar
    99    10    11    1
   100    15    17   ar
   101    26    25    2
   102    24    25    1
   103    24    23    1
   104    25    31   am
   105    11    12    2
   106    31    32    1
   107    36    37    1
   108    36    35    1
   109    32    35    1
   110    32    33    1
   111    39    37   ar
   112    34    33    2
   113    37    38   ar
