@<TRIPOS>MOLECULE
tmp/3tyeA00.pdb
 192 181 0 0 0
SMALL
GASTEIGER

@<TRIPOS>ATOM
      1  N        -69.6770   87.7120   96.9720 N.3    60  THR60      -0.1203
      2  CA       -70.9270   87.3540   96.2700 C.3    60  THR60       0.1994
      3  C        -72.2630   87.9280   96.8590 C.2    60  THR60       0.2618
      4  O        -73.3420   87.7130   96.2840 O.2    60  THR60      -0.2717
      5  CB       -71.0690   85.8080   96.0430 C.3    60  THR60       0.1784
      6  OG1      -71.7520   85.2120   97.1520 O.3    60  THR60      -0.2211
      7  CG2      -69.7110   85.1310   95.7950 C.3    60  THR60       0.0376
      8  N        -72.1880   88.6360   97.9920 N.am   61  ARG61      -0.1965
      9  CA       -73.3280   89.4050   98.5310 C.3    61  ARG61       0.1714
     10  C        -72.9580   90.8830   98.6750 C.2    61  ARG61       0.2458
     11  O        -71.8580   91.1850   99.1500 O.2    61  ARG61      -0.2730
     12  CB       -73.7650   88.8690   99.8980 C.3    61  ARG61       0.0347
     13  CG       -74.4700   87.5510   99.8170 C.3    61  ARG61       0.0492
     14  CD       -74.7210   86.9690  101.1860 C.3    61  ARG61       0.2205
     15  NE       -74.3700   85.5460  101.2170 N.pl3  61  ARG61      -0.0865
     16  CZ       -75.1200   84.5580  100.7190 C.cat  61  ARG61       0.5346
     17  NH1      -76.2870   84.8170  100.1420 N.pl3  61  ARG61       0.1354
     18  NH2      -74.6980   83.2970  100.8010 N.pl3  61  ARG61       0.1354
     19  N        -73.8690   91.8090   98.2720 N.am   62  PRO62      -0.2727
     20  CA       -73.6340   93.2460   98.4670 C.3    62  PRO62       0.1402
     21  C        -72.9430   93.5690   99.7980 C.2    62  PRO62       0.2269
     22  O        -73.2750   93.0290  100.8660 O.2    62  PRO62      -0.2865
     23  CB       -75.0300   93.8460   98.3470 C.3    62  PRO62       0.0296
     24  CG       -75.6520   92.9960   97.3010 C.3    62  PRO62       0.0237
     25  CD       -75.1250   91.5840   97.5330 C.3    62  PRO62       0.0939
     26  N        -69.7940   92.8020   98.9010 N.3    64  PHE64      -0.1241
     27  CA       -68.7870   92.1950   98.0230 C.3    64  PHE64       0.1605
     28  C        -67.3670   92.4730   98.5510 C.2    64  PHE64       0.2264
     29  O        -66.4780   92.8490   97.7780 O.2    64  PHE64      -0.2867
     30  CB       -68.9340   92.6560   96.5580 C.3    64  PHE64       0.0534
     31  CG       -70.2840   92.3530   95.9280 C.ar   64  PHE64      -0.0203
     32  CD1      -70.6060   91.0700   95.5000 C.ar   64  PHE64      -0.0042
     33  CD2      -71.2190   93.3730   95.7220 C.ar   64  PHE64      -0.0042
     34  CE1      -71.8550   90.8080   94.9050 C.ar   64  PHE64      -0.0003
     35  CE2      -72.4600   93.1150   95.1250 C.ar   64  PHE64      -0.0003
     36  CZ       -72.7760   91.8370   94.7160 C.ar   64  PHE64      -0.0000
     37  N        -71.5020   78.3400   96.1180 N.3    94  ASP94      -0.1239
     38  CA       -71.6290   79.6980   95.6010 C.3    94  ASP94       0.1674
     39  C        -70.2820   80.3860   95.6830 C.2    94  ASP94       0.2266
     40  O        -69.9580   80.9980   96.6840 O.2    94  ASP94      -0.2867
     41  CB       -72.6970   80.4490   96.4360 C.3    94  ASP94       0.1410
     42  CG       -72.9350   81.9400   95.9990 C.2    94  ASP94       0.3668
     43  OD1      -73.8790   82.5620   96.5360 O.co2  94  ASP94      -0.2456
     44  OD2      -72.1880   82.5240   95.1970 O.co2  94  ASP94      -0.2456
     45  N        -71.8750   77.1130   91.4370 N.3   113  ASN113     -0.1240
     46  CA       -72.6670   78.3120   91.3020 C.3   113  ASN113      0.1653
     47  C        -71.8040   79.5770   91.2550 C.2   113  ASN113      0.2266
     48  O        -71.3750   80.1250   92.3000 O.2   113  ASN113     -0.2867
     49  CB       -73.6880   78.4010   92.4290 C.3   113  ASN113      0.1155
     50  CG       -74.5980   79.5960   92.2830 C.2   113  ASN113      0.2627
     51  OD1      -74.5270   80.3220   91.2730 O.2   113  ASN113     -0.2716
     52  ND2      -75.4550   79.8200   93.2780 N.am  113  ASN113     -0.0877
     53  N        -71.3780   83.3960   90.3180 N.3   115  ILE115     -0.1245
     54  CA       -72.0400   84.6860   90.0860 C.3   115  ILE115      0.1561
     55  C        -71.3340   85.5700   89.0250 C.2   115  ILE115      0.2260
     56  O        -71.8370   86.6700   88.6840 O.2   115  ILE115     -0.2867
     57  CB       -72.2470   85.4680   91.4020 C.3   115  ILE115      0.0252
     58  CG1      -70.9000   85.7780   92.0610 C.3   115  ILE115      0.0019
     59  CG2      -73.0490   84.6320   92.3740 C.3   115  ILE115      0.0019
     60  CD1      -70.8210   87.1420   92.6980 C.3   115  ILE115      0.0001
     61  N        -73.6440   76.5510   87.0870 N.3   136  ILE136     -0.1245
     62  CA       -74.5860   77.6170   86.8540 C.3   136  ILE136      0.1561
     63  C        -73.7790   78.8590   86.4610 C.2   136  ILE136      0.2260
     64  O        -72.8830   79.2760   87.2120 O.2   136  ILE136     -0.2867
     65  CB       -75.4290   77.8760   88.1010 C.3   136  ILE136      0.0252
     66  CG1      -76.2020   76.6130   88.4760 C.3   136  ILE136      0.0019
     67  CG2      -76.3880   79.0270   87.8350 C.3   136  ILE136      0.0019
     68  CD1      -76.6370   76.5430   89.9460 C.3   136  ILE136      0.0001
     69  N        -74.1870   82.7850   85.7260 N.3   138  MET138     -0.1245
     70  CA       -75.0940   83.9040   86.0020 C.3   138  MET138      0.1570
     71  C        -74.6270   85.0500   85.1420 C.2   138  MET138      0.2261
     72  O        -73.4160   85.1910   84.9220 O.2   138  MET138     -0.2867
     73  CB       -75.0050   84.3150   87.4690 C.3   138  MET138      0.0387
     74  CG       -76.2370   84.9180   88.0300 C.3   138  MET138      0.0595
     75  SD       -76.0030   85.6750   89.6720 S.3   138  MET138     -0.1393
     76  CE       -74.7820   86.9190   89.2600 C.3   138  MET138      0.0692
     77  N        -78.4910   81.7440   84.3470 N.3   177  ASP177     -0.1239
     78  CA       -79.1550   82.5170   85.3550 C.3   177  ASP177      0.1674
     79  C        -79.0360   83.9250   84.8650 C.2   177  ASP177      0.2266
     80  O        -77.9280   84.3490   84.5260 O.2   177  ASP177     -0.2867
     81  CB       -78.4080   82.3950   86.6690 C.3   177  ASP177      0.1410
     82  CG       -79.0880   83.1490   87.8060 C.2   177  ASP177      0.3668
     83  OD1      -78.8120   82.8690   88.9840 O.co2 177  ASP177     -0.2456
     84  OD2      -79.9120   84.0300   87.5480 O.co2 177  ASP177     -0.2456
     85  N        -80.4110   88.3670   88.3730 N.3   180  ILE180     -0.1231
     86  CA       -81.2230   89.4230   88.9620 C.3   180  ILE180      0.1692
     87  C        -80.5420   90.1320   90.1750 C.2   180  ILE180      0.2593
     88  O        -80.0180   89.4790   91.0860 O.2   180  ILE180     -0.2718
     89  CB       -82.6380   88.8910   89.3180 C.3   180  ILE180      0.0266
     90  CG1      -83.3050   88.2470   88.0940 C.3   180  ILE180      0.0019
     91  CG2      -83.5350   90.0090   89.9120 C.3   180  ILE180      0.0020
     92  CD1      -83.8350   89.2390   86.9880 C.3   180  ILE180      0.0001
     93  N        -80.5340   91.4690   90.1610 N.am  181  GLY181     -0.1942
     94  CA       -79.8840   92.2630   91.2100 C.3   181  GLY181      0.2014
     95  C        -78.4060   92.5540   91.0020 C.2   181  GLY181      0.2638
     96  O        -77.7440   93.1610   91.8600 O.2   181  GLY181     -0.2714
     97  N        -77.8820   92.1200   89.8620 N.am  182  PHE182     -0.1973
     98  CA       -76.4740   92.3030   89.5410 C.3   182  PHE182      0.1639
     99  C        -76.3760   93.1980   88.3510 C.2   182  PHE182      0.2290
    100  O        -77.0720   92.9880   87.3630 O.2   182  PHE182     -0.2864
    101  CB       -75.8090   90.9620   89.2170 C.3   182  PHE182      0.0560
    102  CG       -75.6430   90.0620   90.4110 C.ar  182  PHE182     -0.0200
    103  CD1      -76.6770   89.2210   90.8100 C.ar  182  PHE182     -0.0042
    104  CD2      -74.4460   90.0440   91.1200 C.ar  182  PHE182     -0.0042
    105  CE1      -76.5190   88.3860   91.8970 C.ar  182  PHE182     -0.0003
    106  CE2      -74.2880   89.2260   92.2190 C.ar  182  PHE182     -0.0003
    107  CZ       -75.3240   88.3840   92.6070 C.ar  182  PHE182     -0.0000
    108  N        -83.8310   95.4560   86.2670 N.3   189  ASN189     -0.1240
    109  CA       -84.2770   94.2190   86.9370 C.3   189  ASN189      0.1653
    110  C        -85.7050   93.8030   86.5500 C.2   189  ASN189      0.2266
    111  O        -85.9520   92.6490   86.3110 O.2   189  ASN189     -0.2867
    112  CB       -84.1410   94.3250   88.4620 C.3   189  ASN189      0.1155
    113  CG       -82.7170   94.1080   88.9380 C.2   189  ASN189      0.2627
    114  OD1      -82.0170   93.2210   88.4430 O.2   189  ASN189     -0.2716
    115  ND2      -82.2770   94.9170   89.9070 N.am  189  ASN189     -0.0877
    116  N        -81.9930   79.0890   85.8660 N.3   207  LEU207     -0.1245
    117  CA       -82.2940   79.2200   87.2870 C.3   207  LEU207      0.1561
    118  C        -82.5480   80.6790   87.6150 C.2   207  LEU207      0.2260
    119  O        -81.8270   81.5370   87.1220 O.2   207  LEU207     -0.2867
    120  CB       -81.1170   78.7090   88.1250 C.3   207  LEU207      0.0270
    121  CG       -81.0240   78.9420   89.6470 C.3   207  LEU207      0.0019
    122  CD1      -80.0890   77.9310   90.2560 C.3   207  LEU207      0.0001
    123  CD2      -80.5090   80.3410   89.9650 C.3   207  LEU207      0.0001
    124  N        -82.8000   83.7280   90.5220 N.3   209  GLY209     -0.1225
    125  CA       -82.4890   84.1100   91.8850 C.3   209  GLY209      0.1811
    126  C        -82.9860   85.4980   92.2470 C.2   209  GLY209      0.2280
    127  O        -82.2390   86.4710   92.1300 O.2   209  GLY209     -0.2866
    128  N        -84.8750   86.0910   95.3540 N.3   211  SER211     -0.1202
    129  CA       -85.3980   86.0730   96.6970 C.3   211  SER211      0.2020
    130  C        -85.0980   87.3450   97.4820 C.2   211  SER211      0.2619
    131  O        -83.9430   87.7490   97.6220 O.2   211  SER211     -0.2717
    132  CB       -84.8710   84.8430   97.4520 C.3   211  SER211      0.2103
    133  OG       -85.6350   84.5790   98.6260 O.3   211  SER211     -0.2182
    134  N        -86.1590   87.9800   97.9820 N.am  212  ARG212     -0.1965
    135  CA       -86.0300   89.1300   98.9030 C.3   212  ARG212      0.1729
    136  C        -85.1130   90.2710   98.3870 C.2   212  ARG212      0.2616
    137  O        -84.6790   91.1340   99.1580 O.2   212  ARG212     -0.2715
    138  CB       -85.5260   88.6610  100.2770 C.3   212  ARG212      0.0348
    139  CG       -86.4190   87.6510  101.0070 C.3   212  ARG212      0.0492
    140  CD       -85.8350   87.3960  102.3760 C.3   212  ARG212      0.2205
    141  NE       -86.5340   86.3810  103.1530 N.pl3 212  ARG212     -0.0865
    142  CZ       -85.9700   85.6610  104.1370 C.cat 212  ARG212      0.5346
    143  NH1      -84.6680   85.8030  104.4360 N.pl3 212  ARG212      0.1354
    144  NH2      -86.6970   84.7700  104.8270 N.pl3 212  ARG212      0.1354
    145  N        -84.8200   90.2760   97.0900 N.am  213  LYS213     -0.1963
    146  CA       -83.8960   91.2400   96.5330 C.3   213  LYS213      0.1728
    147  C        -84.4560   92.6680   96.5620 C.2   213  LYS213      0.2617
    148  O        -85.6630   92.8830   96.7240 O.2   213  LYS213     -0.2715
    149  CB       -83.4330   90.7700   95.1570 C.3   213  LYS213      0.0311
    150  CG       -82.3470   89.6660   95.3160 C.3   213  LYS213      0.0038
    151  CD       -81.7690   89.1230   94.0170 C.3   213  LYS213      0.0206
    152  CE       -80.6070   88.1950   94.3570 C.3   213  LYS213      0.1093
    153  NZ       -79.8790   87.6780   93.1950 N.3   213  LYS213     -0.1314
    154  N        -83.5860   93.6580   96.4520 N.am  214  SER214     -0.1936
    155  CA       -84.0390   95.0150   96.6770 C.3   214  SER214      0.2055
    156  C        -84.9560   95.6080   95.5760 C.2   214  SER214      0.2643
    157  O        -85.7530   96.5090   95.8470 O.2   214  SER214     -0.2714
    158  CB       -82.8670   95.9270   97.0370 C.3   214  SER214      0.2130
    159  OG       -82.4280   96.6220   95.9100 O.3   214  SER214     -0.2179
    160  N        -84.9030   95.1030   94.3510 N.am  215  PHE215     -0.1973
    161  CA       -85.8480   95.6480   93.3890 C.3   215  PHE215      0.1639
    162  C        -87.2920   95.3370   93.7800 C.2   215  PHE215      0.2290
    163  O        -88.2160   96.0430   93.3790 O.2   215  PHE215     -0.2864
    164  CB       -85.5540   95.1640   91.9870 C.3   215  PHE215      0.0560
    165  CG       -86.0580   93.7980   91.7100 C.ar  215  PHE215     -0.0200
    166  CD1      -87.1180   93.6050   90.8430 C.ar  215  PHE215     -0.0042
    167  CD2      -85.4650   92.6980   92.3030 C.ar  215  PHE215     -0.0042
    168  CE1      -87.5660   92.3280   90.5690 C.ar  215  PHE215     -0.0003
    169  CE2      -85.9260   91.4310   92.0490 C.ar  215  PHE215     -0.0003
    170  CZ       -86.9560   91.2400   91.1710 C.ar  215  PHE215     -0.0000
    171  N        -90.6690   90.8550  102.2890 N.3   227  ARG227     -0.1245
    172  CA       -90.5130   90.7130  100.8340 C.3   227  ARG227      0.1563
    173  C        -90.9510   89.3610  100.3210 C.2   227  ARG227      0.2260
    174  O        -90.7580   89.0550   99.1600 O.2   227  ARG227     -0.2867
    175  CB       -89.0750   91.0300  100.3950 C.3   227  ARG227      0.0307
    176  CG       -88.8190   92.5040  100.3100 C.3   227  ARG227      0.0489
    177  CD       -87.4380   92.8430   99.7870 C.3   227  ARG227      0.2205
    178  NE       -87.0820   94.2180  100.1710 N.pl3 227  ARG227     -0.0865
    179  CZ       -85.8470   94.7120  100.1850 C.cat 227  ARG227      0.5346
    180  NH1      -84.8220   93.9530   99.8250 N.pl3 227  ARG227      0.1354
    181  NH2      -85.6380   95.9710  100.5560 N.pl3 227  ARG227      0.1354
    182  N        -84.0580   79.9900   93.2210 N.3   247  ARG247     -0.1245
    183  CA       -83.2110   80.0880   94.4070 C.3   247  ARG247      0.1563
    184  C        -83.9120   80.8930   95.4520 C.2   247  ARG247      0.2260
    185  O        -84.1650   82.0780   95.2700 O.2   247  ARG247     -0.2867
    186  CB       -81.8950   80.7780   94.0410 C.3   247  ARG247      0.0307
    187  CG       -80.9320   80.9760   95.1820 C.3   247  ARG247      0.0489
    188  CD       -79.6060   81.5080   94.6300 C.3   247  ARG247      0.2205
    189  NE       -78.6380   81.7720   95.6750 N.pl3 247  ARG247     -0.0865
    190  CZ       -78.6350   82.8490   96.4530 C.cat 247  ARG247      0.5346
    191  NH1      -79.5680   83.7720   96.3240 N.pl3 247  ARG247      0.1354
    192  NH2      -77.6980   83.0010   97.3880 N.pl3 247  ARG247      0.1354
@<TRIPOS>BOND
     1    77    78    1
     2    80    79    2
     3    79    78    1
     4    72    71    2
     5    71    70    1
     6    78    81    1
     7    69    70    1
     8   116   117    1
     9    70    73    1
    10   108   109    1
    11   111   110    2
    12    63    62    1
    13    63    64    2
    14   110   109    1
    15    81    82    1
    16    62    61    1
    17    62    65    1
    18   109   112    1
    19    92    90    1
    20   119   118    2
    21   117   118    1
    22   117   120    1
    23   100    99    2
    24    73    74    1
    25    84    82   ar
    26    82    83   ar
    27    67    65    1
    28    74    75    1
    29    90    89    1
    30    65    66    1
    31   120   121    1
    32    99    98    1
    33    85    86    1
    34   114   113    2
    35   112   113    1
    36    66    68    1
    37    56    55    2
    38   113   115   am
    39    86    89    1
    40    86    87    1
    41    55    54    1
    42   101    98    1
    43   101   102    1
    44    76    75    1
    45    89    91    1
    46    98    97    1
    47   121   123    1
    48   121   122    1
    49    97    95   am
    50    54    53    1
    51    54    57    1
    52    93    87   am
    53    93    94    1
    54    87    88    2
    55   102   103   ar
    56   102   104   ar
    57   124   125    1
    58   168   166   ar
    59   168   170   ar
    60   103   105   ar
    61   166   165   ar
    62    95    94    1
    63    95    96    2
    64   104   106   ar
    65   170   169   ar
    66    47    46    1
    67    47    48    2
    68    51    50    2
    69    46    45    1
    70    46    49    1
    71    57    58    1
    72    57    59    1
    73   165   164    1
    74   165   167   ar
    75   125   126    1
    76   105   107   ar
    77   164   161    1
    78   169   167   ar
    79    58    60    1
    80   127   126    2
    81   106   107   ar
    82    50    49    1
    83    50    52   am
    84   153   152    1
    85   182   183    1
    86   163   162    2
    87   161   162    1
    88   161   160    1
    89   151   152    1
    90   151   150    1
    91   186   183    1
    92   186   187    1
    93   160   156   am
    94   183   184    1
    95   188   187    1
    96   188   189    1
    97    36    34   ar
    98    36    35   ar
    99    34    32   ar
   100    35    33   ar
   101   149   150    1
   102   149   146    1
   103    44    42   ar
   104   185   184    2
   105   128   129    1
   106    32    31   ar
   107   156   157    2
   108   156   155    1
   109    38    39    1
   110    38    37    1
   111    38    41    1
   112   189   190    2
   113    39    40    2
   114    33    31   ar
   115     7     5    1
   116   159   158    1
   117    31    30    1
   118    42    41    1
   119    42    43   ar
   120     5     2    1
   121     5     6    1
   122     2     3    1
   123     2     1    1
   124     4     3    2
   125   191   190    1
   126   154   147   am
   127   154   155    1
   128   190   192    1
   129   146   147    1
   130   146   145    1
   131    30    27    1
   132   147   148    2
   133   155   158    1
   134   129   132    1
   135   129   130    1
   136     3     8   am
   137   145   136   am
   138    24    25    1
   139    24    23    1
   140   132   133    1
   141   130   131    2
   142   130   134   am
   143    25    19    1
   144    29    28    2
   145   134   135    1
   146     8     9    1
   147    27    28    1
   148    27    26    1
   149    19    20    1
   150    19    10   am
   151    23    20    1
   152   136   135    1
   153   136   137    2
   154    20    21    1
   155     9    10    1
   156     9    12    1
   157    10    11    2
   158   135   138    1
   159   174   173    2
   160   177   178    1
   161   177   176    1
   162    21    22    2
   163    13    12    1
   164    13    14    1
   165   180   179    1
   166    17    16    1
   167   178   179    2
   168   179   181    1
   169   138   139    1
   170   176   175    1
   171   173   172    1
   172   175   172    1
   173    16    18    1
   174    16    15    2
   175   172   171    1
   176   139   140    1
   177    14    15    1
   178   140   141    1
   179   141   142    2
   180   142   143    1
   181   142   144    1
