@<TRIPOS>MOLECULE
tmp/3tygC00.pdb
 102 99 0 0 0
SMALL
GASTEIGER

@<TRIPOS>ATOM
      1  N         -4.9910   15.9810   -4.9990 N.3    27  SER27      -0.1217
      2  CA        -3.8090   16.7940   -4.7350 C.3    27  SER27       0.1889
      3  C         -2.7990   15.9950   -3.9320 C.2    27  SER27       0.2288
      4  O         -3.1620   15.3370   -2.9550 O.2    27  SER27      -0.2866
      5  CB        -4.1750   18.0960   -4.0210 C.3    27  SER27       0.2089
      6  OG        -4.7470   17.8950   -2.7390 O.3    27  SER27      -0.2183
      7  N         -0.5940   17.2990   -2.1810 N.3    29  ALA29      -0.1231
      8  CA        -0.4640   18.1190   -0.9810 C.3    29  ALA29       0.1694
      9  C         -1.3790   17.6400    0.1520 C.2    29  ALA29       0.2592
     10  O         -0.9920   17.7730    1.3120 O.2    29  ALA29      -0.2718
     11  CB        -0.7590   19.5710   -1.3040 C.3    29  ALA29       0.0304
     12  N         -2.5670   17.0700   -0.1810 N.am   30  ALA30      -0.1966
     13  CA        -3.5830   16.5580    0.7520 C.3    30  ALA30       0.1728
     14  C         -3.0540   15.6060    1.8300 C.2    30  ALA30       0.2616
     15  O         -2.3130   14.6650    1.5190 O.2    30  ALA30      -0.2715
     16  CB        -4.6980   15.8860   -0.0200 C.3    30  ALA30       0.0334
     17  N         -3.4740   15.8440    3.0930 N.am   31  CYS31      -0.1968
     18  CA        -3.0760   15.0990    4.3020 C.3    31  CYS31       0.1712
     19  C         -3.7210   13.7160    4.5390 C.2    31  CYS31       0.2296
     20  O         -3.2970   13.0030    5.4560 O.2    31  CYS31      -0.2864
     21  CB        -3.2200   15.9870    5.5340 C.3    31  CYS31       0.0983
     22  SG        -1.7010   16.8330    6.0380 S.3    31  CYS31      -0.0798
     23  N          4.4020   14.6750    2.3010 N.3    54  HIS54      -0.1226
     24  CA         5.0220   15.8720    2.8990 C.3    54  HIS54       0.1752
     25  C          4.3820   16.3580    4.2050 C.2    54  HIS54       0.2596
     26  O          5.0490   17.0380    4.9910 O.2    54  HIS54      -0.2718
     27  CB         5.0860   17.0050    1.8860 C.3    54  HIS54       0.0759
     28  CG         5.9620   16.7140    0.7130 C.ar   54  HIS54       0.0818
     29  ND1        7.2680   16.3190    0.8730 N.ar   54  HIS54      -0.2268
     30  CD2        5.6970   16.8250   -0.6060 C.ar   54  HIS54       0.1154
     31  CE1        7.7470   16.1730   -0.3500 C.ar   54  HIS54       0.1986
     32  NE2        6.8500   16.5110   -1.2690 N.ar   54  HIS54      -0.2212
     33  N          3.0940   16.0020    4.4280 N.am   55  CYS55      -0.1956
     34  CA         2.3170   16.2910    5.6350 C.3    55  CYS55       0.1843
     35  C          3.1110   15.8180    6.8600 C.2    55  CYS55       0.2625
     36  O          3.2480   14.6120    7.0830 O.2    55  CYS55      -0.2714
     37  CB         0.9610   15.6040    5.5490 C.3    55  CYS55       0.0997
     38  SG        -0.2810   16.5230    4.6060 S.3    55  CYS55      -0.0797
     39  N          3.6920   16.7780    7.6020 N.am   56  ALA56      -0.1963
     40  CA         4.5760   16.5290    8.7380 C.3    56  ALA56       0.1728
     41  C          3.9850   16.7630   10.1300 C.2    56  ALA56       0.2617
     42  O          2.8360   17.1830   10.2710 O.2    56  ALA56      -0.2715
     43  CB         5.8020   17.3860    8.5760 C.3    56  ALA56       0.0334
     44  N          4.8060   16.5030   11.1590 N.am   57  SER57      -0.1936
     45  CA         4.4920   16.7220   12.5690 C.3    57  SER57       0.2055
     46  C          5.4980   17.7560   13.1270 C.2    57  SER57       0.2643
     47  O          6.2110   18.3950   12.3470 O.2    57  SER57      -0.2714
     48  CB         4.6050   15.4100   13.3410 C.3    57  SER57       0.2130
     49  OG         5.9660   15.0520   13.5290 O.3    57  SER57      -0.2179
     50  N          5.5720   17.9000   14.4700 N.am   58  TYR58      -0.1973
     51  CA         6.5170   18.7970   15.1370 C.3    58  TYR58       0.1639
     52  C          7.9860   18.2880   15.0150 C.2    58  TYR58       0.2290
     53  O          8.9190   19.0980   15.0790 O.2    58  TYR58      -0.2864
     54  CB         6.1120   19.0440   16.6130 C.3    58  TYR58       0.0560
     55  CG         6.1870   17.8270   17.5200 C.ar   58  TYR58      -0.0198
     56  CD1        5.0570   17.0570   17.7870 C.ar   58  TYR58      -0.0009
     57  CD2        7.3820   17.4720   18.1480 C.ar   58  TYR58      -0.0009
     58  CE1        5.1200   15.9430   18.6310 C.ar   58  TYR58       0.0417
     59  CE2        7.4630   16.3480   18.9730 C.ar   58  TYR58       0.0417
     60  CZ         6.3270   15.5960   19.2250 C.ar   58  TYR58       0.1957
     61  OH         6.4180   14.4890   20.0360 O.3    58  TYR58      -0.2866
     62  N          9.7400   16.7350    8.6480 N.3    61  ARG61      -0.1245
     63  CA         9.3930   17.5700    7.4960 C.3    61  ARG61       0.1563
     64  C          8.6150   16.7540    6.4410 C.2    61  ARG61       0.2260
     65  O          8.4960   17.1800    5.2840 O.2    61  ARG61      -0.2867
     66  CB        10.6590   18.2050    6.8880 C.3    61  ARG61       0.0307
     67  CG        11.1860   19.4070    7.6530 C.3    61  ARG61       0.0489
     68  CD        11.9370   20.3620    6.7400 C.3    61  ARG61       0.2205
     69  NE        12.9380   21.1450    7.4720 N.pl3  61  ARG61      -0.0865
     70  CZ        12.7020   22.3110    8.0740 C.cat  61  ARG61       0.5346
     71  NH1       11.4880   22.8500    8.0420 N.pl3  61  ARG61       0.1354
     72  NH2       13.6770   22.9450    8.7120 N.pl3  61  ARG61       0.1354
     73  N          8.2240   13.5040   -4.3150 N.3    78  LEU78      -0.1245
     74  CA         6.9190   14.1510   -4.4770 C.3    78  LEU78       0.1561
     75  C          6.9730   15.6330   -4.9110 C.2    78  LEU78       0.2260
     76  O          7.4860   16.4640   -4.1660 O.2    78  LEU78      -0.2867
     77  CB         6.1270   14.0320   -3.1630 C.3    78  LEU78       0.0270
     78  CG         4.7270   13.4160   -3.1760 C.3    78  LEU78       0.0019
     79  CD1        3.9280   13.8810   -1.9710 C.3    78  LEU78       0.0001
     80  CD2        3.9810   13.7100   -4.4600 C.3    78  LEU78       0.0001
     81  N          4.6930   18.2070   -5.0120 N.3    80  THR80      -0.1204
     82  CA         3.4570   18.7810   -4.4720 C.3    80  THR80       0.1979
     83  C          2.7330   19.7250   -5.4670 C.2    80  THR80       0.2459
     84  O          1.6130   19.3830   -5.8320 O.2    80  THR80      -0.2732
     85  CB         3.7000   19.3030   -3.0310 C.3    80  THR80       0.1783
     86  OG1        3.0260   20.5520   -2.8150 O.3    80  THR80      -0.2211
     87  CG2        5.1900   19.4500   -2.7130 C.3    80  THR80       0.0376
     88  N          3.3570   20.8140   -6.0210 N.am   81  PRO81      -0.2728
     89  CA         2.6250   21.6670   -6.9720 C.3    81  PRO81       0.1401
     90  C          2.4860   21.1160   -8.3940 C.2    81  PRO81       0.2269
     91  O          1.4040   21.2270   -8.9700 O.2    81  PRO81      -0.2865
     92  CB         3.4070   22.9860   -6.9440 C.3    81  PRO81       0.0296
     93  CG         4.4200   22.8380   -5.8390 C.3    81  PRO81       0.0237
     94  CD         4.6860   21.3960   -5.7480 C.3    81  PRO81       0.0939
     95  N          2.2200   18.1720   -9.1650 N.3    83  ASN83      -0.1240
     96  CA         1.4200   16.9650   -8.9430 C.3    83  ASN83       0.1653
     97  C          2.0430   15.7340   -9.5720 C.2    83  ASN83       0.2266
     98  O          1.3860   15.0050  -10.3250 O.2    83  ASN83      -0.2867
     99  CB        -0.0360   17.1590   -9.3490 C.3    83  ASN83       0.1155
    100  CG        -1.0080   16.9610   -8.2110 C.2    83  ASN83       0.2627
    101  OD1       -0.6330   16.6830   -7.0690 O.2    83  ASN83      -0.2716
    102  ND2       -2.2970   17.0710   -8.5040 N.am   83  ASN83      -0.0877
@<TRIPOS>BOND
     1    98    97    2
     2    97    96    1
     3    99    96    1
     4    99   100    1
     5    95    96    1
     6    91    90    2
     7   102   100   am
     8    90    89    1
     9   100   101    2
    10    89    92    1
    11    89    88    1
    12    92    93    1
    13    88    94    1
    14    88    83   am
    15    93    94    1
    16    84    83    2
    17    83    82    1
    18    81    82    1
    19     1     2    1
    20    75    74    1
    21    75    76    2
    22     2     5    1
    23     2     3    1
    24    74    73    1
    25    74    77    1
    26    82    85    1
    27    80    78    1
    28     5     6    1
    29     3     4    2
    30    78    77    1
    31    78    79    1
    32    85    86    1
    33    85    87    1
    34     7     8    1
    35    11     8    1
    36    32    30   ar
    37    32    31   ar
    38     8     9    1
    39    30    28   ar
    40    31    29   ar
    41    12     9   am
    42    12    13    1
    43    16    13    1
    44     9    10    2
    45    28    29   ar
    46    28    27    1
    47    13    14    1
    48    15    14    2
    49    14    17   am
    50    27    24    1
    51    23    24    1
    52    24    25    1
    53    17    18    1
    54    25    33   am
    55    25    26    2
    56    18    19    1
    57    18    21    1
    58    33    34    1
    59    19    20    2
    60    38    37    1
    61    38    22    1
    62    65    64    2
    63    21    22    1
    64    37    34    1
    65    34    35    1
    66    64    63    1
    67    68    69    1
    68    68    67    1
    69    35    36    2
    70    35    39   am
    71    66    63    1
    72    66    67    1
    73    69    70    2
    74    63    62    1
    75    39    40    1
    76    71    70    1
    77    70    72    1
    78    43    40    1
    79    40    41    1
    80    41    42    2
    81    41    44   am
    82    44    45    1
    83    47    46    2
    84    45    46    1
    85    45    48    1
    86    46    50   am
    87    48    49    1
    88    50    51    1
    89    52    53    2
    90    52    51    1
    91    51    54    1
    92    54    55    1
    93    55    56   ar
    94    55    57   ar
    95    56    58   ar
    96    57    59   ar
    97    58    60   ar
    98    59    60   ar
    99    60    61    1
