@<TRIPOS>MOLECULE
tmp/3tylB03.pdb
 170 168 0 0 0
SMALL
GASTEIGER

@<TRIPOS>ATOM
      1  N         17.8900   12.2780   47.5680 N.3    38  MET38      -0.1230
      2  CA        17.7110   11.6480   48.8840 C.3    38  MET38       0.1702
      3  C         17.3590   12.6770   49.9870 C.2    38  MET38       0.2592
      4  O         16.4140   12.4740   50.7340 O.2    38  MET38      -0.2718
      5  CB        18.9540   10.8470   49.2760 C.3    38  MET38       0.0401
      6  CG        18.6740    9.9320   50.4640 C.3    38  MET38       0.0596
      7  SD        18.3380    8.2750   49.8140 S.3    38  MET38      -0.1393
      8  CE        20.0450    7.8500   49.4760 C.3    38  MET38       0.0692
      9  N         18.1070   13.7810   50.0580 N.am   39  LEU39      -0.1980
     10  CA        17.8870   14.8460   51.0710 C.3    39  LEU39       0.1596
     11  C         17.6440   16.2020   50.3770 C.2    39  LEU39       0.2287
     12  O         18.5730   16.9940   50.2080 O.2    39  LEU39      -0.2864
     13  CB        19.0970   14.9340   52.0190 C.3    39  LEU39       0.0297
     14  CG        19.6640   13.6210   52.5830 C.3    39  LEU39       0.0022
     15  CD1       21.0580   13.7810   53.2430 C.3    39  LEU39       0.0001
     16  CD2       18.6670   12.9640   53.5440 C.3    39  LEU39       0.0001
     17  N         22.0790    5.8930   64.4290 N.3   170  SER170     -0.1202
     18  CA        21.1070    6.0910   63.3690 C.3   170  SER170      0.2020
     19  C         19.9150    5.1310   63.5350 C.2   170  SER170      0.2618
     20  O         18.8170    5.4770   63.1480 O.2   170  SER170     -0.2717
     21  CB        21.7910    5.9380   62.0040 C.3   170  SER170      0.2103
     22  OG        22.3240    4.6260   61.8710 O.3   170  SER170     -0.2182
     23  N         20.1450    3.9300   64.0630 N.am  171  GLN171     -0.1979
     24  CA        19.0960    2.9550   64.4200 C.3   171  GLN171      0.1601
     25  C         19.4950    2.4000   65.7950 C.2   171  GLN171      0.2287
     26  O         20.6910    2.3060   66.0940 O.2   171  GLN171     -0.2864
     27  CB        19.0080    1.7570   63.4340 C.3   171  GLN171      0.0394
     28  CG        18.5930    2.0420   62.0200 C.3   171  GLN171      0.0908
     29  CD        18.6920    0.7900   61.1190 C.2   171  GLN171      0.2608
     30  OE1       18.2650   -0.3260   61.4880 O.2   171  GLN171     -0.2717
     31  NE2       19.2420    0.9770   59.9560 N.am  171  GLN171     -0.0878
     32  N         13.8890   -3.3920   63.5080 N.3   258  PRO258     -0.2116
     33  CA        14.3060   -2.2140   62.7650 C.3   258  PRO258      0.1372
     34  C         13.7760   -0.9920   63.5470 C.2   258  PRO258      0.2244
     35  O         12.5640   -0.8810   63.7900 O.2   258  PRO258     -0.2868
     36  CB        13.5860   -2.3780   61.4250 C.3   258  PRO258      0.0268
     37  CG        12.2620   -3.0280   61.7910 C.3   258  PRO258      0.0207
     38  CD        12.6220   -3.9620   62.9780 C.3   258  PRO258      0.0892
     39  N         14.4190    3.1670   63.8150 N.3   260  VAL260     -0.1245
     40  CA        15.0930    4.3960   63.3360 C.3   260  VAL260      0.1561
     41  C         15.1960    5.4080   64.4940 C.2   260  VAL260      0.2260
     42  O         14.1890    5.7530   65.0830 O.2   260  VAL260     -0.2867
     43  CB        14.3530    5.0040   62.1410 C.3   260  VAL260      0.0252
     44  CG1       14.7460    6.4810   61.8980 C.3   260  VAL260      0.0019
     45  CG2       14.5300    4.1040   60.8440 C.3   260  VAL260      0.0019
     46  N         17.4270    8.5220   64.4310 N.3   262  ASN262     -0.1225
     47  CA        18.0560    9.8080   64.0760 C.3   262  ASN262      0.1785
     48  C         17.1180   10.8470   63.4750 C.2   262  ASN262      0.2597
     49  O         17.5940   11.8890   63.0150 O.2   262  ASN262     -0.2718
     50  CB        19.2610    9.6160   63.1210 C.3   262  ASN262      0.1169
     51  CG        18.8820    8.9130   61.8120 C.2   262  ASN262      0.2627
     52  OD1       17.7090    8.6020   61.5410 O.2   262  ASN262     -0.2716
     53  ND2       19.8720    8.6810   60.9920 N.am  262  ASN262     -0.0877
     54  N         15.8150   10.5590   63.4360 N.am  263  MET263     -0.1979
     55  CA        14.8720   11.5030   62.8210 C.3   263  MET263      0.1605
     56  C         14.2480   12.4490   63.8320 C.2   263  MET263      0.2287
     57  O         14.4120   12.2430   65.0440 O.2   263  MET263     -0.2864
     58  CB        13.8450   10.8190   61.9050 C.3   263  MET263      0.0413
     59  CG        14.5720   10.0990   60.6880 C.3   263  MET263      0.0598
     60  SD        13.3170    9.3700   59.6250 S.3   263  MET263     -0.1393
     61  CE        12.7620   10.8050   58.6310 C.3   263  MET263      0.0692
     62  N         11.7560    5.1540   66.7800 N.3   277  PHE277     -0.1227
     63  CA        10.5560    4.3740   66.5060 C.3   277  PHE277      0.1736
     64  C         10.9170    3.0400   65.8130 C.2   277  PHE277      0.2596
     65  O         11.9540    2.9170   65.1740 O.2   277  PHE277     -0.2718
     66  CB         9.6020    5.1940   65.6780 C.3   277  PHE277      0.0547
     67  CG        10.2190    5.7220   64.3570 C.ar  277  PHE277     -0.0202
     68  CD1       10.1960    4.9460   63.2100 C.ar  277  PHE277     -0.0042
     69  CD2       10.7340    7.0200   64.2800 C.ar  277  PHE277     -0.0042
     70  CE1       10.7160    5.4450   61.9920 C.ar  277  PHE277     -0.0003
     71  CE2       11.2910    7.5290   63.0920 C.ar  277  PHE277     -0.0003
     72  CZ        11.2720    6.7290   61.9340 C.ar  277  PHE277     -0.0000
     73  N         10.0540    2.0560   65.9350 N.am  278  SER278     -0.1938
     74  CA        10.3910    0.7150   65.4550 C.3   278  SER278      0.2055
     75  C          9.1480    0.0510   64.9340 C.2   278  SER278      0.2644
     76  O          8.0600    0.3980   65.3560 O.2   278  SER278     -0.2714
     77  CB        11.0780   -0.1390   66.5690 C.3   278  SER278      0.2130
     78  OG        10.2360   -0.3730   67.7130 O.3   278  SER278     -0.2179
     79  N          9.3220   -0.8770   63.9850 N.am  279  GLY279     -0.1939
     80  CA         8.2180   -1.6860   63.5030 C.3   279  GLY279      0.2014
     81  C          8.7150   -3.1240   63.3750 C.2   279  GLY279      0.2639
     82  O          9.2880   -3.6900   64.3300 O.2   279  GLY279     -0.2714
     83  N          8.5120   -3.7000   62.1880 N.am  280  TRP280     -0.1959
     84  CA         9.1150   -4.9900   61.8330 C.3   280  TRP280      0.1771
     85  C          9.6440   -4.9220   60.3800 C.2   280  TRP280      0.2620
     86  O          9.2240   -4.0700   59.6030 O.2   280  TRP280     -0.2715
     87  CB         8.1240   -6.1330   61.9840 C.3   280  TRP280      0.0590
     88  CG         6.8140   -5.9830   61.2900 C.ar  280  TRP280      0.0006
     89  CD1        6.5590   -6.2220   59.9640 C.ar  280  TRP280      0.0946
     90  CD2        5.5580   -5.6040   61.8760 C.ar  280  TRP280      0.0152
     91  NE1        5.2230   -6.0110   59.6950 N.ar  280  TRP280     -0.2442
     92  CE2        4.5880   -5.6310   60.8510 C.ar  280  TRP280      0.0810
     93  CE3        5.1610   -5.2370   63.1720 C.ar  280  TRP280      0.0012
     94  CZ2        3.2320   -5.3040   61.0780 C.ar  280  TRP280      0.0191
     95  CZ3        3.8240   -4.9300   63.4080 C.ar  280  TRP280      0.0001
     96  CH2        2.8630   -4.9790   62.3660 C.ar  280  TRP280      0.0015
     97  N         10.5380   -5.8230   60.0180 N.am  281  TYR281     -0.1960
     98  CA        11.1990   -5.7270   58.7300 C.3   281  TYR281      0.1771
     99  C         10.3640   -6.1870   57.5530 C.2   281  TYR281      0.2619
    100  O          9.5420   -7.0960   57.6700 O.2   281  TYR281     -0.2715
    101  CB        12.4590   -6.5650   58.7230 C.3   281  TYR281      0.0574
    102  CG        13.7160   -5.8330   59.1100 C.ar  281  TYR281     -0.0198
    103  CD1       14.3680   -6.0920   60.3350 C.ar  281  TYR281     -0.0009
    104  CD2       14.2680   -4.9020   58.2530 C.ar  281  TYR281     -0.0009
    105  CE1       15.5420   -5.4170   60.6830 C.ar  281  TYR281      0.0417
    106  CE2       15.4460   -4.2180   58.5830 C.ar  281  TYR281      0.0417
    107  CZ        16.0690   -4.4820   59.7960 C.ar  281  TYR281      0.1957
    108  OH        17.2480   -3.8350   60.0490 O.3   281  TYR281     -0.2866
    109  N         10.6170   -5.5660   56.4080 N.am  282  MET282     -0.1977
    110  CA        10.2470   -6.1680   55.1250 C.3   282  MET282      0.1605
    111  C         11.5300   -6.8520   54.6720 C.2   282  MET282      0.2287
    112  O         12.6100   -6.2630   54.7980 O.2   282  MET282     -0.2864
    113  CB         9.7890   -5.0660   54.1450 C.3   282  MET282      0.0413
    114  CG         9.4180   -5.5840   52.6830 C.3   282  MET282      0.0598
    115  SD         8.6360   -4.3140   51.6520 S.3   282  MET282     -0.1393
    116  CE        10.0670   -3.3090   51.2230 C.3   282  MET282      0.0692
    117  N         14.7240   -5.2490   52.8690 N.3   285  GLU285     -0.1245
    118  CA        15.5940   -4.3000   53.5590 C.3   285  GLU285      0.1567
    119  C         16.8930   -4.9920   53.9840 C.2   285  GLU285      0.2260
    120  O         17.9740   -4.4140   53.8100 O.2   285  GLU285     -0.2867
    121  CB        14.9370   -3.7320   54.8100 C.3   285  GLU285      0.0388
    122  CG        13.6290   -2.9600   54.5370 C.3   285  GLU285      0.1160
    123  CD        13.0240   -2.4630   55.8200 C.2   285  GLU285      0.3649
    124  OE1       13.5740   -1.4660   56.3400 O.co2 285  GLU285     -0.2457
    125  OE2       11.9790   -3.0090   56.2740 O.co2 285  GLU285     -0.2457
    126  N         19.2170   -4.8210   50.5090 N.3   289  ARG289     -0.1231
    127  CA        20.0430   -3.6370   50.8370 C.3   289  ARG289      0.1694
    128  C         21.2180   -3.9380   51.8190 C.2   289  ARG289      0.2592
    129  O         22.4000   -3.7070   51.4840 O.2   289  ARG289     -0.2718
    130  CB        19.1430   -2.4870   51.3500 C.3   289  ARG289      0.0321
    131  CG        17.9630   -2.1240   50.4100 C.3   289  ARG289      0.0489
    132  CD        18.3780   -1.6950   48.9690 C.3   289  ARG289      0.2205
    133  NE        19.5030   -0.7390   48.9970 N.pl3 289  ARG289     -0.0865
    134  CZ        19.3590    0.5560   49.3220 C.cat 289  ARG289      0.5346
    135  NH1       18.1450    1.0500   49.5830 N.pl3 289  ARG289      0.1354
    136  NH2       20.4140    1.3660   49.3820 N.pl3 289  ARG289      0.1354
    137  N         20.8920   -4.3830   53.0330 N.am  290  ASP290     -0.1974
    138  CA        21.9210   -4.6590   54.0540 C.3   290  ASP290      0.1709
    139  C         22.9440   -5.6910   53.5720 C.2   290  ASP290      0.2293
    140  O         24.1490   -5.5270   53.7980 O.2   290  ASP290     -0.2864
    141  CB        21.2820   -5.1280   55.3760 C.3   290  ASP290      0.1436
    142  CG        20.3560   -4.0760   55.9810 C.2   290  ASP290      0.3671
    143  OD1       20.7230   -2.9060   55.8960 O.co2 290  ASP290     -0.2456
    144  OD2       19.2790   -4.3960   56.5480 O.co2 290  ASP290     -0.2456
    145  N         10.9330    5.4220   46.7510 N.3   371  TRP371     -0.1241
    146  CA        11.1500    4.6520   47.9740 C.3   371  TRP371      0.1605
    147  C         10.2000    3.4880   48.1900 C.2   371  TRP371      0.2264
    148  O         10.5600    2.4700   48.7760 O.2   371  TRP371     -0.2867
    149  CB        11.0600    5.6170   49.1800 C.3   371  TRP371      0.0550
    150  CG        12.3850    6.3060   49.4490 C.ar  371  TRP371      0.0003
    151  CD1       13.0590    7.1400   48.6150 C.ar  371  TRP371      0.0946
    152  CD2       13.1810    6.1810   50.6300 C.ar  371  TRP371      0.0152
    153  NE1       14.2370    7.5590   49.2070 N.ar  371  TRP371     -0.2442
    154  CE2       14.3310    6.9880   50.4490 C.ar  371  TRP371      0.0810
    155  CE3       13.0200    5.4940   51.8410 C.ar  371  TRP371      0.0012
    156  CZ2       15.3300    7.0970   51.4300 C.ar  371  TRP371      0.0191
    157  CZ3       14.0130    5.6160   52.8330 C.ar  371  TRP371      0.0001
    158  CH2       15.1380    6.4060   52.6170 C.ar  371  TRP371      0.0015
    159  N         14.4470   14.6130   58.4300 N.3   399  TYR399     -0.1241
    160  CA        15.8730   14.3790   58.6520 C.3   399  TYR399      0.1605
    161  C         16.4560   15.5000   59.4590 C.2   399  TYR399      0.2264
    162  O         15.9060   16.5930   59.4860 O.2   399  TYR399     -0.2867
    163  CB        16.5980   14.2620   57.3090 C.3   399  TYR399      0.0534
    164  CG        16.1060   13.0690   56.5230 C.ar  399  TYR399     -0.0201
    165  CD1       15.4970   13.2600   55.2820 C.ar  399  TYR399     -0.0009
    166  CD2       16.2310   11.7620   57.0300 C.ar  399  TYR399     -0.0009
    167  CE1       15.0460   12.1860   54.5330 C.ar  399  TYR399      0.0417
    168  CE2       15.7810   10.6600   56.2970 C.ar  399  TYR399      0.0417
    169  CZ        15.1830   10.9010   55.0360 C.ar  399  TYR399      0.1957
    170  OH        14.7180    9.8850   54.2310 O.3   399  TYR399     -0.2866
@<TRIPOS>BOND
     1   145   146    1
     2     1     2    1
     3   146   147    1
     4   146   149    1
     5   147   148    2
     6   151   153   ar
     7   151   150   ar
     8     2     5    1
     9     2     3    1
    10   132   133    1
    11   132   131    1
    12   133   134    2
    13   149   150    1
    14   153   154   ar
    15     5     6    1
    16   134   136    1
    17   134   135    1
    18   150   152   ar
    19     8     7    1
    20     7     6    1
    21     3     9   am
    22     3     4    2
    23     9    10    1
    24    12    11    2
    25    11    10    1
    26   131   130    1
    27   154   152   ar
    28   154   156   ar
    29   126   127    1
    30   152   155   ar
    31   127   130    1
    32   127   128    1
    33    10    13    1
    34   116   115    1
    35   156   158   ar
    36   129   128    2
    37   115   114    1
    38   128   137   am
    39   155   157   ar
    40    13    14    1
    41    14    15    1
    42    14    16    1
    43   158   157   ar
    44   114   113    1
    45   117   118    1
    46   137   138    1
    47   118   119    1
    48   118   121    1
    49   139   140    2
    50   139   138    1
    51   120   119    2
    52   138   141    1
    53   113   110    1
    54   170   169    1
    55   167   169   ar
    56   167   165   ar
    57   122   121    1
    58   122   123    1
    59   111   112    2
    60   111   110    1
    61   169   168   ar
    62   110   109    1
    63   165   164   ar
    64   141   142    1
    65   123   125   ar
    66   123   124   ar
    67   143   142   ar
    68   142   144   ar
    69   168   166   ar
    70   109    99   am
    71   164   166   ar
    72   164   163    1
    73   163   160    1
    74    99   100    2
    75    99    98    1
    76   104   106   ar
    77   104   102   ar
    78   159   160    1
    79   106   107   ar
    80    61    60    1
    81   160   161    1
    82   101    98    1
    83   101   102    1
    84    98    97    1
    85   102   103   ar
    86   161   162    2
    87    86    85    2
    88    60    59    1
    89    91    89   ar
    90    91    92   ar
    91   107   108    1
    92   107   105   ar
    93    31    29   am
    94    89    88   ar
    95    97    85   am
    96   103   105   ar
    97    85    84    1
    98    59    58    1
    99    45    43    1
   100    92    94   ar
   101    92    90   ar
   102    53    51   am
   103    94    96   ar
   104    29    30    2
   105    29    28    1
   106    88    90   ar
   107    88    87    1
   108    36    37    1
   109    36    33    1
   110    52    51    2
   111    37    38    1
   112    51    50    1
   113    84    87    1
   114    84    83    1
   115    22    21    1
   116    90    93   ar
   117    44    43    1
   118    58    55    1
   119    72    70   ar
   120    72    71   ar
   121    70    68   ar
   122    21    18    1
   123    28    27    1
   124    43    40    1
   125    83    81   am
   126    96    95   ar
   127    33    32    1
   128    33    34    1
   129    55    54    1
   130    55    56    1
   131    38    32    1
   132    49    48    2
   133    71    69   ar
   134    50    47    1
   135    20    19    2
   136    93    95   ar
   137    68    67   ar
   138    40    39    1
   139    40    41    1
   140    18    19    1
   141    18    17    1
   142    81    80    1
   143    81    82    2
   144    27    24    1
   145    54    48   am
   146    48    47    1
   147    80    79    1
   148    19    23   am
   149    34    35    2
   150    56    57    2
   151    79    75   am
   152    23    24    1
   153    47    46    1
   154    69    67   ar
   155    67    66    1
   156    24    25    1
   157    41    42    2
   158    75    76    2
   159    75    74    1
   160    65    64    2
   161    74    73    1
   162    74    77    1
   163    66    63    1
   164    25    26    2
   165    64    73   am
   166    64    63    1
   167    63    62    1
   168    77    78    1
