@<TRIPOS>MOLECULE
tmp/3tymB03.pdb
 169 167 0 0 0
SMALL
GASTEIGER

@<TRIPOS>ATOM
      1  N         17.9260   12.2840   47.5240 N.3    38  MET38      -0.1230
      2  CA        17.7410   11.6570   48.8440 C.3    38  MET38       0.1702
      3  C         17.3910   12.6390   49.9660 C.2    38  MET38       0.2592
      4  O         16.4930   12.3690   50.7550 O.2    38  MET38      -0.2718
      5  CB        18.9670   10.8600   49.2590 C.3    38  MET38       0.0401
      6  CG        19.2400    9.6550   48.4070 C.3    38  MET38       0.0596
      7  SD        19.3800    8.2150   49.4780 S.3    38  MET38      -0.1393
      8  CE        17.6530    8.0200   49.7800 C.3    38  MET38       0.0692
      9  N         18.1130   13.7600   50.0350 N.am   39  LEU39      -0.1980
     10  CA        17.8650   14.7980   51.0500 C.3    39  LEU39       0.1596
     11  C         17.6090   16.1340   50.3520 C.2    39  LEU39       0.2287
     12  O         18.5370   16.9140   50.1550 O.2    39  LEU39      -0.2864
     13  CB        19.0610   14.9120   52.0090 C.3    39  LEU39       0.0297
     14  CG        19.6600   13.5950   52.5290 C.3    39  LEU39       0.0022
     15  CD1       21.0670   13.7770   53.1660 C.3    39  LEU39       0.0001
     16  CD2       18.6920   12.9170   53.4870 C.3    39  LEU39       0.0001
     17  N         22.0500    5.9300   64.3810 N.3   170  SER170     -0.1202
     18  CA        21.0410    6.0950   63.3490 C.3   170  SER170      0.2020
     19  C         19.8860    5.0840   63.5200 C.2   170  SER170      0.2618
     20  O         18.7700    5.3910   63.1580 O.2   170  SER170     -0.2717
     21  CB        21.6690    6.0310   61.9460 C.3   170  SER170      0.2103
     22  OG        22.3490    4.7970   61.7590 O.3   170  SER170     -0.2182
     23  N         20.1560    3.8800   64.0190 N.am  171  GLN171     -0.1979
     24  CA        19.0950    2.9460   64.4090 C.3   171  GLN171      0.1601
     25  C         19.5150    2.4090   65.7750 C.2   171  GLN171      0.2287
     26  O         20.7190    2.3530   66.0790 O.2   171  GLN171     -0.2864
     27  CB        18.9170    1.7650   63.4370 C.3   171  GLN171      0.0394
     28  CG        18.4890    2.0510   61.9920 C.3   171  GLN171      0.0908
     29  CD        18.5110    0.7680   61.0960 C.2   171  GLN171      0.2608
     30  OE1       18.0660   -0.3360   61.4970 O.2   171  GLN171     -0.2717
     31  NE2       19.0060    0.9230   59.8980 N.am  171  GLN171     -0.0878
     32  N         28.5170    0.7450   56.3830 N.3   190  ALA190     -0.1245
     33  CA        27.6680    1.9180   56.6340 C.3   190  ALA190      0.1562
     34  C         27.9670    2.5490   57.9900 C.2   190  ALA190      0.2260
     35  O         27.6810    3.7230   58.1710 O.2   190  ALA190     -0.2867
     36  CB        26.1540    1.5340   56.5910 C.3   190  ALA190      0.0290
     37  N         13.8690   -3.4000   63.4500 N.3   258  PRO258     -0.2102
     38  CA        14.2810   -2.1910   62.7520 C.3   258  PRO258      0.1504
     39  C         13.7300   -0.9840   63.5250 C.2   258  PRO258      0.2576
     40  O         12.5090   -0.8700   63.7600 O.2   258  PRO258     -0.2718
     41  CB        13.6090   -2.3280   61.3760 C.3   258  PRO258      0.0282
     42  CG        12.3580   -3.1330   61.6340 C.3   258  PRO258      0.0208
     43  CD        12.6180   -3.9600   62.8990 C.3   258  PRO258      0.0893
     44  N         14.6190   -0.0830   63.9070 N.am  259  ALA259     -0.1966
     45  CA        14.2460    0.9820   64.8300 C.3   259  ALA259      0.1728
     46  C         15.0250    2.2610   64.5510 C.2   259  ALA259      0.2616
     47  O         16.2060    2.4000   65.0070 O.2   259  ALA259     -0.2715
     48  CB        14.4470    0.5280   66.2670 C.3   259  ALA259      0.0334
     49  N         14.3840    3.1840   63.8230 N.am  260  VAL260     -0.1977
     50  CA        15.0630    4.4060   63.3140 C.3   260  VAL260      0.1596
     51  C         15.1560    5.4150   64.4440 C.2   260  VAL260      0.2287
     52  O         14.1450    5.7640   65.0440 O.2   260  VAL260     -0.2864
     53  CB        14.3300    4.9950   62.0990 C.3   260  VAL260      0.0276
     54  CG1       14.7170    6.4690   61.8230 C.3   260  VAL260      0.0022
     55  CG2       14.5560    4.1180   60.8290 C.3   260  VAL260      0.0022
     56  N         17.4300    8.5150   64.3700 N.3   262  ASN262     -0.1225
     57  CA        18.0400    9.8020   64.0050 C.3   262  ASN262      0.1785
     58  C         17.1000   10.8560   63.3800 C.2   262  ASN262      0.2597
     59  O         17.5690   11.8720   62.8550 O.2   262  ASN262     -0.2718
     60  CB        19.2640    9.5800   63.0850 C.3   262  ASN262      0.1169
     61  CG        18.8750    8.9390   61.7510 C.2   262  ASN262      0.2627
     62  OD1       17.6890    8.6070   61.4990 O.2   262  ASN262     -0.2716
     63  ND2       19.8520    8.7290   60.9160 N.am  262  ASN262     -0.0877
     64  N         15.7930   10.6150   63.4100 N.am  263  MET263     -0.1979
     65  CA        14.8540   11.5390   62.7790 C.3   263  MET263      0.1605
     66  C         14.2340   12.4950   63.7870 C.2   263  MET263      0.2287
     67  O         14.3840   12.2840   64.9910 O.2   263  MET263     -0.2864
     68  CB        13.7970   10.7820   61.9540 C.3   263  MET263      0.0413
     69  CG        14.4500   10.1490   60.6920 C.3   263  MET263      0.0598
     70  SD        13.2810    9.3940   59.5850 S.3   263  MET263     -0.1393
     71  CE        12.7110   10.7640   58.5390 C.3   263  MET263      0.0692
     72  N         11.7030    5.1200   66.7030 N.3   277  PHE277     -0.1227
     73  CA        10.4850    4.3660   66.4090 C.3   277  PHE277      0.1736
     74  C         10.8670    3.0360   65.7390 C.2   277  PHE277      0.2596
     75  O         11.9510    2.9060   65.1490 O.2   277  PHE277     -0.2718
     76  CB         9.5120    5.1750   65.5450 C.3   277  PHE277      0.0547
     77  CG        10.1270    5.7020   64.2450 C.ar  277  PHE277     -0.0202
     78  CD1       10.0870    4.9510   63.0830 C.ar  277  PHE277     -0.0042
     79  CD2       10.6960    6.9780   64.1920 C.ar  277  PHE277     -0.0042
     80  CE1       10.6360    5.4370   61.8930 C.ar  277  PHE277     -0.0003
     81  CE2       11.2390    7.4710   63.0090 C.ar  277  PHE277     -0.0003
     82  CZ        11.2040    6.7000   61.8570 C.ar  277  PHE277     -0.0000
     83  N          9.9950    2.0490   65.8660 N.am  278  SER278     -0.1938
     84  CA        10.3170    0.7140   65.4050 C.3   278  SER278      0.2055
     85  C          9.0830    0.0340   64.8770 C.2   278  SER278      0.2644
     86  O          7.9700    0.3200   65.3240 O.2   278  SER278     -0.2714
     87  CB        10.9940   -0.1300   66.5330 C.3   278  SER278      0.2130
     88  OG        10.1170   -0.2820   67.6520 O.3   278  SER278     -0.2179
     89  N          9.2770   -0.8400   63.8900 N.am  279  GLY279     -0.1939
     90  CA         8.2020   -1.7160   63.4450 C.3   279  GLY279      0.2014
     91  C          8.7000   -3.1520   63.2810 C.2   279  GLY279      0.2639
     92  O          9.2520   -3.7470   64.2160 O.2   279  GLY279     -0.2714
     93  N          8.5090   -3.7000   62.0890 N.am  280  TRP280     -0.1959
     94  CA         9.1030   -4.9940   61.7250 C.3   280  TRP280      0.1771
     95  C          9.6400   -4.9290   60.2670 C.2   280  TRP280      0.2620
     96  O          9.2270   -4.0780   59.4810 O.2   280  TRP280     -0.2715
     97  CB         8.1040   -6.1460   61.9300 C.3   280  TRP280      0.0590
     98  CG         6.7570   -5.9970   61.2560 C.ar  280  TRP280      0.0006
     99  CD1        6.4710   -6.2390   59.9300 C.ar  280  TRP280      0.0946
    100  CD2        5.5070   -5.6110   61.8640 C.ar  280  TRP280      0.0152
    101  NE1        5.1390   -6.0020   59.6860 N.ar  280  TRP280     -0.2442
    102  CE2        4.5230   -5.6280   60.8510 C.ar  280  TRP280      0.0810
    103  CE3        5.1270   -5.2470   63.1700 C.ar  280  TRP280      0.0012
    104  CZ2        3.1670   -5.2960   61.1010 C.ar  280  TRP280      0.0191
    105  CZ3        3.7960   -4.9220   63.4240 C.ar  280  TRP280      0.0001
    106  CH2        2.8220   -4.9620   62.3960 C.ar  280  TRP280      0.0015
    107  N         10.5860   -5.7970   59.9320 N.am  281  TYR281     -0.1960
    108  CA        11.2440   -5.7160   58.6420 C.3   281  TYR281      0.1771
    109  C         10.3910   -6.1740   57.4720 C.2   281  TYR281      0.2619
    110  O          9.5620   -7.0860   57.5960 O.2   281  TYR281     -0.2715
    111  CB        12.5040   -6.5540   58.6490 C.3   281  TYR281      0.0574
    112  CG        13.7470   -5.8290   59.0750 C.ar  281  TYR281     -0.0198
    113  CD1       14.3810   -6.1290   60.2910 C.ar  281  TYR281     -0.0009
    114  CD2       14.3050   -4.8520   58.2560 C.ar  281  TYR281     -0.0009
    115  CE1       15.5390   -5.4670   60.6730 C.ar  281  TYR281      0.0417
    116  CE2       15.4690   -4.1960   58.6160 C.ar  281  TYR281      0.0417
    117  CZ        16.0800   -4.5110   59.8230 C.ar  281  TYR281      0.1957
    118  OH        17.2290   -3.8500   60.1210 O.3   281  TYR281     -0.2866
    119  N         10.6200   -5.5470   56.3220 N.am  282  MET282     -0.1977
    120  CA        10.2590   -6.1610   55.0410 C.3   282  MET282      0.1605
    121  C         11.5240   -6.8740   54.6040 C.2   282  MET282      0.2287
    122  O         12.6210   -6.3270   54.7480 O.2   282  MET282     -0.2864
    123  CB         9.8190   -5.0900   54.0380 C.3   282  MET282      0.0413
    124  CG         9.4610   -5.6170   52.6150 C.3   282  MET282      0.0598
    125  SD         8.6150   -4.3840   51.5860 S.3   282  MET282     -0.1393
    126  CE        10.0360   -3.3650   51.0980 C.3   282  MET282      0.0692
    127  N         14.7750   -5.3140   52.8640 N.3   285  GLU285     -0.1245
    128  CA        15.6590   -4.3580   53.5420 C.3   285  GLU285      0.1567
    129  C         16.9540   -5.0440   53.9670 C.2   285  GLU285      0.2260
    130  O         18.0530   -4.4570   53.8650 O.2   285  GLU285     -0.2867
    131  CB        14.9730   -3.7410   54.7610 C.3   285  GLU285      0.0388
    132  CG        13.6770   -2.9880   54.4470 C.3   285  GLU285      0.1160
    133  CD        12.9870   -2.4830   55.7200 C.2   285  GLU285      0.3649
    134  OE1       13.4690   -1.4850   56.2830 O.co2 285  GLU285     -0.2457
    135  OE2       11.9500   -3.0490   56.1450 O.co2 285  GLU285     -0.2457
    136  N         20.8460   -4.4330   52.9180 N.3   290  ASP290     -0.1239
    137  CA        21.8370   -4.6570   53.9560 C.3   290  ASP290      0.1674
    138  C         22.8770   -5.6790   53.4840 C.2   290  ASP290      0.2266
    139  O         24.0850   -5.5090   53.7130 O.2   290  ASP290     -0.2867
    140  CB        21.1700   -5.1040   55.2780 C.3   290  ASP290      0.1410
    141  CG        20.3250   -4.0120   55.9010 C.2   290  ASP290      0.3668
    142  OD1       20.7440   -2.8580   55.8170 O.co2 290  ASP290     -0.2456
    143  OD2       19.2420   -4.2860   56.4830 O.co2 290  ASP290     -0.2456
    144  N         10.9350    5.4150   46.7000 N.3   371  TRP371     -0.1241
    145  CA        11.1270    4.6550   47.9290 C.3   371  TRP371      0.1605
    146  C         10.1600    3.5010   48.1400 C.2   371  TRP371      0.2264
    147  O         10.5130    2.4780   48.7250 O.2   371  TRP371     -0.2867
    148  CB        11.0660    5.6150   49.1410 C.3   371  TRP371      0.0550
    149  CG        12.3830    6.3330   49.3640 C.ar  371  TRP371      0.0003
    150  CD1       13.0250    7.1830   48.4950 C.ar  371  TRP371      0.0946
    151  CD2       13.2090    6.2440   50.5200 C.ar  371  TRP371      0.0152
    152  NE1       14.2070    7.6170   49.0420 N.ar  371  TRP371     -0.2442
    153  CE2       14.3440    7.0600   50.2880 C.ar  371  TRP371      0.0810
    154  CE3       13.1010    5.5680   51.7410 C.ar  371  TRP371      0.0012
    155  CZ2       15.3570    7.2130   51.2420 C.ar  371  TRP371      0.0191
    156  CZ3       14.1260    5.7200   52.6960 C.ar  371  TRP371      0.0001
    157  CH2       15.2270    6.5320   52.4330 C.ar  371  TRP371      0.0015
    158  N         14.3660   14.7300   58.3860 N.3   399  TYR399     -0.1241
    159  CA        15.7960   14.4980   58.6240 C.3   399  TYR399      0.1605
    160  C         16.4080   15.6360   59.4040 C.2   399  TYR399      0.2264
    161  O         15.8700   16.7340   59.4470 O.2   399  TYR399     -0.2867
    162  CB        16.5470   14.3290   57.3010 C.3   399  TYR399      0.0534
    163  CG        16.0310   13.1740   56.5100 C.ar  399  TYR399     -0.0201
    164  CD1       15.4440   13.3910   55.2640 C.ar  399  TYR399     -0.0009
    165  CD2       16.0970   11.8680   57.0160 C.ar  399  TYR399     -0.0009
    166  CE1       14.9510   12.3410   54.5150 C.ar  399  TYR399      0.0417
    167  CE2       15.5890   10.8000   56.2880 C.ar  399  TYR399      0.0417
    168  CZ        15.0220   11.0630   55.0240 C.ar  399  TYR399      0.1957
    169  OH        14.5300   10.0670   54.2400 O.3   399  TYR399     -0.2866
@<TRIPOS>BOND
     1   144   145    1
     2     1     2    1
     3   145   146    1
     4   145   148    1
     5   146   147    2
     6     6     5    1
     7     6     7    1
     8   150   152   ar
     9   150   149   ar
    10     2     5    1
    11     2     3    1
    12   152   153   ar
    13   148   149    1
    14   149   151   ar
    15     7     8    1
    16     3     9   am
    17     3     4    2
    18     9    10    1
    19    12    11    2
    20   153   151   ar
    21   153   155   ar
    22    11    10    1
    23   151   154   ar
    24    10    13    1
    25   126   125    1
    26   155   157   ar
    27   125   124    1
    28   154   156   ar
    29    13    14    1
    30   157   156   ar
    31    14    15    1
    32    14    16    1
    33   124   123    1
    34   127   128    1
    35   136   137    1
    36   138   139    2
    37   138   137    1
    38   128   129    1
    39   128   131    1
    40   130   129    2
    41   137   140    1
    42   123   120    1
    43   169   168    1
    44   132   131    1
    45   132   133    1
    46   166   168   ar
    47   166   164   ar
    48   121   122    2
    49   121   120    1
    50   168   167   ar
    51   120   119    1
    52   164   163   ar
    53   140   141    1
    54   133   135   ar
    55   133   134   ar
    56   142   141   ar
    57   141   143   ar
    58   167   165   ar
    59   119   109   am
    60    32    33    1
    61   163   165   ar
    62   163   162    1
    63    36    33    1
    64    33    34    1
    65   162   159    1
    66   109   110    2
    67   109   108    1
    68    34    35    2
    69   114   116   ar
    70   114   112   ar
    71   158   159    1
    72    71    70    1
    73   116   117   ar
    74   159   160    1
    75   108   111    1
    76   108   107    1
    77   111   112    1
    78   112   113   ar
    79   160   161    2
    80    96    95    2
    81    70    69    1
    82   101    99   ar
    83   101   102   ar
    84   117   118    1
    85   117   115   ar
    86    31    29   am
    87    99    98   ar
    88   107    95   am
    89    95    94    1
    90   113   115   ar
    91    69    68    1
    92    55    53    1
    93   102   104   ar
    94   102   100   ar
    95    63    61   am
    96    29    30    2
    97    29    28    1
    98   104   106   ar
    99    98   100   ar
   100    98    97    1
   101    41    42    1
   102    41    38    1
   103    62    61    2
   104    42    43    1
   105    94    97    1
   106    94    93    1
   107    61    60    1
   108    22    21    1
   109    54    53    1
   110    82    80   ar
   111    82    81   ar
   112   100   103   ar
   113    80    78   ar
   114    21    18    1
   115    68    65    1
   116    28    27    1
   117    93    91   am
   118    53    50    1
   119   106   105   ar
   120    38    37    1
   121    38    39    1
   122    65    64    1
   123    65    66    1
   124    59    58    2
   125    43    37    1
   126    81    79   ar
   127    78    77   ar
   128    60    57    1
   129    20    19    2
   130   103   105   ar
   131    91    90    1
   132    91    92    2
   133    50    49    1
   134    50    51    1
   135    18    19    1
   136    18    17    1
   137    58    64   am
   138    58    57    1
   139    27    24    1
   140    90    89    1
   141    19    23   am
   142    39    40    2
   143    39    44   am
   144    66    67    2
   145    49    46   am
   146    89    85   am
   147    44    45    1
   148    57    56    1
   149    23    24    1
   150    79    77   ar
   151    77    76    1
   152    24    25    1
   153    51    52    2
   154    46    45    1
   155    46    47    2
   156    45    48    1
   157    85    86    2
   158    85    84    1
   159    75    74    2
   160    84    83    1
   161    84    87    1
   162    76    73    1
   163    74    83   am
   164    74    73    1
   165    25    26    2
   166    73    72    1
   167    87    88    1
