@<TRIPOS>MOLECULE
tmp/3tyoB03.pdb
 186 184 0 0 0
SMALL
GASTEIGER

@<TRIPOS>ATOM
      1  N         17.9210   12.2830   47.5150 N.3    38  MET38      -0.1230
      2  CA        17.7320   11.5970   48.7970 C.3    38  MET38       0.1702
      3  C         17.4030   12.5470   49.9690 C.2    38  MET38       0.2592
      4  O         16.4560   12.2990   50.7340 O.2    38  MET38      -0.2718
      5  CB        18.9700   10.7640   49.1210 C.3    38  MET38       0.0401
      6  CG        18.8140    9.9190   50.3670 C.3    38  MET38       0.0596
      7  SD        18.6720    8.1910   49.8750 S.3    38  MET38      -0.1393
      8  CE        20.3850    7.8490   49.5560 C.3    38  MET38       0.0692
      9  N         18.1870   13.6190   50.1040 N.am   39  LEU39      -0.1980
     10  CA        17.9930   14.6210   51.1740 C.3    39  LEU39       0.1596
     11  C         17.7370   15.9900   50.5480 C.2    39  LEU39       0.2287
     12  O         18.6550   16.7900   50.3700 O.2    39  LEU39      -0.2864
     13  CB        19.2010   14.6700   52.1300 C.3    39  LEU39       0.0297
     14  CG        19.7860   13.3330   52.6220 C.3    39  LEU39       0.0022
     15  CD1       21.1270   13.4840   53.4080 C.3    39  LEU39       0.0001
     16  CD2       18.7670   12.5180   53.4360 C.3    39  LEU39       0.0001
     17  N         22.0430    5.9010   64.4380 N.3   170  SER170     -0.1202
     18  CA        21.1140    6.0710   63.3510 C.3   170  SER170      0.2020
     19  C         19.9230    5.1090   63.5200 C.2   170  SER170      0.2618
     20  O         18.8320    5.4540   63.1370 O.2   170  SER170     -0.2717
     21  CB        21.8140    5.8820   61.9910 C.3   170  SER170      0.2103
     22  OG        22.4310    4.6000   61.8980 O.3   170  SER170     -0.2182
     23  N         20.1570    3.9040   64.0440 N.am  171  GLN171     -0.1979
     24  CA        19.0970    2.9630   64.4560 C.3   171  GLN171      0.1601
     25  C         19.5280    2.4320   65.8090 C.2   171  GLN171      0.2287
     26  O         20.7360    2.3440   66.0910 O.2   171  GLN171     -0.2864
     27  CB        18.9210    1.7550   63.5020 C.3   171  GLN171      0.0394
     28  CG        18.5510    2.0450   62.0810 C.3   171  GLN171      0.0908
     29  CD        18.6500    0.7970   61.1690 C.2   171  GLN171      0.2608
     30  OE1       18.0930   -0.2880   61.4620 O.2   171  GLN171     -0.2717
     31  NE2       19.3600    0.9560   60.0740 N.am  171  GLN171     -0.0878
     32  N         22.3330   -1.8060   65.4660 N.3   174  ARG174     -0.1245
     33  CA        23.1190   -1.8980   64.2280 C.3   174  ARG174      0.1563
     34  C         24.4490   -2.5280   64.5850 C.2   174  ARG174      0.2260
     35  O         24.8390   -2.5350   65.7580 O.2   174  ARG174     -0.2867
     36  CB        23.4170   -0.5090   63.6610 C.3   174  ARG174      0.0307
     37  CG        22.2500    0.1870   63.0370 C.3   174  ARG174      0.0489
     38  CD        22.6680    1.2870   62.0710 C.3   174  ARG174      0.2205
     39  NE        22.8840    0.7760   60.7180 N.pl3 174  ARG174     -0.0865
     40  CZ        23.1660    1.5380   59.6640 C.cat 174  ARG174      0.5346
     41  NH1       23.2480    2.8460   59.7890 N.pl3 174  ARG174      0.1354
     42  NH2       23.3340    0.9920   58.4690 N.pl3 174  ARG174      0.1354
     43  N         13.8400   -3.4330   63.5030 N.3   258  PRO258     -0.2102
     44  CA        14.2410   -2.2280   62.8020 C.3   258  PRO258      0.1504
     45  C         13.7480   -0.9930   63.5760 C.2   258  PRO258      0.2576
     46  O         12.5370   -0.8160   63.7970 O.2   258  PRO258     -0.2718
     47  CB        13.5570   -2.3690   61.4520 C.3   258  PRO258      0.0282
     48  CG        12.2320   -3.0950   61.7730 C.3   258  PRO258      0.0208
     49  CD        12.5790   -4.0040   62.9690 C.3   258  PRO258      0.0893
     50  N         14.6710   -0.1370   64.0020 N.am  259  ALA259     -0.1966
     51  CA        14.2820    0.9780   64.8800 C.3   259  ALA259      0.1728
     52  C         15.0530    2.2570   64.5650 C.2   259  ALA259      0.2616
     53  O         16.2200    2.4000   65.0070 O.2   259  ALA259     -0.2715
     54  CB        14.4700    0.5940   66.3560 C.3   259  ALA259      0.0334
     55  N         14.4200    3.1790   63.8340 N.am  260  VAL260     -0.1977
     56  CA        15.1250    4.3900   63.3580 C.3   260  VAL260      0.1596
     57  C         15.2220    5.4050   64.5070 C.2   260  VAL260      0.2287
     58  O         14.2240    5.7150   65.1250 O.2   260  VAL260     -0.2864
     59  CB        14.4810    4.9730   62.0950 C.3   260  VAL260      0.0276
     60  CG1       14.9030    6.4460   61.8590 C.3   260  VAL260      0.0022
     61  CG2       14.8110    4.0600   60.8210 C.3   260  VAL260      0.0022
     62  N         17.4000    8.5200   64.4420 N.3   262  ASN262     -0.1225
     63  CA        18.0170    9.8120   64.1110 C.3   262  ASN262      0.1785
     64  C         17.1040   10.8560   63.4800 C.2   262  ASN262      0.2597
     65  O         17.5950   11.8950   63.0350 O.2   262  ASN262     -0.2718
     66  CB        19.2730    9.6150   63.2290 C.3   262  ASN262      0.1169
     67  CG        18.9420    8.9820   61.8850 C.2   262  ASN262      0.2627
     68  OD1       17.7730    8.6290   61.5980 O.2   262  ASN262     -0.2716
     69  ND2       19.9570    8.8140   61.0630 N.am  262  ASN262     -0.0877
     70  N         15.7940   10.5900   63.4150 N.am  263  MET263     -0.1979
     71  CA        14.8810   11.5480   62.7980 C.3   263  MET263      0.1605
     72  C         14.2420   12.4940   63.8140 C.2   263  MET263      0.2287
     73  O         14.3800   12.2810   65.0220 O.2   263  MET263     -0.2864
     74  CB        13.8260   10.8470   61.9250 C.3   263  MET263      0.0413
     75  CG        14.5020   10.1040   60.7410 C.3   263  MET263      0.0598
     76  SD        13.2660    9.4200   59.6550 S.3   263  MET263     -0.1393
     77  CE        12.7950   10.8320   58.6310 C.3   263  MET263      0.0692
     78  N         11.7590    5.1720   66.8120 N.3   277  PHE277     -0.1227
     79  CA        10.5830    4.3840   66.4980 C.3   277  PHE277      0.1736
     80  C         10.9440    3.0670   65.7980 C.2   277  PHE277      0.2596
     81  O         11.9700    2.9620   65.1370 O.2   277  PHE277     -0.2718
     82  CB         9.6060    5.2180   65.6570 C.3   277  PHE277      0.0547
     83  CG        10.2040    5.7640   64.3580 C.ar  277  PHE277     -0.0202
     84  CD1       10.2200    4.9850   63.2020 C.ar  277  PHE277     -0.0042
     85  CD2       10.6740    7.0750   64.2770 C.ar  277  PHE277     -0.0042
     86  CE1       10.7170    5.4930   61.9830 C.ar  277  PHE277     -0.0003
     87  CE2       11.2070    7.5760   63.0720 C.ar  277  PHE277     -0.0003
     88  CZ        11.2060    6.7830   61.9190 C.ar  277  PHE277     -0.0000
     89  N         10.0740    2.0850   65.9100 N.am  278  SER278     -0.1938
     90  CA        10.4000    0.7440   65.4480 C.3   278  SER278      0.2055
     91  C          9.1620    0.0610   64.9240 C.2   278  SER278      0.2644
     92  O          8.0660    0.3950   65.3420 O.2   278  SER278     -0.2714
     93  CB        11.0650   -0.0860   66.5890 C.3   278  SER278      0.2130
     94  OG        10.1460   -0.3460   67.6590 O.3   278  SER278     -0.2179
     95  N          9.3330   -0.8280   63.9430 N.am  279  GLY279     -0.1939
     96  CA         8.2470   -1.6950   63.5230 C.3   279  GLY279      0.2014
     97  C          8.7570   -3.1240   63.3690 C.2   279  GLY279      0.2639
     98  O          9.3820   -3.6900   64.2920 O.2   279  GLY279     -0.2714
     99  N          8.5100   -3.6990   62.1950 N.am  280  TRP280     -0.1959
    100  CA         9.1540   -4.9630   61.8090 C.3   280  TRP280      0.1771
    101  C          9.6490   -4.8810   60.3560 C.2   280  TRP280      0.2620
    102  O          9.1950   -4.0340   59.5850 O.2   280  TRP280     -0.2715
    103  CB         8.2120   -6.1460   61.9660 C.3   280  TRP280      0.0590
    104  CG         6.8830   -6.0150   61.2610 C.ar  280  TRP280      0.0006
    105  CD1        6.6140   -6.2770   59.9310 C.ar  280  TRP280      0.0946
    106  CD2        5.6490   -5.6040   61.8430 C.ar  280  TRP280      0.0152
    107  NE1        5.2770   -6.0620   59.6710 N.ar  280  TRP280     -0.2442
    108  CE2        4.6660   -5.6420   60.8260 C.ar  280  TRP280      0.0810
    109  CE3        5.2710   -5.1990   63.1410 C.ar  280  TRP280      0.0012
    110  CZ2        3.3230   -5.2920   61.0640 C.ar  280  TRP280      0.0191
    111  CZ3        3.9520   -4.8670   63.3820 C.ar  280  TRP280      0.0001
    112  CH2        2.9840   -4.9230   62.3480 C.ar  280  TRP280      0.0015
    113  N         10.5490   -5.7830   59.9910 N.am  281  TYR281     -0.1960
    114  CA        11.1990   -5.7460   58.6870 C.3   281  TYR281      0.1771
    115  C         10.3560   -6.2240   57.5250 C.2   281  TYR281      0.2619
    116  O          9.5170   -7.1330   57.6640 O.2   281  TYR281     -0.2715
    117  CB        12.4400   -6.6060   58.6830 C.3   281  TYR281      0.0574
    118  CG        13.7070   -5.8800   59.0730 C.ar  281  TYR281     -0.0198
    119  CD1       14.3430   -6.1330   60.3010 C.ar  281  TYR281     -0.0009
    120  CD2       14.2630   -4.9350   58.2240 C.ar  281  TYR281     -0.0009
    121  CE1       15.5140   -5.4460   60.6620 C.ar  281  TYR281      0.0417
    122  CE2       15.4310   -4.2550   58.5660 C.ar  281  TYR281      0.0417
    123  CZ        16.0460   -4.5200   59.7810 C.ar  281  TYR281      0.1957
    124  OH        17.2160   -3.8550   60.0600 O.3   281  TYR281     -0.2866
    125  N         10.6160   -5.6060   56.3790 N.am  282  MET282     -0.1977
    126  CA        10.2700   -6.1740   55.0860 C.3   282  MET282      0.1605
    127  C         11.5600   -6.8390   54.6500 C.2   282  MET282      0.2287
    128  O         12.6490   -6.2610   54.8160 O.2   282  MET282     -0.2864
    129  CB         9.8460   -5.0740   54.1050 C.3   282  MET282      0.0413
    130  CG         9.4670   -5.6040   52.6600 C.3   282  MET282      0.0598
    131  SD         8.6120   -4.3590   51.6370 S.3   282  MET282     -0.1393
    132  CE        10.0090   -3.3310   51.1210 C.3   282  MET282      0.0692
    133  N         14.7790   -5.2500   52.8660 N.3   285  GLU285     -0.1245
    134  CA        15.6550   -4.2960   53.5570 C.3   285  GLU285      0.1567
    135  C         16.9540   -4.9790   53.9710 C.2   285  GLU285      0.2260
    136  O         18.0310   -4.3880   53.8180 O.2   285  GLU285     -0.2867
    137  CB        14.9970   -3.7220   54.8080 C.3   285  GLU285      0.0388
    138  CG        13.6790   -2.9920   54.5130 C.3   285  GLU285      0.1160
    139  CD        12.9930   -2.4980   55.7830 C.2   285  GLU285      0.3649
    140  OE1       13.4790   -1.4900   56.3290 O.co2 285  GLU285     -0.2457
    141  OE2       11.9730   -3.0910   56.2260 O.co2 285  GLU285     -0.2457
    142  N         19.2730   -4.8150   50.5490 N.3   289  ARG289     -0.1231
    143  CA        20.0510   -3.6050   50.8630 C.3   289  ARG289      0.1694
    144  C         21.2190   -3.8900   51.8400 C.2   289  ARG289      0.2592
    145  O         22.4060   -3.6750   51.4990 O.2   289  ARG289     -0.2718
    146  CB        19.1410   -2.4620   51.3560 C.3   289  ARG289      0.0321
    147  CG        17.9350   -2.1030   50.4010 C.3   289  ARG289      0.0489
    148  CD        18.3660   -1.6900   48.9550 C.3   289  ARG289      0.2205
    149  NE        19.4840   -0.7370   48.9640 N.pl3 289  ARG289     -0.0865
    150  CZ        19.3460    0.5520   49.2910 C.cat 289  ARG289      0.5346
    151  NH1       18.1360    1.0490   49.5840 N.pl3 289  ARG289      0.1354
    152  NH2       20.4020    1.3440   49.3300 N.pl3 289  ARG289      0.1354
    153  N         20.8950   -4.3680   53.0350 N.am  290  ASP290     -0.1974
    154  CA        21.9320   -4.6540   54.0490 C.3   290  ASP290      0.1709
    155  C         22.9700   -5.6670   53.5550 C.2   290  ASP290      0.2293
    156  O         24.1740   -5.4780   53.7650 O.2   290  ASP290     -0.2864
    157  CB        21.3160   -5.1070   55.3820 C.3   290  ASP290      0.1436
    158  CG        20.4120   -4.0470   55.9960 C.2   290  ASP290      0.3671
    159  OD1       20.7840   -2.8700   55.9330 O.co2 290  ASP290     -0.2456
    160  OD2       19.3340   -4.3820   56.5390 O.co2 290  ASP290     -0.2456
    161  N         10.8950    5.4360   46.7120 N.3   371  TRP371     -0.1241
    162  CA        11.0980    4.6830   47.9570 C.3   371  TRP371      0.1605
    163  C         10.1460    3.5080   48.1790 C.2   371  TRP371      0.2264
    164  O         10.5400    2.4770   48.7410 O.2   371  TRP371     -0.2867
    165  CB        11.0080    5.6500   49.1670 C.3   371  TRP371      0.0550
    166  CG        12.3340    6.3600   49.4000 C.ar  371  TRP371      0.0003
    167  CD1       12.9730    7.2090   48.5560 C.ar  371  TRP371      0.0946
    168  CD2       13.1640    6.2320   50.5560 C.ar  371  TRP371      0.0152
    169  NE1       14.1740    7.6310   49.1170 N.ar  371  TRP371     -0.2442
    170  CE2       14.3040    7.0430   50.3490 C.ar  371  TRP371      0.0810
    171  CE3       13.0430    5.5210   51.7630 C.ar  371  TRP371      0.0012
    172  CZ2       15.3160    7.1570   51.3020 C.ar  371  TRP371      0.0191
    173  CZ3       14.0590    5.6410   52.7190 C.ar  371  TRP371      0.0001
    174  CH2       15.1730    6.4440   52.4740 C.ar  371  TRP371      0.0015
    175  N         14.4550   14.6390   58.4510 N.3   399  TYR399     -0.1241
    176  CA        15.8800   14.3660   58.6830 C.3   399  TYR399      0.1605
    177  C         16.4700   15.5070   59.4620 C.2   399  TYR399      0.2264
    178  O         15.9170   16.6010   59.4820 O.2   399  TYR399     -0.2867
    179  CB        16.6270   14.2000   57.3680 C.3   399  TYR399      0.0534
    180  CG        16.1390   13.0000   56.6100 C.ar  399  TYR399     -0.0201
    181  CD1       15.4230   13.1710   55.4380 C.ar  399  TYR399     -0.0009
    182  CD2       16.3910   11.6940   57.0700 C.ar  399  TYR399     -0.0009
    183  CE1       14.9520   12.0790   54.7190 C.ar  399  TYR399      0.0417
    184  CE2       15.9360   10.5800   56.3530 C.ar  399  TYR399      0.0417
    185  CZ        15.2140   10.8040   55.1660 C.ar  399  TYR399      0.1957
    186  OH        14.7330    9.7730   54.3900 O.3   399  TYR399     -0.2866
@<TRIPOS>BOND
     1   161   162    1
     2     1     2    1
     3   162   163    1
     4   162   165    1
     5   163   164    2
     6   167   169   ar
     7   167   166   ar
     8     2     5    1
     9     2     3    1
    10   148   149    1
    11   148   147    1
    12   149   150    2
    13   169   170   ar
    14     5     6    1
    15   165   166    1
    16   150   152    1
    17   150   151    1
    18   166   168   ar
    19     8     7    1
    20     7     6    1
    21     3     9   am
    22     3     4    2
    23     9    10    1
    24   170   168   ar
    25   170   172   ar
    26    12    11    2
    27   147   146    1
    28    11    10    1
    29   142   143    1
    30   168   171   ar
    31   143   146    1
    32   143   144    1
    33   132   131    1
    34    10    13    1
    35   172   174   ar
    36   145   144    2
    37   131   130    1
    38   171   173   ar
    39   144   153   am
    40    13    14    1
    41   174   173   ar
    42    14    15    1
    43    14    16    1
    44   130   129    1
    45   133   134    1
    46   153   154    1
    47   155   156    2
    48   155   154    1
    49   134   135    1
    50   134   137    1
    51   136   135    2
    52   154   157    1
    53   129   126    1
    54   186   185    1
    55   138   137    1
    56   138   139    1
    57   127   128    2
    58   127   126    1
    59   183   185   ar
    60   183   181   ar
    61   126   125    1
    62   185   184   ar
    63   157   158    1
    64   181   180   ar
    65   139   141   ar
    66   139   140   ar
    67   159   158   ar
    68   158   160   ar
    69   184   182   ar
    70   125   115   am
    71   180   182   ar
    72   180   179    1
    73   179   176    1
    74   115   116    2
    75   115   114    1
    76   120   122   ar
    77   120   118   ar
    78   175   176    1
    79    42    40    1
    80   122   123   ar
    81    77    76    1
    82   176   177    1
    83   117   114    1
    84   117   118    1
    85   114   113    1
    86   118   119   ar
    87   177   178    2
    88   102   101    2
    89    76    75    1
    90    40    41    1
    91    40    39    2
    92   107   105   ar
    93   107   108   ar
    94   123   124    1
    95   123   121   ar
    96   105   104   ar
    97   113   101   am
    98    31    29   am
    99   119   121   ar
   100   101   100    1
   101    39    38    1
   102    75    74    1
   103    61    59    1
   104   108   110   ar
   105   108   106   ar
   106    69    67   am
   107   110   112   ar
   108    29    30    2
   109    29    28    1
   110   104   106   ar
   111   104   103    1
   112    47    48    1
   113    47    44    1
   114    68    67    2
   115    48    49    1
   116   100   103    1
   117   100    99    1
   118   106   109   ar
   119    60    59    1
   120    67    66    1
   121    22    21    1
   122    88    86   ar
   123    88    87   ar
   124    74    71    1
   125    86    84   ar
   126    21    18    1
   127    38    37    1
   128    28    27    1
   129    59    56    1
   130    99    97   am
   131   112   111   ar
   132    71    70    1
   133    71    72    1
   134    44    43    1
   135    44    45    1
   136    49    43    1
   137    65    64    2
   138    37    36    1
   139    87    85   ar
   140    20    19    2
   141   109   111   ar
   142    84    83   ar
   143    66    63    1
   144    18    19    1
   145    18    17    1
   146    56    55    1
   147    56    57    1
   148    97    96    1
   149    97    98    2
   150    70    64   am
   151    64    63    1
   152    27    24    1
   153    19    23   am
   154    96    95    1
   155    45    46    2
   156    45    50   am
   157    36    33    1
   158    72    73    2
   159    55    52   am
   160    95    91   am
   161    50    51    1
   162    23    24    1
   163    63    62    1
   164    33    34    1
   165    33    32    1
   166    85    83   ar
   167    83    82    1
   168    24    25    1
   169    57    58    2
   170    52    51    1
   171    52    53    2
   172    34    35    2
   173    51    54    1
   174    91    92    2
   175    91    90    1
   176    81    80    2
   177    90    89    1
   178    90    93    1
   179    82    79    1
   180    80    89   am
   181    80    79    1
   182    25    26    2
   183    79    78    1
   184    93    94    1
