@<TRIPOS>MOLECULE
tmp/3tyqA00.pdb
 150 141 0 0 0
SMALL
GASTEIGER

@<TRIPOS>ATOM
      1  N         23.5800   36.1200   41.5100 N.3   188  PHE188     -0.1241
      2  CA        22.3250   36.8370   41.5230 C.3   188  PHE188      0.1605
      3  C         21.1030   36.0200   41.9550 C.2   188  PHE188      0.2264
      4  O         20.0050   36.5770   42.0530 O.2   188  PHE188     -0.2867
      5  CB        22.0780   37.5390   40.1830 C.3   188  PHE188      0.0534
      6  CG        23.0910   38.6090   39.8640 C.ar  188  PHE188     -0.0203
      7  CD1       23.0960   39.8240   40.5820 C.ar  188  PHE188     -0.0042
      8  CD2       23.9940   38.4550   38.8290 C.ar  188  PHE188     -0.0042
      9  CE1       23.9830   40.8700   40.2310 C.ar  188  PHE188     -0.0003
     10  CE2       24.9090   39.4940   38.4890 C.ar  188  PHE188     -0.0003
     11  CZ        24.9020   40.7170   39.2040 C.ar  188  PHE188     -0.0000
     12  N         20.1060   38.5190   50.3710 N.3   192  PRO192     -0.2116
     13  CA        21.2660   38.7860   51.2270 C.3   192  PRO192      0.1372
     14  C         21.5510   37.6440   52.2240 C.2   192  PRO192      0.2244
     15  O         22.7070   37.2370   52.3620 O.2   192  PRO192     -0.2868
     16  CB        20.8360   40.0670   51.9790 C.3   192  PRO192      0.0268
     17  CG        19.9650   40.7890   50.9300 C.3   192  PRO192      0.0207
     18  CD        19.1690   39.6490   50.3160 C.3   192  PRO192      0.0892
     19  N         23.1120   34.8100   50.4030 N.3   195  ARG195     -0.1245
     20  CA        24.5080   35.0460   49.9830 C.3   195  ARG195      0.1563
     21  C         25.4430   34.8390   51.1730 C.2   195  ARG195      0.2260
     22  O         26.5180   34.1960   51.0370 O.2   195  ARG195     -0.2867
     23  CB        24.6910   36.4600   49.4050 C.3   195  ARG195      0.0307
     24  CG        26.0880   36.7080   48.8700 C.3   195  ARG195      0.0489
     25  CD        26.2920   38.1550   48.3070 C.3   195  ARG195      0.2205
     26  NE        27.7070   38.4190   47.9590 N.pl3 195  ARG195     -0.0865
     27  CZ        28.1920   38.3130   46.7200 C.cat 195  ARG195      0.5346
     28  NH1       27.3660   37.9500   45.7650 N.pl3 195  ARG195      0.1354
     29  NH2       29.4970   38.5030   46.4520 N.pl3 195  ARG195      0.1354
     30  N         29.3350   37.6870   40.0630 N.3   311  ASN311     -0.1240
     31  CA        28.2050   38.5880   39.7920 C.3   311  ASN311      0.1653
     32  C         28.7880   39.5850   38.8090 C.2   311  ASN311      0.2266
     33  O         29.5080   40.4640   39.2360 O.2   311  ASN311     -0.2867
     34  CB        27.8910   39.4530   41.0490 C.3   311  ASN311      0.1155
     35  CG        27.1990   38.7040   42.1520 C.2   311  ASN311      0.2627
     36  OD1       27.7990   37.9420   42.8550 O.2   311  ASN311     -0.2716
     37  ND2       25.9140   39.0030   42.3590 N.am  311  ASN311     -0.0877
     38  N         31.3750   41.2770   36.6030 N.3   313  ASP313     -0.1225
     39  CA        32.8370   41.1840   36.7070 C.3   313  ASP313      0.1805
     40  C         33.3700   40.9680   38.1270 C.2   313  ASP313      0.2597
     41  O         34.5800   40.9620   38.3280 O.2   313  ASP313     -0.2718
     42  CB        33.5370   42.4190   36.0930 C.3   313  ASP313      0.1424
     43  CG        33.2320   43.7230   36.8430 C.2   313  ASP313      0.3668
     44  OD1       32.3970   43.7300   37.7530 O.co2 313  ASP313     -0.2456
     45  OD2       33.7410   44.7910   36.4430 O.co2 313  ASP313     -0.2456
     46  N         32.4830   40.7970   39.1100 N.am  314  ASP314     -0.1974
     47  CA        32.9210   40.6700   40.4990 C.3   314  ASP314      0.1709
     48  C         33.0680   39.2110   40.7940 C.2   314  ASP314      0.2293
     49  O         32.1080   38.4430   40.6330 O.2   314  ASP314     -0.2864
     50  CB        31.9030   41.3320   41.4360 C.3   314  ASP314      0.1436
     51  CG        32.4250   41.4590   42.8570 C.2   314  ASP314      0.3671
     52  OD1       32.5810   40.4320   43.5080 O.co2 314  ASP314     -0.2456
     53  OD2       32.6510   42.5950   43.2830 O.co2 314  ASP314     -0.2456
     54  N         31.5500   42.0290   45.9560 N.3   361  CYS361     -0.1235
     55  CA        30.4740   42.9970   45.7840 C.3   361  CYS361      0.1677
     56  C         30.7070   44.0910   46.8460 C.2   361  CYS361      0.2270
     57  O         29.7550   44.5620   47.4830 O.2   361  CYS361     -0.2867
     58  CB        29.0800   42.3570   45.9070 C.3   361  CYS361      0.0956
     59  SG        28.5450   41.3500   44.4390 S.3   361  CYS361     -0.0801
     60  N         31.5840   44.0080   49.7380 N.3   363  SER363     -0.1217
     61  CA        31.0440   43.6700   51.0570 C.3   363  SER363      0.1889
     62  C         31.8450   42.5690   51.7230 C.2   363  SER363      0.2288
     63  O         32.5160   41.7690   51.0460 O.2   363  SER363     -0.2866
     64  CB        29.5940   43.2070   50.8750 C.3   363  SER363      0.2089
     65  OG        28.8800   44.1470   50.0520 O.3   363  SER363     -0.2183
     66  N         26.2050   40.6150   55.8900 N.3   379  LEU379     -0.1245
     67  CA        27.1450   41.2960   55.0190 C.3   379  LEU379      0.1561
     68  C         27.0750   42.8060   55.2960 C.2   379  LEU379      0.2260
     69  O         25.9820   43.3830   55.4150 O.2   379  LEU379     -0.2867
     70  CB        26.7750   41.0430   53.5420 C.3   379  LEU379      0.0270
     71  CG        27.1390   39.6190   53.0940 C.3   379  LEU379      0.0019
     72  CD1       26.3930   39.2390   51.8190 C.3   379  LEU379      0.0001
     73  CD2       28.6610   39.5640   52.8800 C.3   379  LEU379      0.0001
     74  N         19.3600   55.3970   45.9860 N.3   402  SER402     -0.1217
     75  CA        20.3080   54.4300   46.5160 C.3   402  SER402      0.1889
     76  C         20.0790   54.1580   48.0130 C.2   402  SER402      0.2288
     77  O         20.3200   53.0600   48.4960 O.2   402  SER402     -0.2866
     78  CB        21.7470   54.8360   46.2370 C.3   402  SER402      0.2089
     79  OG        22.1190   55.9490   47.0360 O.3   402  SER402     -0.2183
     80  N         17.6850   51.3210   48.4610 N.3   405  GLY405     -0.1210
     81  CA        18.3050   50.0350   48.1080 C.3   405  GLY405      0.1956
     82  C         19.2900   49.5790   49.1750 C.2   405  GLY405      0.2611
     83  O         19.4230   48.3810   49.4680 O.2   405  GLY405     -0.2717
     84  N         20.0050   50.5490   49.7580 N.am  406  ASN406     -0.1974
     85  CA        21.0020   50.2250   50.7870 C.3   406  ASN406      0.1688
     86  C         20.3270   49.7810   52.0750 C.2   406  ASN406      0.2292
     87  O         20.8330   48.8820   52.7540 O.2   406  ASN406     -0.2864
     88  CB        21.9280   51.4230   51.0360 C.3   406  ASN406      0.1181
     89  CG        23.0860   51.4680   50.0230 C.2   406  ASN406      0.2629
     90  OD1       23.6240   50.4020   49.6120 O.2   406  ASN406     -0.2716
     91  ND2       23.4580   52.6680   49.5940 N.am  406  ASN406     -0.0877
     92  N         19.2410   46.1360   51.2440 N.3   409  MET409     -0.1230
     93  CA        20.2900   45.1270   51.1770 C.3   409  MET409      0.1702
     94  C         21.2010   45.0420   52.3930 C.2   409  MET409      0.2592
     95  O         21.8860   44.0390   52.5930 O.2   409  MET409     -0.2718
     96  CB        21.1260   45.3530   49.9050 C.3   409  MET409      0.0401
     97  CG        20.2730   45.2810   48.6250 C.3   409  MET409      0.0596
     98  SD        19.5700   43.6170   48.3280 S.3   409  MET409     -0.1393
     99  CE        21.0660   42.7680   47.5240 C.3   409  MET409      0.0692
    100  N         21.2880   46.1500   53.1300 N.am  410  TYR410     -0.1976
    101  CA        22.1870   46.2140   54.2920 C.3   410  TYR410      0.1639
    102  C         21.4400   46.4230   55.6070 C.2   410  TYR410      0.2290
    103  O         22.0360   46.8990   56.5990 O.2   410  TYR410     -0.2864
    104  CB        23.2430   47.3000   54.0830 C.3   410  TYR410      0.0560
    105  CG        24.2440   46.9400   52.9710 C.ar  410  TYR410     -0.0198
    106  CD1       25.2170   45.9450   53.1810 C.ar  410  TYR410     -0.0009
    107  CD2       24.1730   47.5720   51.7050 C.ar  410  TYR410     -0.0009
    108  CE1       26.1340   45.6120   52.1740 C.ar  410  TYR410      0.0417
    109  CE2       25.0500   47.2180   50.6830 C.ar  410  TYR410      0.0417
    110  CZ        26.0460   46.2630   50.9380 C.ar  410  TYR410      0.1957
    111  OH        26.9400   45.8860   49.9380 O.3   410  TYR410     -0.2866
    112  N         16.9460   50.1740   43.1960 N.3   441  GLN441     -0.1231
    113  CA        17.4730   49.1150   42.3290 C.3   441  GLN441      0.1698
    114  C         17.9960   47.9680   43.1620 C.2   441  GLN441      0.2592
    115  O         18.8080   48.1700   44.0900 O.2   441  GLN441     -0.2718
    116  CB        18.6230   49.6490   41.4480 C.3   441  GLN441      0.0381
    117  CG        18.1570   50.5960   40.3470 C.3   441  GLN441      0.0905
    118  CD        19.2920   51.0000   39.4120 C.2   441  GLN441      0.2608
    119  OE1       19.9240   50.1580   38.7730 O.2   441  GLN441     -0.2717
    120  NE2       19.5490   52.2970   39.3300 N.am  441  GLN441     -0.0878
    121  N         17.6190   46.7500   42.7540 N.am  442  ILE442     -0.1966
    122  CA        18.0720   45.5310   43.3870 C.3   442  ILE442      0.1727
    123  C         18.6080   44.5930   42.2850 C.2   442  ILE442      0.2616
    124  O         17.8790   44.2610   41.3510 O.2   442  ILE442     -0.2715
    125  CB        16.9700   44.8400   44.1870 C.3   442  ILE442      0.0290
    126  CG1       16.3010   45.8250   45.1890 C.3   442  ILE442      0.0022
    127  CG2       17.5150   43.5340   44.8370 C.3   442  ILE442      0.0023
    128  CD1       17.1670   46.2920   46.3700 C.3   442  ILE442      0.0001
    129  N         19.8990   44.2960   42.3530 N.am  443  TYR443     -0.1960
    130  CA        20.5670   43.4710   41.3170 C.3   443  TYR443      0.1771
    131  C         20.3050   44.0870   39.9330 C.2   443  TYR443      0.2620
    132  O         20.1060   43.3770   38.9350 O.2   443  TYR443     -0.2715
    133  CB        20.1160   42.0130   41.4100 C.3   443  TYR443      0.0574
    134  CG        20.6770   41.2790   42.6120 C.ar  443  TYR443     -0.0198
    135  CD1       21.6020   41.8850   43.4760 C.ar  443  TYR443     -0.0009
    136  CD2       20.3020   39.9510   42.8700 C.ar  443  TYR443     -0.0009
    137  CE1       22.0870   41.1920   44.6090 C.ar  443  TYR443      0.0417
    138  CE2       20.8400   39.2330   43.9350 C.ar  443  TYR443      0.0417
    139  CZ        21.7340   39.8560   44.8030 C.ar  443  TYR443      0.1957
    140  OH        22.2700   39.1440   45.8520 O.3   443  TYR443     -0.2866
    141  N         20.3240   45.4170   39.8690 N.am  444  GLY444     -0.1954
    142  CA        20.2010   46.1140   38.5870 C.3   444  GLY444      0.1869
    143  C         18.7960   46.3520   38.0750 C.2   444  GLY444      0.2309
    144  O         18.6160   47.2130   37.2310 O.2   444  GLY444     -0.2863
    145  N         21.8730   44.7830   35.6190 N.3   551  SER551     -0.1217
    146  CA        22.4510   46.1250   35.5500 C.3   551  SER551      0.1889
    147  C         22.7340   46.5470   34.1030 C.2   551  SER551      0.2288
    148  O         23.3350   45.7810   33.3490 O.2   551  SER551     -0.2866
    149  CB        23.7100   46.1860   36.3910 C.3   551  SER551      0.2089
    150  OG        23.3510   46.2550   37.7550 O.3   551  SER551     -0.2183
@<TRIPOS>BOND
     1   148   147    2
     2   147   146    1
     3   146   145    1
     4   146   149    1
     5    42    39    1
     6    42    43    1
     7   149   150    1
     8    45    43   ar
     9    38    39    1
    10    39    40    1
    11    43    44   ar
    12   144   143    2
    13   143   142    1
    14    40    41    2
    15    40    46   am
    16    10     8   ar
    17    10    11   ar
    18   142   141    1
    19   119   118    2
    20    32    33    2
    21    32    31    1
    22     8     6   ar
    23   132   131    2
    24    46    47    1
    25    11     9   ar
    26   120   118   am
    27   118   117    1
    28    31    30    1
    29    31    34    1
    30     6     5    1
    31     6     7   ar
    32   141   131   am
    33   131   130    1
    34     5     2    1
    35     9     7   ar
    36   117   116    1
    37    47    48    1
    38    47    50    1
    39    49    48    2
    40    34    35    1
    41   130   133    1
    42   130   129    1
    43   124   123    2
    44   133   134    1
    45    50    51    1
    46   116   113    1
    47     1     2    1
    48     2     3    1
    49     3     4    2
    50    35    37   am
    51    35    36    2
    52   123   129   am
    53   123   122    1
    54   113   114    1
    55   113   112    1
    56   134   136   ar
    57   134   135   ar
    58   121   114   am
    59   121   122    1
    60    51    53   ar
    61    51    52   ar
    62   136   138   ar
    63   114   115    2
    64   122   125    1
    65   135   137   ar
    66   138   139   ar
    67   125   127    1
    68   125   126    1
    69    59    58    1
    70   137   139   ar
    71   139   140    1
    72   126   128    1
    73    28    27    1
    74    55    58    1
    75    55    54    1
    76    55    56    1
    77    74    75    1
    78    78    75    1
    79    78    79    1
    80    29    27    1
    81    75    76    1
    82    27    26    2
    83    56    57    2
    84    99    98    1
    85    26    25    1
    86    76    77    2
    87    81    80    1
    88    81    82    1
    89    25    24    1
    90    98    97    1
    91    97    96    1
    92    24    23    1
    93    82    83    2
    94    82    84   am
    95    23    20    1
    96    91    89   am
    97    90    89    2
    98    60    61    1
    99    84    85    1
   100    96    93    1
   101   111   110    1
   102    20    19    1
   103    20    21    1
   104    89    88    1
   105    65    64    1
   106    18    12    1
   107    18    17    1
   108    12    13    1
   109   109   110   ar
   110   109   107   ar
   111    85    88    1
   112    85    86    1
   113    64    61    1
   114    17    16    1
   115   110   108   ar
   116    22    21    2
   117    63    62    2
   118    61    62    1
   119    93    92    1
   120    93    94    1
   121    13    16    1
   122    13    14    1
   123   107   105   ar
   124    72    71    1
   125    86    87    2
   126   108   106   ar
   127    14    15    2
   128    94    95    2
   129    94   100   am
   130    73    71    1
   131   105   106   ar
   132   105   104    1
   133    71    70    1
   134   100   101    1
   135    70    67    1
   136   104   101    1
   137   101   102    1
   138    67    68    1
   139    67    66    1
   140    68    69    2
   141   102   103    2
