@<TRIPOS>MOLECULE
tmp/3tyuB00.pdb
 126 117 0 0 0
SMALL
GASTEIGER

@<TRIPOS>ATOM
      1  N         20.2420   29.0440  -33.9440 N.3    71  ASP71      -0.1239
      2  CA        19.1660   28.3350  -34.6210 C.3    71  ASP71       0.1674
      3  C         18.4190   29.2840  -35.5400 C.2    71  ASP71       0.2266
      4  O         17.6620   30.1470  -35.0940 O.2    71  ASP71      -0.2867
      5  CB        18.2220   27.6440  -33.6340 C.3    71  ASP71       0.1410
      6  CG        17.9000   28.5010  -32.4290 C.2    71  ASP71       0.3668
      7  OD1       18.2080   29.7140  -32.4630 O.co2  71  ASP71      -0.2456
      8  OD2       17.3360   27.9550  -31.4480 O.co2  71  ASP71      -0.2456
      9  N         22.8020   26.1640  -35.9640 N.3    90  ASN90      -0.1240
     10  CA        21.7190   25.2980  -35.5790 C.3    90  ASN90       0.1653
     11  C         20.5310   25.6330  -36.4720 C.2    90  ASN90       0.2266
     12  O         20.0070   26.7410  -36.4200 O.2    90  ASN90      -0.2867
     13  CB        21.4130   25.5360  -34.0860 C.3    90  ASN90       0.1155
     14  CG        20.3460   24.6050  -33.5210 C.2    90  ASN90       0.2627
     15  OD1       19.9910   23.5800  -34.1100 O.2    90  ASN90      -0.2716
     16  ND2       19.8290   24.9710  -32.3540 N.am   90  ASN90      -0.0877
     17  N         16.6710   24.2230  -37.6310 N.3    92  ILE92      -0.1245
     18  CA        15.5180   23.3710  -37.4240 C.3    92  ILE92       0.1561
     19  C         15.0490   22.8010  -38.7680 C.2    92  ILE92       0.2260
     20  O         14.8850   21.5860  -38.9270 O.2    92  ILE92      -0.2867
     21  CB        14.4080   24.2040  -36.7050 C.3    92  ILE92       0.0252
     22  CG1       14.6730   24.2390  -35.1960 C.3    92  ILE92       0.0019
     23  CG2       12.9950   23.7010  -37.0070 C.3    92  ILE92       0.0019
     24  CD1       15.8060   25.1700  -34.7830 C.3    92  ILE92       0.0001
     25  N         18.1900   18.8720  -37.9710 N.3   114  MET114     -0.1245
     26  CA        17.0820   18.5110  -37.0840 C.3   114  MET114      0.1570
     27  C         15.8950   17.8510  -37.7920 C.2   114  MET114      0.2261
     28  O         15.2820   18.4570  -38.6750 O.2   114  MET114     -0.2867
     29  CB        16.6140   19.7220  -36.2710 C.3   114  MET114      0.0387
     30  CG        16.0290   19.3260  -34.9140 C.3   114  MET114      0.0595
     31  SD        14.8050   20.4500  -34.2190 S.3   114  MET114     -0.1393
     32  CE        13.5010   20.2960  -35.4320 C.3   114  MET114      0.0692
     33  N         20.3780   16.4970  -34.5210 N.3   147  ASP147     -0.1239
     34  CA        19.3020   16.7010  -33.5710 C.3   147  ASP147      0.1674
     35  C         18.0880   15.9050  -34.0590 C.2   147  ASP147      0.2266
     36  O         17.7170   16.0210  -35.2270 O.2   147  ASP147     -0.2867
     37  CB        18.9940   18.1950  -33.4410 C.3   147  ASP147      0.1410
     38  CG        18.1940   18.5330  -32.1870 C.2   147  ASP147      0.3668
     39  OD1       17.4000   17.6970  -31.7100 O.co2 147  ASP147     -0.2456
     40  OD2       18.3540   19.6550  -31.6770 O.co2 147  ASP147     -0.2456
     41  N         12.9340   16.7540  -30.8010 N.3   150  PHE150     -0.1227
     42  CA        11.9140   16.3410  -29.8380 C.3   150  PHE150      0.1736
     43  C         10.7380   17.3160  -29.8010 C.2   150  PHE150      0.2596
     44  O         10.9240   18.5190  -29.5850 O.2   150  PHE150     -0.2718
     45  CB        12.5250   16.2450  -28.4430 C.3   150  PHE150      0.0547
     46  CG        13.1570   14.9170  -28.1390 C.ar  150  PHE150     -0.0202
     47  CD1       12.3680   13.8010  -27.8680 C.ar  150  PHE150     -0.0042
     48  CD2       14.5360   14.7810  -28.1000 C.ar  150  PHE150     -0.0042
     49  CE1       12.9470   12.5700  -27.5680 C.ar  150  PHE150     -0.0003
     50  CE2       15.1140   13.5600  -27.8010 C.ar  150  PHE150     -0.0003
     51  CZ        14.3160   12.4540  -27.5360 C.ar  150  PHE150     -0.0000
     52  N          9.5290   16.7920  -30.0000 N.am  151  GLY151     -0.1942
     53  CA         8.3040   17.5950  -29.9190 C.3   151  GLY151      0.2014
     54  C          7.9680   18.3470  -31.2010 C.2   151  GLY151      0.2638
     55  O          7.1080   19.2430  -31.2080 O.2   151  GLY151     -0.2714
     56  N          8.6620   17.9790  -32.2790 N.am  152  PHE152     -0.1973
     57  CA         8.4590   18.5620  -33.5910 C.3   152  PHE152      0.1639
     58  C          7.6550   17.5750  -34.4240 C.2   152  PHE152      0.2290
     59  O          8.1830   16.5420  -34.8560 O.2   152  PHE152     -0.2864
     60  CB         9.8060   18.8550  -34.2560 C.3   152  PHE152      0.0560
     61  CG        10.4890   20.0830  -33.7340 C.ar  152  PHE152     -0.0200
     62  CD1       10.2990   21.3120  -34.3510 C.ar  152  PHE152     -0.0042
     63  CD2       11.3340   20.0120  -32.6320 C.ar  152  PHE152     -0.0042
     64  CE1       10.9360   22.4540  -33.8760 C.ar  152  PHE152     -0.0003
     65  CE2       11.9760   21.1520  -32.1380 C.ar  152  PHE152     -0.0003
     66  CZ        11.7810   22.3690  -32.7650 C.ar  152  PHE152     -0.0000
     67  N         22.7450   16.3570  -30.6610 N.3   177  LEU177     -0.1245
     68  CA        22.2730   17.4200  -29.7780 C.3   177  LEU177      0.1561
     69  C         20.7870   17.1940  -29.5730 C.2   177  LEU177      0.2260
     70  O         20.0400   17.1370  -30.5460 O.2   177  LEU177     -0.2867
     71  CB        22.5120   18.8020  -30.3950 C.3   177  LEU177      0.0270
     72  CG        22.1940   20.0800  -29.5980 C.3   177  LEU177      0.0019
     73  CD1       22.6620   21.3220  -30.3480 C.3   177  LEU177      0.0001
     74  CD2       20.7160   20.2310  -29.2470 C.3   177  LEU177      0.0001
     75  N         17.0830   18.4410  -27.5400 N.3   179  GLY179     -0.1225
     76  CA        16.3900   19.5520  -26.9040 C.3   179  GLY179      0.1811
     77  C         15.0260   19.1110  -26.4250 C.2   179  GLY179      0.2280
     78  O         14.1380   18.8400  -27.2440 O.2   179  GLY179     -0.2866
     79  N         11.6460   21.6310  -20.8360 N.3   182  ARG182     -0.1231
     80  CA        10.3700   22.2530  -20.5290 C.3   182  ARG182      0.1694
     81  C          9.4350   22.1080  -21.7190 C.2   182  ARG182      0.2592
     82  O          8.5620   22.9510  -21.9520 O.2   182  ARG182     -0.2718
     83  CB        10.5710   23.7210  -20.1390 C.3   182  ARG182      0.0321
     84  CG        11.4170   23.9440  -18.8800 C.3   182  ARG182      0.0489
     85  CD        11.7840   25.4150  -18.7690 C.3   182  ARG182      0.2205
     86  NE        12.1850   25.8380  -17.4310 N.pl3 182  ARG182     -0.0865
     87  CZ        11.9400   27.0480  -16.9270 C.cat 182  ARG182      0.5346
     88  NH1       11.2730   27.9530  -17.6400 N.pl3 182  ARG182      0.1354
     89  NH2       12.3340   27.3550  -15.6980 N.pl3 182  ARG182      0.1354
     90  N          9.6170   21.0260  -22.4700 N.am  183  LYS183     -0.1966
     91  CA         8.7320   20.7610  -23.5960 C.3   183  LYS183      0.1728
     92  C          7.4740   19.9890  -23.2000 C.2   183  LYS183      0.2616
     93  O          7.3810   19.4480  -22.0960 O.2   183  LYS183     -0.2715
     94  CB         9.4760   20.0940  -24.7460 C.3   183  LYS183      0.0311
     95  CG        10.3300   21.0750  -25.5080 C.3   183  LYS183      0.0038
     96  CD        10.7890   20.4910  -26.8220 C.3   183  LYS183      0.0206
     97  CE        11.9090   21.3180  -27.4330 C.3   183  LYS183      0.1093
     98  NZ        12.3050   20.7880  -28.7730 N.3   183  LYS183     -0.1314
     99  N          6.5090   19.9650  -24.1150 N.am  184  SER184     -0.1950
    100  CA         5.2160   19.3120  -23.9270 C.3   184  SER184      0.1924
    101  C          5.3320   17.8170  -23.6320 C.2   184  SER184      0.2314
    102  O          4.4750   17.2470  -22.9590 O.2   184  SER184     -0.2863
    103  CB         4.3530   19.5250  -25.1650 C.3   184  SER184      0.2116
    104  OG         5.0520   19.0680  -26.3120 O.3   184  SER184     -0.2180
    105  N          8.6820   22.3840  -14.7110 N.3   197  ARG197     -0.1245
    106  CA         9.1050   21.2910  -15.5830 C.3   197  ARG197      0.1563
    107  C         10.6070   21.0250  -15.5410 C.2   197  ARG197      0.2260
    108  O         11.1230   20.2700  -16.3680 O.2   197  ARG197     -0.2867
    109  CB         8.7330   21.6040  -17.0170 C.3   197  ARG197      0.0307
    110  CG         7.3890   21.1330  -17.4310 C.3   197  ARG197      0.0489
    111  CD         7.0850   21.6500  -18.8120 C.3   197  ARG197      0.2205
    112  NE         5.6590   21.9140  -18.9330 N.pl3 197  ARG197     -0.0865
    113  CZ         5.0780   22.4280  -20.0090 C.cat 197  ARG197      0.5346
    114  NH1        5.8110   22.7400  -21.0670 N.pl3 197  ARG197      0.1354
    115  NH2        3.7690   22.6220  -20.0240 N.pl3 197  ARG197      0.1354
    116  N         20.5680   20.7320  -24.8370 N.3   217  ARG217     -0.1245
    117  CA        20.1770   22.1300  -24.9910 C.3   217  ARG217      0.1563
    118  C         19.0860   22.4890  -23.9520 C.2   217  ARG217      0.2260
    119  O         17.9610   21.9620  -24.0120 O.2   217  ARG217     -0.2867
    120  CB        19.6790   22.3410  -26.4210 C.3   217  ARG217      0.0307
    121  CG        19.1880   23.7320  -26.7370 C.3   217  ARG217      0.0489
    122  CD        18.7130   23.8180  -28.1600 C.3   217  ARG217      0.2205
    123  NE        18.3510   25.1840  -28.5400 N.pl3 217  ARG217     -0.0865
    124  CZ        17.1470   25.7230  -28.3680 C.cat 217  ARG217      0.5346
    125  NH1       16.1610   25.0200  -27.8220 N.pl3 217  ARG217      0.1354
    126  NH2       16.9260   26.9720  -28.7530 N.pl3 217  ARG217      0.1354
@<TRIPOS>BOND
     1    20    19    2
     2    19    18    1
     3    28    27    2
     4    25    26    1
     5    27    26    1
     6    17    18    1
     7    18    21    1
     8    26    29    1
     9    23    21    1
    10    21    22    1
    11    11    12    2
    12    11    10    1
    13    29    30    1
    14     9    10    1
    15    10    13    1
    16     3     4    2
    17     3     2    1
    18    32    31    1
    19    36    35    2
    20    22    24    1
    21    30    31    1
    22    59    58    2
    23     2     1    1
    24     2     5    1
    25    33    34    1
    26    58    57    1
    27    62    64   ar
    28    62    61   ar
    29    60    61    1
    30    60    57    1
    31    15    14    2
    32    13    14    1
    33    35    34    1
    34    64    66   ar
    35    61    63   ar
    36     5     6    1
    37    57    56    1
    38    34    37    1
    39    14    16   am
    40    37    38    1
    41    66    65   ar
    42    63    65   ar
    43     7     6   ar
    44     6     8   ar
    45    56    54   am
    46    38    39   ar
    47    38    40   ar
    48    55    54    2
    49    54    53    1
    50    41    42    1
    51    67    68    1
    52    70    69    2
    53    71    68    1
    54    71    72    1
    55    73    72    1
    56    52    53    1
    57    52    43   am
    58    42    43    1
    59    42    45    1
    60    43    44    2
    61    68    69    1
    62    72    74    1
    63    98    97    1
    64   126   124    1
    65   123   124    2
    66   123   122    1
    67    45    46    1
    68   124   125    1
    69   122   121    1
    70    46    48   ar
    71    46    47   ar
    72    48    50   ar
    73    47    49   ar
    74    50    51   ar
    75    49    51   ar
    76    75    76    1
    77    97    96    1
    78    78    77    2
    79    76    77    1
    80    96    95    1
    81   121   120    1
    82   120   117    1
    83   104   103    1
    84    95    94    1
    85   103   100    1
    86   117   116    1
    87   117   118    1
    88    94    91    1
    89    99   100    1
    90    99    92   am
    91   119   118    2
    92   100   101    1
    93   101   102    2
    94    91    92    1
    95    91    90    1
    96    92    93    2
    97    90    81   am
    98    82    81    2
    99    81    80    1
   100   114   113    1
   101    79    80    1
   102    80    83    1
   103    83    84    1
   104   115   113    1
   105   113   112    2
   106   112   111    1
   107    84    85    1
   108   111   110    1
   109    85    86    1
   110    88    87    1
   111   110   109    1
   112    86    87    2
   113   109   106    1
   114    87    89    1
   115   108   107    2
   116   106   107    1
   117   106   105    1
