@<TRIPOS>MOLECULE
tmp/3tyvA00.pdb
 179 171 0 0 0
SMALL
GASTEIGER

@<TRIPOS>ATOM
      1  N         23.8290   36.0830   41.3300 N.3   188  PHE188     -0.1241
      2  CA        22.5760   36.8290   41.3540 C.3   188  PHE188      0.1605
      3  C         21.3470   36.0240   41.7600 C.2   188  PHE188      0.2264
      4  O         20.2880   36.6250   41.9160 O.2   188  PHE188     -0.2867
      5  CB        22.3860   37.5490   40.0110 C.3   188  PHE188      0.0534
      6  CG        23.3850   38.6650   39.7550 C.ar  188  PHE188     -0.0203
      7  CD1       23.3640   39.8270   40.5220 C.ar  188  PHE188     -0.0042
      8  CD2       24.3300   38.5550   38.7460 C.ar  188  PHE188     -0.0042
      9  CE1       24.2490   40.8900   40.2470 C.ar  188  PHE188     -0.0003
     10  CE2       25.2100   39.6170   38.4640 C.ar  188  PHE188     -0.0003
     11  CZ        25.1790   40.7720   39.2300 C.ar  188  PHE188     -0.0000
     12  N         20.9810   38.7140   49.9200 N.3   192  PRO192     -0.2116
     13  CA        22.1950   38.8770   50.7340 C.3   192  PRO192      0.1372
     14  C         22.3450   37.7830   51.8170 C.2   192  PRO192      0.2244
     15  O         23.4500   37.3130   52.0220 O.2   192  PRO192     -0.2868
     16  CB        22.0220   40.2810   51.3390 C.3   192  PRO192      0.0268
     17  CG        21.2320   41.0200   50.2810 C.3   192  PRO192      0.0207
     18  CD        20.1960   39.9660   49.8710 C.3   192  PRO192      0.0892
     19  N         23.5200   34.6900   50.1230 N.3   195  ARG195     -0.1245
     20  CA        24.9140   34.8660   49.6960 C.3   195  ARG195      0.1563
     21  C         25.8460   34.6520   50.8920 C.2   195  ARG195      0.2260
     22  O         26.8670   33.9730   50.7720 O.2   195  ARG195     -0.2867
     23  CB        25.1040   36.2650   49.0770 C.3   195  ARG195      0.0307
     24  CG        26.5360   36.4720   48.6350 C.3   195  ARG195      0.0489
     25  CD        26.7630   37.8620   48.0500 C.3   195  ARG195      0.2205
     26  NE        28.1800   38.0330   47.7150 N.pl3 195  ARG195     -0.0865
     27  CZ        28.6670   37.8090   46.4950 C.cat 195  ARG195      0.5346
     28  NH1       27.8560   37.4510   45.5010 N.pl3 195  ARG195      0.1354
     29  NH2       29.9700   37.9320   46.2600 N.pl3 195  ARG195      0.1354
     30  N         29.5110   37.5840   39.9210 N.3   311  ASN311     -0.1240
     31  CA        28.4140   38.5230   39.6730 C.3   311  ASN311      0.1653
     32  C         28.9420   39.4880   38.6130 C.2   311  ASN311      0.2266
     33  O         29.6190   40.4440   38.9660 O.2   311  ASN311     -0.2867
     34  CB        28.0830   39.3180   40.9460 C.3   311  ASN311      0.1155
     35  CG        27.4190   38.5140   42.0320 C.2   311  ASN311      0.2627
     36  OD1       28.0490   37.6500   42.6030 O.2   311  ASN311     -0.2716
     37  ND2       26.1560   38.8090   42.3300 N.am  311  ASN311     -0.0877
     38  N         31.4890   41.0310   36.3650 N.3   313  ASP313     -0.1225
     39  CA        32.9550   41.0210   36.4520 C.3   313  ASP313      0.1805
     40  C         33.4360   40.8180   37.8950 C.2   313  ASP313      0.2597
     41  O         34.6420   40.7980   38.1370 O.2   313  ASP313     -0.2718
     42  CB        33.5450   42.3310   35.8750 C.3   313  ASP313      0.1424
     43  CG        33.2340   43.6320   36.6180 C.2   313  ASP313      0.3668
     44  OD1       32.3390   43.6290   37.4860 O.co2 313  ASP313     -0.2456
     45  OD2       33.8200   44.6740   36.2620 O.co2 313  ASP313     -0.2456
     46  N         32.5050   40.7450   38.8600 N.am  314  ASP314     -0.1974
     47  CA        32.9380   40.6040   40.2590 C.3   314  ASP314      0.1709
     48  C         33.1330   39.1580   40.5970 C.2   314  ASP314      0.2293
     49  O         32.2130   38.3530   40.4650 O.2   314  ASP314     -0.2864
     50  CB        31.9310   41.2820   41.1970 C.3   314  ASP314      0.1436
     51  CG        32.5060   41.5020   42.5700 C.2   314  ASP314      0.3671
     52  OD1       32.7320   40.5080   43.2750 O.co2 314  ASP314     -0.2456
     53  OD2       32.7200   42.6770   42.9350 O.co2 314  ASP314     -0.2456
     54  N         31.7370   41.7800   45.7210 N.3   361  CYS361     -0.1221
     55  CA        30.5240   42.5960   45.5200 C.3   361  CYS361      0.1808
     56  C         30.5580   43.7930   46.4870 C.2   361  CYS361      0.2602
     57  O         29.5340   44.1870   47.0600 O.2   361  CYS361     -0.2717
     58  CB        29.2450   41.7780   45.6440 C.3   361  CYS361      0.0970
     59  SG        28.9440   40.7320   44.1970 S.3   361  CYS361     -0.0800
     60  N         31.7800   44.3420   46.6860 N.am  362  SER362     -0.1938
     61  CA        32.0570   45.5200   47.5520 C.3   362  SER362      0.2055
     62  C         31.6400   45.2840   49.0050 C.2   362  SER362      0.2643
     63  O         31.5060   46.2380   49.7500 O.2   362  SER362     -0.2714
     64  CB        31.3620   46.7600   47.0090 C.3   362  SER362      0.2130
     65  OG        31.9010   47.1070   45.7370 O.3   362  SER362     -0.2179
     66  N         31.4700   44.0320   49.3960 N.am  363  SER363     -0.1949
     67  CA        30.9530   43.6600   50.7130 C.3   363  SER363      0.1924
     68  C         31.8120   42.6460   51.4080 C.2   363  SER363      0.2314
     69  O         32.5160   41.8640   50.7590 O.2   363  SER363     -0.2863
     70  CB        29.5440   43.0750   50.5590 C.3   363  SER363      0.2116
     71  OG        28.7360   43.9410   49.7720 O.3   363  SER363     -0.2180
     72  N         26.1980   40.4610   55.6310 N.3   379  LEU379     -0.1245
     73  CA        27.0900   41.2030   54.7550 C.3   379  LEU379      0.1561
     74  C         27.0000   42.6940   55.0600 C.2   379  LEU379      0.2260
     75  O         25.8940   43.2730   55.1720 O.2   379  LEU379     -0.2867
     76  CB        26.7020   40.9380   53.2920 C.3   379  LEU379      0.0270
     77  CG        27.0980   39.5230   52.8090 C.3   379  LEU379      0.0019
     78  CD1       26.4670   39.2050   51.4780 C.3   379  LEU379      0.0001
     79  CD2       28.6440   39.3830   52.6760 C.3   379  LEU379      0.0001
     80  N         29.4500   46.6340   54.2800 N.3   381  ARG381     -0.1245
     81  CA        30.4190   47.2640   53.3730 C.3   381  ARG381      0.1563
     82  C         30.8410   48.5550   54.0270 C.2   381  ARG381      0.2260
     83  O         30.1660   49.0380   54.9500 O.2   381  ARG381     -0.2867
     84  CB        29.7920   47.5300   51.9760 C.3   381  ARG381      0.0307
     85  CG        28.6100   48.5420   51.9660 C.3   381  ARG381      0.0489
     86  CD        28.3530   49.0100   50.5340 C.3   381  ARG381      0.2205
     87  NE        29.3920   49.9850   50.1510 N.pl3 381  ARG381     -0.0865
     88  CZ        29.8040   50.2030   48.9060 C.cat 381  ARG381      0.5346
     89  NH1       29.2620   49.5270   47.8840 N.pl3 381  ARG381      0.1354
     90  NH2       30.7600   51.0930   48.6650 N.pl3 381  ARG381      0.1354
     91  N         19.4090   55.3040   45.8730 N.3   402  SER402     -0.1217
     92  CA        20.3370   54.2920   46.3660 C.3   402  SER402      0.1889
     93  C         20.1280   54.0460   47.8670 C.2   402  SER402      0.2288
     94  O         20.3570   52.9530   48.3340 O.2   402  SER402     -0.2866
     95  CB        21.7800   54.6980   46.0910 C.3   402  SER402      0.2089
     96  OG        22.1540   55.7920   46.9150 O.3   402  SER402     -0.2183
     97  N         17.6200   51.2320   48.3000 N.3   405  GLY405     -0.1210
     98  CA        18.2350   49.9580   47.9440 C.3   405  GLY405      0.1956
     99  C         19.2260   49.5140   49.0130 C.2   405  GLY405      0.2611
    100  O         19.3230   48.3260   49.3340 O.2   405  GLY405     -0.2717
    101  N         19.9740   50.4960   49.6020 N.am  406  ASN406     -0.1974
    102  CA        20.9310   50.1680   50.6590 C.3   406  ASN406      0.1688
    103  C         20.2440   49.6910   51.9250 C.2   406  ASN406      0.2292
    104  O         20.7270   48.7600   52.5660 O.2   406  ASN406     -0.2864
    105  CB        21.8610   51.3680   50.9350 C.3   406  ASN406      0.1181
    106  CG        22.9660   51.4410   49.8820 C.2   406  ASN406      0.2629
    107  OD1       23.5800   50.4010   49.5360 O.2   406  ASN406     -0.2716
    108  ND2       23.3340   52.6570   49.4680 N.am  406  ASN406     -0.0877
    109  N         19.1350   46.0210   51.0720 N.3   409  MET409     -0.1230
    110  CA        20.2190   45.0390   50.9480 C.3   409  MET409      0.1702
    111  C         21.1450   44.9260   52.1410 C.2   409  MET409      0.2592
    112  O         21.7390   43.8710   52.3720 O.2   409  MET409     -0.2718
    113  CB        21.0110   45.2940   49.6540 C.3   409  MET409      0.0401
    114  CG        20.1310   45.2550   48.4000 C.3   409  MET409      0.0596
    115  SD        19.5090   43.5590   48.0380 S.3   409  MET409     -0.1393
    116  CE        20.9330   42.8870   47.1650 C.3   409  MET409      0.0692
    117  N         21.3010   46.0410   52.8630 N.am  410  TYR410     -0.1976
    118  CA        22.1650   46.0950   54.0280 C.3   410  TYR410      0.1639
    119  C         21.3690   46.3240   55.3220 C.2   410  TYR410      0.2290
    120  O         21.9160   46.8250   56.3180 O.2   410  TYR410     -0.2864
    121  CB        23.2300   47.1760   53.8350 C.3   410  TYR410      0.0560
    122  CG        24.2110   46.8210   52.7370 C.ar  410  TYR410     -0.0198
    123  CD1       25.1780   45.8290   52.9290 C.ar  410  TYR410     -0.0009
    124  CD2       24.1700   47.4670   51.5040 C.ar  410  TYR410     -0.0009
    125  CE1       26.1030   45.5150   51.9220 C.ar  410  TYR410      0.0417
    126  CE2       25.0710   47.1440   50.4830 C.ar  410  TYR410      0.0417
    127  CZ        26.0490   46.1860   50.7070 C.ar  410  TYR410      0.1957
    128  OH        26.9370   45.8700   49.6870 O.3   410  TYR410     -0.2866
    129  N         17.0770   50.2150   43.0240 N.3   441  GLN441     -0.1231
    130  CA        17.5910   49.1370   42.1780 C.3   441  GLN441      0.1698
    131  C         18.1000   48.0010   43.0010 C.2   441  GLN441      0.2592
    132  O         18.8130   48.2040   43.9980 O.2   441  GLN441     -0.2718
    133  CB        18.7310   49.6250   41.2680 C.3   441  GLN441      0.0381
    134  CG        18.3010   50.4400   40.0640 C.3   441  GLN441      0.0905
    135  CD        19.5030   50.8290   39.2220 C.2   441  GLN441      0.2608
    136  OE1       20.6430   50.4040   39.4540 O.2   441  GLN441     -0.2717
    137  NE2       19.2680   51.6310   38.2080 N.am  441  GLN441     -0.0878
    138  N         17.7460   46.7680   42.5720 N.am  442  ILE442     -0.1966
    139  CA        18.1940   45.5400   43.2110 C.3   442  ILE442      0.1727
    140  C         18.7680   44.6750   42.1030 C.2   442  ILE442      0.2616
    141  O         18.0370   44.3310   41.1580 O.2   442  ILE442     -0.2715
    142  CB        17.0600   44.8070   43.9750 C.3   442  ILE442      0.0290
    143  CG1       16.3550   45.7610   45.0290 C.3   442  ILE442      0.0022
    144  CG2       17.5920   43.4850   44.5990 C.3   442  ILE442      0.0023
    145  CD1       17.1860   46.1800   46.2790 C.3   442  ILE442      0.0001
    146  N         20.0760   44.3930   42.1960 N.am  443  TYR443     -0.1960
    147  CA        20.7670   43.6100   41.1410 C.3   443  TYR443      0.1771
    148  C         20.5330   44.2160   39.7450 C.2   443  TYR443      0.2620
    149  O         20.3830   43.4970   38.7410 O.2   443  TYR443     -0.2715
    150  CB        20.3910   42.1140   41.2340 C.3   443  TYR443      0.0574
    151  CG        20.9320   41.3880   42.4540 C.ar  443  TYR443     -0.0198
    152  CD1       21.9240   41.9610   43.2550 C.ar  443  TYR443     -0.0009
    153  CD2       20.5580   40.0800   42.7260 C.ar  443  TYR443     -0.0009
    154  CE1       22.4330   41.2910   44.3690 C.ar  443  TYR443      0.0417
    155  CE2       21.1160   39.3700   43.7830 C.ar  443  TYR443      0.0417
    156  CZ        22.0430   39.9820   44.6180 C.ar  443  TYR443      0.1957
    157  OH        22.5860   39.2850   45.6700 O.3   443  TYR443     -0.2866
    158  N         20.4940   45.5500   39.6950 N.am  444  GLY444     -0.1954
    159  CA        20.3700   46.2770   38.4420 C.3   444  GLY444      0.1869
    160  C         18.9710   46.5160   37.9240 C.2   444  GLY444      0.2309
    161  O         18.8070   47.3880   37.0850 O.2   444  GLY444     -0.2863
    162  N         20.7580   42.4480   36.1350 N.3   550  TYR550     -0.1227
    163  CA        20.2920   43.1950   34.9830 C.3   550  TYR550      0.1736
    164  C         20.9530   44.5600   34.8710 C.2   550  TYR550      0.2596
    165  O         20.4270   45.4090   34.1480 O.2   550  TYR550     -0.2718
    166  CB        18.7490   43.3860   34.9990 C.3   550  TYR550      0.0548
    167  CG        17.9880   42.0800   35.0340 C.ar  550  TYR550     -0.0200
    168  CD1       17.8190   41.3120   33.8760 C.ar  550  TYR550     -0.0009
    169  CD2       17.4610   41.5900   36.2310 C.ar  550  TYR550     -0.0009
    170  CE1       17.1140   40.1060   33.9050 C.ar  550  TYR550      0.0417
    171  CE2       16.7360   40.4020   36.2680 C.ar  550  TYR550      0.0417
    172  CZ        16.5650   39.6630   35.1020 C.ar  550  TYR550      0.1957
    173  OH        15.8310   38.4990   35.1530 O.3   550  TYR550     -0.2866
    174  N         22.0870   44.7830   35.5580 N.am  551  SER551     -0.1952
    175  CA        22.7080   46.1210   35.4950 C.3   551  SER551      0.1924
    176  C         23.0360   46.5330   34.0400 C.2   551  SER551      0.2314
    177  O         23.6520   45.7590   33.3120 O.2   551  SER551     -0.2863
    178  CB        23.9860   46.1620   36.3180 C.3   551  SER551      0.2116
    179  OG        24.4390   47.5060   36.3650 O.3   551  SER551     -0.2180
@<TRIPOS>BOND
     1   177   176    2
     2   168   170   ar
     3   168   167   ar
     4   170   172   ar
     5   176   175    1
     6   165   164    2
     7   164   163    1
     8   164   174   am
     9   163   166    1
    10   163   162    1
    11   166   167    1
    12   167   169   ar
    13   172   173    1
    14   172   171   ar
    15   175   174    1
    16   175   178    1
    17    42    39    1
    18    42    43    1
    19   169   171   ar
    20    45    43   ar
    21   178   179    1
    22    38    39    1
    23    39    40    1
    24    43    44   ar
    25   161   160    2
    26    40    41    2
    27    40    46   am
    28   160   159    1
    29   137   135   am
    30   159   158    1
    31    10     8   ar
    32    10    11   ar
    33    32    33    2
    34    32    31    1
    35   149   148    2
    36     8     6   ar
    37    46    47    1
    38   135   136    2
    39   135   134    1
    40    11     9   ar
    41    31    30    1
    42    31    34    1
    43   158   148   am
    44   148   147    1
    45     6     5    1
    46     6     7   ar
    47     5     2    1
    48   134   133    1
    49     9     7   ar
    50    47    48    1
    51    47    50    1
    52    49    48    2
    53    34    35    1
    54   147   150    1
    55   147   146    1
    56   141   140    2
    57    50    51    1
    58   150   151    1
    59   133   130    1
    60     1     2    1
    61     2     3    1
    62     3     4    2
    63    35    37   am
    64    35    36    2
    65   140   146   am
    66   140   139    1
    67   130   131    1
    68   130   129    1
    69   151   153   ar
    70   151   152   ar
    71    51    53   ar
    72    51    52   ar
    73   138   131   am
    74   138   139    1
    75   153   155   ar
    76   131   132    2
    77   139   142    1
    78   152   154   ar
    79   155   156   ar
    80   142   144    1
    81   142   143    1
    82    59    58    1
    83   154   156   ar
    84   156   157    1
    85   143   145    1
    86    28    27    1
    87    55    58    1
    88    55    54    1
    89    55    56    1
    90    65    64    1
    91    91    92    1
    92    95    92    1
    93    95    96    1
    94    29    27    1
    95    92    93    1
    96    56    60   am
    97    56    57    2
    98    27    26    2
    99    60    61    1
   100    64    61    1
   101   116   115    1
   102    61    62    1
   103    26    25    1
   104    93    94    2
   105    89    88    1
   106    98    97    1
   107    98    99    1
   108   115   114    1
   109    25    24    1
   110   114   113    1
   111    24    23    1
   112    90    88    1
   113    88    87    2
   114    62    66   am
   115    62    63    2
   116    99   100    2
   117    99   101   am
   118    23    20    1
   119    66    67    1
   120   108   106   am
   121   107   106    2
   122   101   102    1
   123   113   110    1
   124   128   127    1
   125    20    19    1
   126    20    21    1
   127    71    70    1
   128    18    12    1
   129    18    17    1
   130   106   105    1
   131    12    13    1
   132    87    86    1
   133    17    16    1
   134   126   127   ar
   135   126   124   ar
   136    86    85    1
   137    70    67    1
   138   102   105    1
   139   102   103    1
   140   127   125   ar
   141    67    68    1
   142    13    16    1
   143    13    14    1
   144    69    68    2
   145    22    21    2
   146   110   109    1
   147   110   111    1
   148    78    77    1
   149   124   122   ar
   150    14    15    2
   151   125   123   ar
   152   103   104    2
   153    85    84    1
   154    84    81    1
   155   111   112    2
   156   111   117   am
   157    79    77    1
   158   122   123   ar
   159   122   121    1
   160    77    76    1
   161   117   118    1
   162    76    73    1
   163    81    82    1
   164    81    80    1
   165   121   118    1
   166    82    83    2
   167   118   119    1
   168    73    74    1
   169    73    72    1
   170    74    75    2
   171   119   120    2
