@<TRIPOS>MOLECULE
tmp/3tyzB00.pdb
 156 143 0 0 0
SMALL
GASTEIGER

@<TRIPOS>ATOM
      1  N         19.5090  -12.2050   11.5740 N.3    22  ASN22      -0.1240
      2  CA        20.5980  -12.5540   10.6630 C.3    22  ASN22       0.1653
      3  C         20.7930  -14.0630   10.6360 C.2    22  ASN22       0.2266
      4  O         21.0990  -14.6730   11.6650 O.2    22  ASN22      -0.2867
      5  CB        21.9090  -11.8670   11.0830 C.3    22  ASN22       0.1155
      6  CG        21.9420  -10.3820   10.7410 C.2    22  ASN22       0.2627
      7  OD1       21.6570   -9.9800    9.6090 O.2    22  ASN22      -0.2716
      8  ND2       22.3210   -9.5630   11.7160 N.am   22  ASN22      -0.0877
      9  N         27.9690   -8.5260   11.0130 N.3    28  PHE28      -0.1241
     10  CA        28.9460   -7.7230   11.7570 C.3    28  PHE28       0.1605
     11  C         28.8260   -7.7580   13.2880 C.2    28  PHE28       0.2264
     12  O         29.8390   -7.6810   13.9800 O.2    28  PHE28      -0.2867
     13  CB        28.9800   -6.2730   11.2360 C.3    28  PHE28       0.0534
     14  CG        28.0110   -5.3410   11.9260 C.ar   28  PHE28      -0.0203
     15  CD1       28.4310   -4.5420   12.9890 C.ar   28  PHE28      -0.0042
     16  CD2       26.6900   -5.2360   11.4920 C.ar   28  PHE28      -0.0042
     17  CE1       27.5400   -3.6670   13.6230 C.ar   28  PHE28      -0.0003
     18  CE2       25.7920   -4.3640   12.1210 C.ar   28  PHE28      -0.0003
     19  CZ        26.2190   -3.5820   13.1890 C.ar   28  PHE28      -0.0000
     20  N         22.4310  -12.4670    3.7790 N.3    60  GLU60      -0.1245
     21  CA        23.6340  -11.9010    3.1710 C.3    60  GLU60       0.1567
     22  C         24.0990  -10.6680    3.9370 C.2    60  GLU60       0.2260
     23  O         23.4920   -9.5940    3.8270 O.2    60  GLU60      -0.2867
     24  CB        23.3800  -11.5440    1.6970 C.3    60  GLU60       0.0388
     25  CG        24.6020  -10.9840    0.9490 C.3    60  GLU60       0.1160
     26  CD        24.2350   -9.9680   -0.1300 C.2    60  GLU60       0.3649
     27  OE1       23.0530   -9.5640   -0.2160 O.co2  60  GLU60      -0.2457
     28  OE2       25.1390   -9.5590   -0.8950 O.co2  60  GLU60      -0.2457
     29  N         26.0490   -7.4060    4.5100 N.3    62  THR62      -0.1203
     30  CA        26.4620   -6.3710    3.5640 C.3    62  THR62       0.1994
     31  C         27.3080   -5.3100    4.2690 C.2    62  THR62       0.2617
     32  O         27.3820   -4.1520    3.8290 O.2    62  THR62      -0.2717
     33  CB        25.2500   -5.7220    2.8660 C.3    62  THR62       0.1784
     34  OG1       24.2510   -5.3900    3.8430 O.3    62  THR62      -0.2211
     35  CG2       24.6580   -6.6760    1.8310 C.3    62  THR62       0.0376
     36  N         27.9360   -5.7180    5.3740 N.am   63  ARG63      -0.1979
     37  CA        28.8770   -4.8750    6.1030 C.3    63  ARG63       0.1597
     38  C         30.0390   -4.5010    5.1770 C.2    63  ARG63       0.2287
     39  O         30.3040   -5.2200    4.2100 O.2    63  ARG63      -0.2864
     40  CB        29.3960   -5.6100    7.3500 C.3    63  ARG63       0.0334
     41  CG        30.4230   -6.6810    7.0240 C.3    63  ARG63       0.0492
     42  CD        30.6600   -7.6410    8.1590 C.3    63  ARG63       0.2205
     43  NE        31.7820   -8.5280    7.8450 N.pl3  63  ARG63      -0.0865
     44  CZ        31.7140   -9.5820    7.0350 C.cat  63  ARG63       0.5346
     45  NH1       30.5700   -9.9010    6.4420 N.pl3  63  ARG63       0.1354
     46  NH2       32.7990  -10.3170    6.8130 N.pl3  63  ARG63       0.1354
     47  N         15.5650   -9.4380    3.8080 N.3    96  ASP96      -0.1239
     48  CA        16.6830   -8.5770    3.4710 C.3    96  ASP96       0.1674
     49  C         17.5170   -9.2830    2.4150 C.2    96  ASP96       0.2266
     50  O         18.4920   -9.9660    2.7320 O.2    96  ASP96      -0.2867
     51  CB        17.5070   -8.2780    4.7300 C.3    96  ASP96       0.1410
     52  CG        18.5750   -7.2200    4.5090 C.2    96  ASP96       0.3668
     53  OD1       18.7650   -6.7490    3.3630 O.co2  96  ASP96      -0.2456
     54  OD2       19.2370   -6.8540    5.5050 O.co2  96  ASP96      -0.2456
     55  N         12.8920   -6.1220    1.6150 N.3   115  ASN115     -0.1240
     56  CA        13.8580   -5.1590    2.1270 C.3   115  ASN115      0.1653
     57  C         15.1300   -5.3090    1.3150 C.2   115  ASN115      0.2266
     58  O         15.9520   -6.1890    1.5800 O.2   115  ASN115     -0.2867
     59  CB        14.1170   -5.4140    3.6210 C.3   115  ASN115      0.1155
     60  CG        15.2220   -4.5310    4.2010 C.2   115  ASN115      0.2627
     61  OD1       15.5360   -3.4630    3.6700 O.2   115  ASN115     -0.2716
     62  ND2       15.8120   -4.9810    5.3120 N.am  115  ASN115     -0.0877
     63  N         18.5840   -3.7090    0.0190 N.3   117  ILE117     -0.1245
     64  CA        19.6150   -2.6880    0.1950 C.3   117  ILE117      0.1561
     65  C         20.2070   -2.2210   -1.1370 C.2   117  ILE117      0.2260
     66  O         20.8640   -1.1780   -1.1970 O.2   117  ILE117     -0.2867
     67  CB        20.7420   -3.1380    1.1890 C.3   117  ILE117      0.0252
     68  CG1       21.6020   -4.2750    0.6120 C.3   117  ILE117      0.0019
     69  CG2       20.1610   -3.4820    2.5680 C.3   117  ILE117      0.0019
     70  CD1       22.9820   -3.8100    0.1360 C.3   117  ILE117      0.0001
     71  N         11.0250   -1.9990    0.3060 N.3   137  CYS137     -0.1235
     72  CA        11.8510   -0.9310    0.8530 C.3   137  CYS137      0.1677
     73  C         13.0550   -0.7020   -0.0520 C.2   137  CYS137      0.2270
     74  O         13.7950   -1.6400   -0.3650 O.2   137  CYS137     -0.2867
     75  CB        12.3080   -1.2600    2.2780 C.3   137  CYS137      0.0956
     76  SG        13.2800    0.0530    3.0370 S.3   137  CYS137     -0.0801
     77  N         16.6140    1.1910   -0.4510 N.3   139  MET139     -0.1245
     78  CA        17.6640    1.8000    0.3690 C.3   139  MET139      0.1570
     79  C         18.7410    2.5050   -0.4560 C.2   139  MET139      0.2261
     80  O         19.1600    2.0020   -1.4940 O.2   139  MET139     -0.2867
     81  CB        18.2970    0.7590    1.3080 C.3   139  MET139      0.0387
     82  CG        19.1070    1.3590    2.4610 C.3   139  MET139      0.0595
     83  SD        20.2640    0.2140    3.2580 S.3   139  MET139     -0.1393
     84  CE        21.5360    0.1410    2.0020 C.3   139  MET139      0.0692
     85  N         14.6210    4.1030    2.6780 N.3   185  ASP185     -0.1239
     86  CA        15.6410    4.0040    3.7180 C.3   185  ASP185      0.1674
     87  C         16.9120    4.7080    3.2380 C.2   185  ASP185      0.2266
     88  O         17.4790    4.3140    2.2210 O.2   185  ASP185     -0.2867
     89  CB        15.9210    2.5300    4.0380 C.3   185  ASP185      0.1410
     90  CG        16.9150    2.3360    5.1830 C.2   185  ASP185      0.3668
     91  OD1       17.7550    3.2160    5.4580 O.co2 185  ASP185     -0.2456
     92  OD2       16.8530    1.2660    5.8120 O.co2 185  ASP185     -0.2456
     93  N         21.9880    4.2730    6.4660 N.3   188  PHE188     -0.1241
     94  CA        23.0690    4.6480    7.3680 C.3   188  PHE188      0.1605
     95  C         24.2180    3.6450    7.2750 C.2   188  PHE188      0.2264
     96  O         23.9860    2.4370    7.2060 O.2   188  PHE188     -0.2867
     97  CB        22.5540    4.7440    8.8060 C.3   188  PHE188      0.0534
     98  CG        21.6720    5.9340    9.0500 C.ar  188  PHE188     -0.0203
     99  CD1       22.2230    7.1450    9.4580 C.ar  188  PHE188     -0.0042
    100  CD2       20.2890    5.8480    8.8690 C.ar  188  PHE188     -0.0042
    101  CE1       21.4190    8.2490    9.6790 C.ar  188  PHE188     -0.0003
    102  CE2       19.4750    6.9460    9.0950 C.ar  188  PHE188     -0.0003
    103  CZ        20.0400    8.1490    9.4960 C.ar  188  PHE188     -0.0000
    104  N         26.1120    3.0310    4.8010 N.3   190  PHE190     -0.1241
    105  CA        26.2950    2.5020    3.4480 C.3   190  PHE190      0.1605
    106  C         26.8610    3.5730    2.5190 C.2   190  PHE190      0.2264
    107  O         26.1090    4.3210    1.8910 O.2   190  PHE190     -0.2867
    108  CB        24.9750    1.9530    2.8880 C.3   190  PHE190      0.0534
    109  CG        24.5230    0.6530    3.5200 C.ar  190  PHE190     -0.0203
    110  CD1       24.9780   -0.5730    3.0340 C.ar  190  PHE190     -0.0042
    111  CD2       23.6130    0.6570    4.5740 C.ar  190  PHE190     -0.0042
    112  CE1       24.5500   -1.7830    3.6090 C.ar  190  PHE190     -0.0003
    113  CE2       23.1730   -0.5360    5.1530 C.ar  190  PHE190     -0.0003
    114  CZ        23.6410   -1.7620    4.6690 C.ar  190  PHE190     -0.0000
    115  N         12.1000    3.9980    6.6910 N.3   215  LEU215     -0.1245
    116  CA        12.6970    2.9420    7.4840 C.3   215  LEU215      0.1561
    117  C         14.1500    3.3460    7.7000 C.2   215  LEU215      0.2260
    118  O         14.7780    3.8980    6.8020 O.2   215  LEU215     -0.2867
    119  CB        12.6020    1.6070    6.7430 C.3   215  LEU215      0.0270
    120  CG        12.9880    0.3340    7.4990 C.3   215  LEU215      0.0019
    121  CD1       12.2270   -0.8290    6.9060 C.3   215  LEU215      0.0001
    122  CD2       14.4850    0.0740    7.4500 C.3   215  LEU215      0.0001
    123  N         18.0250    2.1800    9.7290 N.3   217  GLY217     -0.1225
    124  CA        18.8080    1.1370   10.3720 C.3   217  GLY217      0.1811
    125  C         20.1460    1.6640   10.8380 C.2   217  GLY217      0.2280
    126  O         21.0660    1.8440   10.0440 O.2   217  GLY217     -0.2866
    127  N         25.7450    0.0600   14.6090 N.3   221  LYS221     -0.1245
    128  CA        26.6650    0.3890   13.5150 C.3   221  LYS221      0.1561
    129  C         27.8750    1.2100   13.9710 C.2   221  LYS221      0.2260
    130  O         27.9130    1.6990   15.1070 O.2   221  LYS221     -0.2867
    131  CB        25.9230    1.0650   12.3490 C.3   221  LYS221      0.0271
    132  CG        25.0170    0.0950   11.5790 C.3   221  LYS221      0.0035
    133  CD        24.3880    0.7320   10.3560 C.3   221  LYS221      0.0206
    134  CE        23.5620   -0.3050    9.5880 C.3   221  LYS221      0.1093
    135  NZ        22.7700    0.3340    8.5100 N.3   221  LYS221     -0.1314
    136  N         14.7400   -0.3610   12.3980 N.3   255  ARG255     -0.1245
    137  CA        15.3200   -1.6860   12.2470 C.3   255  ARG255      0.1563
    138  C         16.4370   -1.8710   13.2730 C.2   255  ARG255      0.2260
    139  O         17.4670   -1.1970   13.1990 O.2   255  ARG255     -0.2867
    140  CB        15.8570   -1.8350   10.8270 C.3   255  ARG255      0.0307
    141  CG        16.4030   -3.2040   10.4930 C.3   255  ARG255      0.0489
    142  CD        16.9930   -3.2250    9.0810 C.3   255  ARG255      0.2205
    143  NE        17.5250   -4.5500    8.7690 N.pl3 255  ARG255     -0.0865
    144  CZ        18.7490   -4.9710    9.0720 C.cat 255  ARG255      0.5346
    145  NH1       19.6070   -4.1640    9.6950 N.pl3 255  ARG255      0.1354
    146  NH2       19.1180   -6.2080    8.7470 N.pl3 255  ARG255      0.1354
    147  N         18.5440   -4.5460   16.4530 N.3   257  HIS257     -0.1241
    148  CA        18.8850   -5.8310   17.0680 C.3   257  HIS257      0.1621
    149  C         18.2350   -5.9520   18.4380 C.2   257  HIS257      0.2264
    150  O         17.7960   -7.0280   18.8200 O.2   257  HIS257     -0.2867
    151  CB        20.3980   -5.9850   17.2180 C.3   257  HIS257      0.0745
    152  CG        21.1530   -5.8690   15.9320 C.ar  257  HIS257      0.0817
    153  ND1       21.7010   -4.6830   15.4950 N.ar  257  HIS257     -0.2268
    154  CD2       21.4580   -6.7940   14.9900 C.ar  257  HIS257      0.1154
    155  CE1       22.3100   -4.8810   14.3390 C.ar  257  HIS257      0.1986
    156  NE2       22.1780   -6.1530   14.0110 N.ar  257  HIS257     -0.2212
@<TRIPOS>BOND
     1    80    79    2
     2    66    65    2
     3    65    64    1
     4    28    26   ar
     5    79    78    1
     6    77    78    1
     7    74    73    2
     8    27    26   ar
     9    26    25    1
    10    73    72    1
    11    63    64    1
    12    70    68    1
    13    64    67    1
    14    71    72    1
    15    78    81    1
    16    68    67    1
    17    72    75    1
    18    25    24    1
    19    67    69    1
    20    81    82    1
    21    57    58    2
    22    57    56    1
    23    55    56    1
    24    24    21    1
    25    35    33    1
    26   107   106    2
    27    84    83    1
    28    56    59    1
    29    88    87    2
    30    75    76    1
    31    49    50    2
    32    49    48    1
    33    82    83    1
    34   106   105    1
    35    85    86    1
    36    33    30    1
    37    33    34    1
    38   108   105    1
    39   108   109    1
    40   110   109   ar
    41   110   112   ar
    42    21    20    1
    43    21    22    1
    44    87    86    1
    45    53    52   ar
    46   105   104    1
    47    48    47    1
    48    48    51    1
    49   109   111   ar
    50    30    31    1
    51    30    29    1
    52   112   114   ar
    53    59    60    1
    54    61    60    2
    55    86    89    1
    56    23    22    2
    57    32    31    2
    58    89    90    1
    59    60    62   am
    60    39    38    2
    61    31    36   am
    62    52    51    1
    63    52    54   ar
    64   111   113   ar
    65   114   113   ar
    66    38    37    1
    67    90    91   ar
    68    90    92   ar
    69    36    37    1
    70    37    40    1
    71    45    44    1
    72    93    94    1
    73   115   116    1
    74   119   116    1
    75   119   120    1
    76   118   117    2
    77    46    44    1
    78   121   120    1
    79    41    40    1
    80    41    42    1
    81    44    43    2
    82    96    95    2
    83    95    94    1
    84    94    97    1
    85   122   120    1
    86   116   117    1
    87    43    42    1
    88   135   134    1
    89   146   144    1
    90   143   144    2
    91   143   142    1
    92    97    98    1
    93   100    98   ar
    94   100   102   ar
    95    98    99   ar
    96   144   145    1
    97   142   141    1
    98   102   103   ar
    99    99   101   ar
   100   103   101   ar
   101   134   133    1
   102     7     6    2
   103   123   124    1
   104   126   125    2
   105   133   132    1
   106   124   125    1
   107   141   140    1
   108     3     2    1
   109     3     4    2
   110     2     5    1
   111     2     1    1
   112     6     5    1
   113     6     8   am
   114   140   137    1
   115     9    10    1
   116    13    10    1
   117    13    14    1
   118    16    14   ar
   119    16    18   ar
   120   132   131    1
   121    10    11    1
   122    14    15   ar
   123    18    19   ar
   124   137   136    1
   125   137   138    1
   126   131   128    1
   127    15    17   ar
   128    19    17   ar
   129   139   138    2
   130    11    12    2
   131   128   129    1
   132   128   127    1
   133   129   130    2
   134   156   155   ar
   135   156   154   ar
   136   155   153   ar
   137   154   152   ar
   138   153   152   ar
   139   152   151    1
   140   147   148    1
   141   148   151    1
   142   148   149    1
   143   149   150    2
