@<TRIPOS>MOLECULE
tmp/3tyzB01.pdb
 129 123 0 0 0
SMALL
GASTEIGER

@<TRIPOS>ATOM
      1  N         15.7560   -7.5560   13.7950 N.3    20  ILE20      -0.1245
      2  CA        16.7540   -8.1520   12.8940 C.3    20  ILE20       0.1561
      3  C         17.0290   -9.6250   13.2150 C.2    20  ILE20       0.2260
      4  O         17.4050   -9.9680   14.3390 O.2    20  ILE20      -0.2867
      5  CB        18.0990   -7.3770   12.9440 C.3    20  ILE20       0.0252
      6  CG1       17.9160   -5.9360   12.4620 C.3    20  ILE20       0.0019
      7  CG2       19.2000   -8.1070   12.1390 C.3    20  ILE20       0.0019
      8  CD1       19.0420   -4.9830   12.8800 C.3    20  ILE20       0.0001
      9  N         19.5090  -12.2050   11.5740 N.3    22  ASN22      -0.1240
     10  CA        20.5980  -12.5540   10.6630 C.3    22  ASN22       0.1653
     11  C         20.7930  -14.0630   10.6360 C.2    22  ASN22       0.2266
     12  O         21.0990  -14.6730   11.6650 O.2    22  ASN22      -0.2867
     13  CB        21.9090  -11.8670   11.0830 C.3    22  ASN22       0.1155
     14  CG        21.9420  -10.3820   10.7410 C.2    22  ASN22       0.2627
     15  OD1       21.6570   -9.9800    9.6090 O.2    22  ASN22      -0.2716
     16  ND2       22.3210   -9.5630   11.7160 N.am   22  ASN22      -0.0877
     17  N         27.6360  -11.9250    9.8380 N.3    27  SER27      -0.1202
     18  CA        27.0590  -10.5970   10.1070 C.3    27  SER27       0.2020
     19  C         27.8760   -9.8450   11.1610 C.2    27  SER27       0.2619
     20  O         28.3980  -10.4510   12.0950 O.2    27  SER27      -0.2717
     21  CB        25.5900  -10.7050   10.5320 C.3    27  SER27       0.2103
     22  OG        24.7470  -10.9620    9.4120 O.3    27  SER27      -0.2182
     23  N         27.9690   -8.5260   11.0130 N.am   28  PHE28      -0.1961
     24  CA        28.9460   -7.7230   11.7570 C.3    28  PHE28       0.1771
     25  C         28.8260   -7.7580   13.2880 C.2    28  PHE28       0.2620
     26  O         29.8390   -7.6810   13.9800 O.2    28  PHE28      -0.2715
     27  CB        28.9800   -6.2730   11.2360 C.3    28  PHE28       0.0574
     28  CG        28.0110   -5.3410   11.9260 C.ar   28  PHE28      -0.0200
     29  CD1       28.4310   -4.5420   12.9890 C.ar   28  PHE28      -0.0042
     30  CD2       26.6900   -5.2360   11.4920 C.ar   28  PHE28      -0.0042
     31  CE1       27.5400   -3.6670   13.6230 C.ar   28  PHE28      -0.0003
     32  CE2       25.7920   -4.3640   12.1210 C.ar   28  PHE28      -0.0003
     33  CZ        26.2190   -3.5820   13.1890 C.ar   28  PHE28      -0.0000
     34  N         27.6070   -7.8810   13.8130 N.am   29  SER29      -0.1936
     35  CA        27.4060   -7.8660   15.2680 C.3    29  SER29       0.2055
     36  C         26.9960   -9.2180   15.8560 C.2    29  SER29       0.2643
     37  O         27.1430   -9.4350   17.0660 O.2    29  SER29      -0.2714
     38  CB        26.4090   -6.7650   15.6880 C.3    29  SER29       0.2130
     39  OG        25.0700   -7.2340   15.7250 O.3    29  SER29      -0.2179
     40  N         26.5170  -10.1320   15.0070 N.am   30  ASP30      -0.1971
     41  CA        25.8850  -11.3700   15.4970 C.3    30  ASP30       0.1709
     42  C         25.9690  -12.5960   14.5820 C.2    30  ASP30       0.2293
     43  O         25.2110  -13.5560   14.7640 O.2    30  ASP30      -0.2864
     44  CB        24.4090  -11.0940   15.8590 C.3    30  ASP30       0.1436
     45  CG        23.5990  -10.5650   14.6810 C.2    30  ASP30       0.3671
     46  OD1       24.1360  -10.4800   13.5550 O.co2  30  ASP30      -0.2456
     47  OD2       22.4160  -10.2220   14.8840 O.co2  30  ASP30      -0.2456
     48  N         22.4310  -12.4670    3.7790 N.3    60  GLU60      -0.1231
     49  CA        23.6340  -11.9010    3.1710 C.3    60  GLU60       0.1699
     50  C         24.0990  -10.6680    3.9370 C.2    60  GLU60       0.2593
     51  O         23.4920   -9.5940    3.8270 O.2    60  GLU60      -0.2718
     52  CB        23.3800  -11.5440    1.6970 C.3    60  GLU60       0.0402
     53  CG        24.6020  -10.9840    0.9490 C.3    60  GLU60       0.1161
     54  CD        24.2350   -9.9680   -0.1300 C.2    60  GLU60       0.3649
     55  OE1       23.0530   -9.5640   -0.2160 O.co2  60  GLU60      -0.2457
     56  OE2       25.1390   -9.5590   -0.8950 O.co2  60  GLU60      -0.2457
     57  N         25.1650  -10.8180    4.7260 N.am   61  SER61      -0.1938
     58  CA        25.7790   -9.6610    5.3620 C.3    61  SER61       0.2055
     59  C         26.2460   -8.6990    4.2730 C.2    61  SER61       0.2644
     60  O         26.7360   -9.1260    3.2240 O.2    61  SER61      -0.2714
     61  CB        26.9520  -10.0680    6.2480 C.3    61  SER61       0.2130
     62  OG        27.6130   -8.9180    6.7570 O.3    61  SER61      -0.2179
     63  N         26.0490   -7.4060    4.5100 N.am   62  THR62      -0.1936
     64  CA        26.4620   -6.3710    3.5640 C.3    62  THR62       0.2028
     65  C         27.3080   -5.3100    4.2690 C.2    62  THR62       0.2642
     66  O         27.3820   -4.1520    3.8290 O.2    62  THR62      -0.2714
     67  CB        25.2500   -5.7220    2.8660 C.3    62  THR62       0.1808
     68  OG1       24.2510   -5.3900    3.8430 O.3    62  THR62      -0.2208
     69  CG2       24.6580   -6.6760    1.8310 C.3    62  THR62       0.0379
     70  N         27.9360   -5.7180    5.3740 N.am   63  ARG63      -0.1977
     71  CA        28.8770   -4.8750    6.1030 C.3    63  ARG63       0.1597
     72  C         30.0390   -4.5010    5.1770 C.2    63  ARG63       0.2287
     73  O         30.3040   -5.2200    4.2100 O.2    63  ARG63      -0.2864
     74  CB        29.3960   -5.6100    7.3500 C.3    63  ARG63       0.0334
     75  CG        30.4230   -6.6810    7.0240 C.3    63  ARG63       0.0492
     76  CD        30.6600   -7.6410    8.1590 C.3    63  ARG63       0.2205
     77  NE        31.7820   -8.5280    7.8450 N.pl3  63  ARG63      -0.0865
     78  CZ        31.7140   -9.5820    7.0350 C.cat  63  ARG63       0.5346
     79  NH1       30.5700   -9.9010    6.4420 N.pl3  63  ARG63       0.1354
     80  NH2       32.7990  -10.3170    6.8130 N.pl3  63  ARG63       0.1354
     81  N         15.5650   -9.4380    3.8080 N.3    96  ASP96      -0.1239
     82  CA        16.6830   -8.5770    3.4710 C.3    96  ASP96       0.1674
     83  C         17.5170   -9.2830    2.4150 C.2    96  ASP96       0.2266
     84  O         18.4920   -9.9660    2.7320 O.2    96  ASP96      -0.2867
     85  CB        17.5070   -8.2780    4.7300 C.3    96  ASP96       0.1410
     86  CG        18.5750   -7.2200    4.5090 C.2    96  ASP96       0.3668
     87  OD1       18.7650   -6.7490    3.3630 O.co2  96  ASP96      -0.2456
     88  OD2       19.2370   -6.8540    5.5050 O.co2  96  ASP96      -0.2456
     89  N         26.1120    3.0310    4.8010 N.3   190  PHE190     -0.1241
     90  CA        26.2950    2.5020    3.4480 C.3   190  PHE190      0.1605
     91  C         26.8610    3.5730    2.5190 C.2   190  PHE190      0.2264
     92  O         26.1090    4.3210    1.8910 O.2   190  PHE190     -0.2867
     93  CB        24.9750    1.9530    2.8880 C.3   190  PHE190      0.0534
     94  CG        24.5230    0.6530    3.5200 C.ar  190  PHE190     -0.0203
     95  CD1       24.9780   -0.5730    3.0340 C.ar  190  PHE190     -0.0042
     96  CD2       23.6130    0.6570    4.5740 C.ar  190  PHE190     -0.0042
     97  CE1       24.5500   -1.7830    3.6090 C.ar  190  PHE190     -0.0003
     98  CE2       23.1730   -0.5360    5.1530 C.ar  190  PHE190     -0.0003
     99  CZ        23.6410   -1.7620    4.6690 C.ar  190  PHE190     -0.0000
    100  N         25.7450    0.0600   14.6090 N.3   221  LYS221     -0.1245
    101  CA        26.6650    0.3890   13.5150 C.3   221  LYS221      0.1561
    102  C         27.8750    1.2100   13.9710 C.2   221  LYS221      0.2260
    103  O         27.9130    1.6990   15.1070 O.2   221  LYS221     -0.2867
    104  CB        25.9230    1.0650   12.3490 C.3   221  LYS221      0.0271
    105  CG        25.0170    0.0950   11.5790 C.3   221  LYS221      0.0035
    106  CD        24.3880    0.7320   10.3560 C.3   221  LYS221      0.0206
    107  CE        23.5620   -0.3050    9.5880 C.3   221  LYS221      0.1093
    108  NZ        22.7700    0.3340    8.5100 N.3   221  LYS221     -0.1314
    109  N         14.7400   -0.3610   12.3980 N.3   255  ARG255     -0.1245
    110  CA        15.3200   -1.6860   12.2470 C.3   255  ARG255      0.1563
    111  C         16.4370   -1.8710   13.2730 C.2   255  ARG255      0.2260
    112  O         17.4670   -1.1970   13.1990 O.2   255  ARG255     -0.2867
    113  CB        15.8570   -1.8350   10.8270 C.3   255  ARG255      0.0307
    114  CG        16.4030   -3.2040   10.4930 C.3   255  ARG255      0.0489
    115  CD        16.9930   -3.2250    9.0810 C.3   255  ARG255      0.2205
    116  NE        17.5250   -4.5500    8.7690 N.pl3 255  ARG255     -0.0865
    117  CZ        18.7490   -4.9710    9.0720 C.cat 255  ARG255      0.5346
    118  NH1       19.6070   -4.1640    9.6950 N.pl3 255  ARG255      0.1354
    119  NH2       19.1180   -6.2080    8.7470 N.pl3 255  ARG255      0.1354
    120  N         18.5440   -4.5460   16.4530 N.3   257  HIS257     -0.1241
    121  CA        18.8850   -5.8310   17.0680 C.3   257  HIS257      0.1621
    122  C         18.2350   -5.9520   18.4380 C.2   257  HIS257      0.2264
    123  O         17.7960   -7.0280   18.8200 O.2   257  HIS257     -0.2867
    124  CB        20.3980   -5.9850   17.2180 C.3   257  HIS257      0.0745
    125  CG        21.1530   -5.8690   15.9320 C.ar  257  HIS257      0.0817
    126  ND1       21.7010   -4.6830   15.4950 N.ar  257  HIS257     -0.2268
    127  CD2       21.4580   -6.7940   14.9900 C.ar  257  HIS257      0.1154
    128  CE1       22.3100   -4.8810   14.3390 C.ar  257  HIS257      0.1986
    129  NE2       22.1780   -6.1530   14.0110 N.ar  257  HIS257     -0.2212
@<TRIPOS>BOND
     1    56    54   ar
     2    55    54   ar
     3    54    53    1
     4    53    52    1
     5    52    49    1
     6    69    67    1
     7    92    91    2
     8    83    84    2
     9    83    82    1
    10    91    90    1
    11    67    64    1
    12    67    68    1
    13    93    90    1
    14    93    94    1
    15    95    94   ar
    16    95    97   ar
    17    49    48    1
    18    49    50    1
    19    60    59    2
    20    87    86   ar
    21    90    89    1
    22    82    81    1
    23    82    85    1
    24    94    96   ar
    25    64    65    1
    26    64    63    1
    27    97    99   ar
    28    51    50    2
    29    66    65    2
    30    50    57   am
    31    73    72    2
    32    65    70   am
    33    59    63   am
    34    59    58    1
    35    86    85    1
    36    86    88   ar
    37    96    98   ar
    38    99    98   ar
    39    57    58    1
    40    72    71    1
    41    58    61    1
    42    70    71    1
    43    71    74    1
    44    61    62    1
    45    79    78    1
    46    80    78    1
    47    75    74    1
    48    75    76    1
    49    78    77    2
    50    77    76    1
    51   108   107    1
    52   119   117    1
    53   116   117    2
    54   116   115    1
    55   117   118    1
    56   115   114    1
    57    22    21    1
    58   107   106    1
    59    15    14    2
    60    17    18    1
    61    18    21    1
    62    18    19    1
    63   106   105    1
    64   114   113    1
    65    11    10    1
    66    11    12    2
    67    10    13    1
    68    10     9    1
    69    14    13    1
    70    14    16   am
    71   113   110    1
    72    23    19   am
    73    23    24    1
    74    19    20    2
    75    27    24    1
    76    27    28    1
    77    30    28   ar
    78    30    32   ar
    79   105   104    1
    80    24    25    1
    81    28    29   ar
    82    32    33   ar
    83     7     5    1
    84   110   109    1
    85   110   111    1
    86   104   101    1
    87     6     8    1
    88     6     5    1
    89     2     5    1
    90     2     3    1
    91     2     1    1
    92    29    31   ar
    93    33    31   ar
    94   112   111    2
    95     3     4    2
    96    25    34   am
    97    25    26    2
    98   101   102    1
    99   101   100    1
   100    46    45   ar
   101    34    35    1
   102   102   103    2
   103   129   128   ar
   104   129   127   ar
   105   128   126   ar
   106    42    43    2
   107    42    41    1
   108    45    47   ar
   109    45    44    1
   110   127   125   ar
   111    40    41    1
   112    40    36   am
   113    35    38    1
   114    35    36    1
   115   126   125   ar
   116    41    44    1
   117    38    39    1
   118    36    37    2
   119   125   124    1
   120   120   121    1
   121   121   124    1
   122   121   122    1
   123   122   123    2
