@<TRIPOS>MOLECULE
tmp/3tyzB02.pdb
 99 96 0 0 0
SMALL
GASTEIGER

@<TRIPOS>ATOM
      1  N         27.9690   -8.5260   11.0130 N.3    28  PHE28      -0.1241
      2  CA        28.9460   -7.7230   11.7570 C.3    28  PHE28       0.1605
      3  C         28.8260   -7.7580   13.2880 C.2    28  PHE28       0.2264
      4  O         29.8390   -7.6810   13.9800 O.2    28  PHE28      -0.2867
      5  CB        28.9800   -6.2730   11.2360 C.3    28  PHE28       0.0534
      6  CG        28.0110   -5.3410   11.9260 C.ar   28  PHE28      -0.0203
      7  CD1       28.4310   -4.5420   12.9890 C.ar   28  PHE28      -0.0042
      8  CD2       26.6900   -5.2360   11.4920 C.ar   28  PHE28      -0.0042
      9  CE1       27.5400   -3.6670   13.6230 C.ar   28  PHE28      -0.0003
     10  CE2       25.7920   -4.3640   12.1210 C.ar   28  PHE28      -0.0003
     11  CZ        26.2190   -3.5820   13.1890 C.ar   28  PHE28      -0.0000
     12  N         26.0490   -7.4060    4.5100 N.3    62  THR62      -0.1203
     13  CA        26.4620   -6.3710    3.5640 C.3    62  THR62       0.1994
     14  C         27.3080   -5.3100    4.2690 C.2    62  THR62       0.2618
     15  O         27.3820   -4.1520    3.8290 O.2    62  THR62      -0.2717
     16  CB        25.2500   -5.7220    2.8660 C.3    62  THR62       0.1784
     17  OG1       24.2510   -5.3900    3.8430 O.3    62  THR62      -0.2211
     18  CG2       24.6580   -6.6760    1.8310 C.3    62  THR62       0.0376
     19  N         27.9360   -5.7180    5.3740 N.am   63  ARG63      -0.1965
     20  CA        28.8770   -4.8750    6.1030 C.3    63  ARG63       0.1714
     21  C         30.0390   -4.5010    5.1770 C.2    63  ARG63       0.2458
     22  O         30.3040   -5.2200    4.2100 O.2    63  ARG63      -0.2730
     23  CB        29.3960   -5.6100    7.3500 C.3    63  ARG63       0.0347
     24  CG        30.4230   -6.6810    7.0240 C.3    63  ARG63       0.0492
     25  CD        30.6600   -7.6410    8.1590 C.3    63  ARG63       0.2205
     26  NE        31.7820   -8.5280    7.8450 N.pl3  63  ARG63      -0.0865
     27  CZ        31.7140   -9.5820    7.0350 C.cat  63  ARG63       0.5346
     28  NH1       30.5700   -9.9010    6.4420 N.pl3  63  ARG63       0.1354
     29  NH2       32.7990  -10.3170    6.8130 N.pl3  63  ARG63       0.1354
     30  N         30.7280   -3.3720    5.4610 N.am   64  PRO64      -0.2727
     31  CA        31.8850   -2.9680    4.6580 C.3    64  PRO64       0.1402
     32  C         32.8940   -4.1090    4.5170 C.2    64  PRO64       0.2269
     33  O         33.3280   -4.6780    5.5190 O.2    64  PRO64      -0.2865
     34  CB        32.4860   -1.8150    5.4710 C.3    64  PRO64       0.0296
     35  CG        31.3300   -1.2270    6.1810 C.3    64  PRO64       0.0237
     36  CD        30.3980   -2.3650    6.4910 C.3    64  PRO64       0.0939
     37  N         32.1760    0.5880   -0.6210 N.3   148  MET148     -0.1230
     38  CA        31.3820    1.7370   -0.1650 C.3   148  MET148      0.1702
     39  C         32.0980    2.6390    0.8580 C.2   148  MET148      0.2592
     40  O         31.9390    3.8630    0.8280 O.2   148  MET148     -0.2718
     41  CB        30.0040    1.2900    0.3510 C.3   148  MET148      0.0401
     42  CG        30.0120    0.3270    1.5390 C.3   148  MET148      0.0596
     43  SD        28.3410   -0.2560    1.9070 S.3   148  MET148     -0.1393
     44  CE        28.5390   -0.9160    3.5700 C.3   148  MET148      0.0692
     45  N         32.8960    2.0420    1.7410 N.am  149  GLN149     -0.1979
     46  CA        33.5810    2.8120    2.7830 C.3   149  GLN149      0.1601
     47  C         34.9760    3.3090    2.3910 C.2   149  GLN149      0.2287
     48  O         35.6940    3.8810    3.2180 O.2   149  GLN149     -0.2864
     49  CB        33.6170    2.0420    4.1100 C.3   149  GLN149      0.0394
     50  CG        32.2470    1.8960    4.7910 C.3   149  GLN149      0.0908
     51  CD        31.4440    3.1950    4.8310 C.2   149  GLN149      0.2608
     52  OE1       30.3910    3.3070    4.1930 O.2   149  GLN149     -0.2717
     53  NE2       31.9330    4.1780    5.5860 N.am  149  GLN149     -0.0878
     54  N         25.4470    4.1620    7.2450 N.3   189  GLY189     -0.1210
     55  CA        26.6540    3.3300    7.1590 C.3   189  GLY189      0.1956
     56  C         26.9610    2.7380    5.7890 C.2   189  GLY189      0.2611
     57  O         27.9530    2.0130    5.6320 O.2   189  GLY189     -0.2717
     58  N         26.1120    3.0310    4.8010 N.am  190  PHE190     -0.1976
     59  CA        26.2950    2.5020    3.4480 C.3   190  PHE190      0.1639
     60  C         26.8610    3.5730    2.5190 C.2   190  PHE190      0.2290
     61  O         26.1090    4.3210    1.8910 O.2   190  PHE190     -0.2864
     62  CB        24.9750    1.9530    2.8880 C.3   190  PHE190      0.0560
     63  CG        24.5230    0.6530    3.5200 C.ar  190  PHE190     -0.0200
     64  CD1       24.9780   -0.5730    3.0340 C.ar  190  PHE190     -0.0042
     65  CD2       23.6130    0.6570    4.5740 C.ar  190  PHE190     -0.0042
     66  CE1       24.5500   -1.7830    3.6090 C.ar  190  PHE190     -0.0003
     67  CE2       23.1730   -0.5360    5.1530 C.ar  190  PHE190     -0.0003
     68  CZ        23.6410   -1.7620    4.6690 C.ar  190  PHE190     -0.0000
     69  N         26.8180   10.3640    8.1980 N.3   197  ASN197     -0.1240
     70  CA        25.7850    9.6720    8.9610 C.3   197  ASN197      0.1653
     71  C         25.0190   10.5850    9.9090 C.2   197  ASN197      0.2266
     72  O         23.7960   10.5100    9.9820 O.2   197  ASN197     -0.2867
     73  CB        26.3690    8.4640    9.7040 C.3   197  ASN197      0.1155
     74  CG        26.6380    7.2900    8.7790 C.2   197  ASN197      0.2627
     75  OD1       25.7850    6.9030    7.9810 O.2   197  ASN197     -0.2716
     76  ND2       27.8280    6.7160    8.8860 N.am  197  ASN197     -0.0877
     77  N         25.7450    0.0600   14.6090 N.3   221  LYS221     -0.1231
     78  CA        26.6650    0.3890   13.5150 C.3   221  LYS221      0.1693
     79  C         27.8750    1.2100   13.9710 C.2   221  LYS221      0.2593
     80  O         27.9130    1.6990   15.1070 O.2   221  LYS221     -0.2718
     81  CB        25.9230    1.0650   12.3490 C.3   221  LYS221      0.0285
     82  CG        25.0170    0.0950   11.5790 C.3   221  LYS221      0.0035
     83  CD        24.3880    0.7320   10.3560 C.3   221  LYS221      0.0206
     84  CE        23.5620   -0.3050    9.5880 C.3   221  LYS221      0.1093
     85  NZ        22.7700    0.3340    8.5100 N.3   221  LYS221     -0.1314
     86  N         28.8570    1.3490   13.0790 N.am  222  SER222     -0.1938
     87  CA        30.0870    2.0730   13.3780 C.3   222  SER222      0.2055
     88  C         29.8440    3.5600   13.6680 C.2   222  SER222      0.2642
     89  O         30.5980    4.1670   14.4280 O.2   222  SER222     -0.2714
     90  CB        31.1210    1.8820   12.2570 C.3   222  SER222      0.2130
     91  OG        30.6240    2.3780   11.0300 O.3   222  SER222     -0.2179
     92  N         28.7900    4.1450   13.0970 N.am  223  MET223     -0.1976
     93  CA        28.4000    5.5130   13.4860 C.3   223  MET223      0.1605
     94  C         28.1510    5.6500   15.0030 C.2   223  MET223      0.2287
     95  O         28.2810    6.7370   15.5680 O.2   223  MET223     -0.2864
     96  CB        27.2070    6.0370   12.6710 C.3   223  MET223      0.0413
     97  CG        25.8740    5.3490   12.9410 C.3   223  MET223      0.0598
     98  SD        24.4960    6.0830   12.0280 S.3   223  MET223     -0.1393
     99  CE        24.0990    7.5130   13.0420 C.3   223  MET223      0.0692
@<TRIPOS>BOND
     1    37    38    1
     2    38    41    1
     3    38    39    1
     4    41    42    1
     5    40    39    2
     6    39    45   am
     7    42    43    1
     8    45    46    1
     9    18    16    1
    10    61    60    2
    11    43    44    1
    12    47    46    1
    13    47    48    2
    14    60    59    1
    15    46    49    1
    16    16    13    1
    17    16    17    1
    18    62    59    1
    19    62    63    1
    20    64    63   ar
    21    64    66   ar
    22    59    58    1
    23    63    65   ar
    24    13    14    1
    25    13    12    1
    26    66    68   ar
    27    15    14    2
    28    49    50    1
    29    52    51    2
    30    22    21    2
    31    14    19   am
    32    32    31    1
    33    32    33    2
    34    65    67   ar
    35    31    30    1
    36    31    34    1
    37    68    67   ar
    38    50    51    1
    39    58    56   am
    40    51    53   am
    41    21    30   am
    42    21    20    1
    43    19    20    1
    44    30    36    1
    45    34    35    1
    46    57    56    2
    47    56    55    1
    48    20    23    1
    49    35    36    1
    50    28    27    1
    51    29    27    1
    52    24    23    1
    53    24    25    1
    54    27    26    2
    55    55    54    1
    56    26    25    1
    57    75    74    2
    58    69    70    1
    59    85    84    1
    60    74    76   am
    61    74    73    1
    62    70    73    1
    63    70    71    1
    64    84    83    1
    65    71    72    2
    66    83    82    1
    67     1     2    1
    68    91    90    1
    69     5     2    1
    70     5     6    1
    71     8     6   ar
    72     8    10   ar
    73    82    81    1
    74     2     3    1
    75     6     7   ar
    76    98    97    1
    77    98    99    1
    78    10    11   ar
    79    90    87    1
    80    81    78    1
    81    96    97    1
    82    96    93    1
    83     7     9   ar
    84    86    87    1
    85    86    79   am
    86    92    93    1
    87    92    88   am
    88    11     9   ar
    89     3     4    2
    90    87    88    1
    91    93    94    1
    92    78    79    1
    93    78    77    1
    94    88    89    2
    95    79    80    2
    96    94    95    2
