@<TRIPOS>MOLECULE
tmp/3tz2A00.pdb
 116 106 0 0 0
SMALL
GASTEIGER

@<TRIPOS>ATOM
      1  N         -9.3340  -25.4410   23.2530 N.3    30  LEU30      -0.1245
      2  CA        -9.7700  -26.2320   22.0960 C.3    30  LEU30       0.1561
      3  C        -11.0360  -25.7390   21.3960 C.2    30  LEU30       0.2260
      4  O        -11.0420  -25.5920   20.1710 O.2    30  LEU30      -0.2867
      5  CB        -9.8930  -27.7260   22.4370 C.3    30  LEU30       0.0270
      6  CG        -8.5100  -28.3820   22.5710 C.3    30  LEU30       0.0019
      7  CD1       -8.5850  -29.8950   22.4860 C.3    30  LEU30       0.0001
      8  CD2       -7.5550  -27.8220   21.5080 C.3    30  LEU30       0.0001
      9  N        -11.1390  -24.4100   17.5120 N.3    34  ILE34      -0.1245
     10  CA       -12.0110  -25.0410   16.5310 C.3    34  ILE34       0.1561
     11  C        -12.9960  -24.0230   15.9380 C.2    34  ILE34       0.2260
     12  O        -13.2110  -23.9810   14.7230 O.2    34  ILE34      -0.2867
     13  CB       -12.7700  -26.2500   17.1150 C.3    34  ILE34       0.0252
     14  CG1      -11.7900  -27.3510   17.5140 C.3    34  ILE34       0.0019
     15  CG2      -13.7290  -26.8350   16.0760 C.3    34  ILE34       0.0019
     16  CD1      -11.2830  -28.1670   16.3340 C.3    34  ILE34       0.0001
     17  N        -15.5110  -30.5200   11.6180 N.3    61  TYR61      -0.1241
     18  CA       -15.2200  -29.4850   12.5920 C.3    61  TYR61       0.1605
     19  C        -16.4120  -29.1090   13.4530 C.2    61  TYR61       0.2264
     20  O        -16.2660  -28.9180   14.6600 O.2    61  TYR61      -0.2867
     21  CB       -14.6380  -28.2650   11.9120 C.3    61  TYR61       0.0534
     22  CG       -13.1780  -28.4510   11.6570 C.ar   61  TYR61      -0.0201
     23  CD1      -12.7350  -29.2940   10.6450 C.ar   61  TYR61      -0.0009
     24  CD2      -12.2370  -27.8170   12.4500 C.ar   61  TYR61      -0.0009
     25  CE1      -11.3900  -29.4800   10.4140 C.ar   61  TYR61       0.0417
     26  CE2      -10.8900  -27.9940   12.2380 C.ar   61  TYR61       0.0417
     27  CZ       -10.4610  -28.8240   11.2150 C.ar   61  TYR61       0.1957
     28  OH        -9.1030  -28.9880   10.9990 O.3    61  TYR61      -0.2866
     29  N        -16.7250  -31.8040   15.8260 N.3    64  ALA64      -0.1245
     30  CA       -15.7090  -31.7690   16.8730 C.3    64  ALA64       0.1562
     31  C        -16.0690  -30.7230   17.9220 C.2    64  ALA64       0.2260
     32  O        -15.9540  -30.9620   19.1320 O.2    64  ALA64      -0.2867
     33  CB       -14.3470  -31.4970   16.2890 C.3    64  ALA64       0.0290
     34  N        -16.8150  -31.1720   21.9720 N.3    68  LEU68      -0.1245
     35  CA       -15.9370  -30.5240   22.9530 C.3    68  LEU68       0.1561
     36  C        -16.6930  -29.6740   23.9550 C.2    68  LEU68       0.2260
     37  O        -16.3620  -29.6390   25.1500 O.2    68  LEU68      -0.2867
     38  CB       -14.8930  -29.6470   22.2620 C.3    68  LEU68       0.0270
     39  CG       -13.7870  -30.3350   21.4730 C.3    68  LEU68       0.0019
     40  CD1      -12.9430  -29.3070   20.7370 C.3    68  LEU68       0.0001
     41  CD2      -12.9390  -31.1540   22.4190 C.3    68  LEU68       0.0001
     42  N        -10.4090  -36.5920   23.0080 N.3    87  VAL87      -0.1245
     43  CA        -9.2300  -36.1310   22.2950 C.3    87  VAL87       0.1561
     44  C         -8.5770  -37.2190   21.4390 C.2    87  VAL87       0.2260
     45  O         -8.1340  -36.9500   20.3280 O.2    87  VAL87      -0.2867
     46  CB        -8.2000  -35.5820   23.2690 C.3    87  VAL87       0.0252
     47  CG1       -6.9710  -35.1290   22.5160 C.3    87  VAL87       0.0019
     48  CG2       -8.7920  -34.4210   24.0610 C.3    87  VAL87       0.0019
     49  N        -10.9980  -37.7480   18.5460 N.3    90  LEU90      -0.1231
     50  CA       -10.9050  -36.5950   17.6700 C.3    90  LEU90       0.1693
     51  C         -9.6540  -36.6460   16.8060 C.2    90  LEU90       0.2591
     52  O         -9.7390  -36.5140   15.5860 O.2    90  LEU90      -0.2718
     53  CB       -10.9900  -35.2950   18.4720 C.3    90  LEU90       0.0284
     54  CG       -12.4010  -34.9050   18.9210 C.3    90  LEU90       0.0019
     55  CD1      -12.4440  -33.4800   19.4770 C.3    90  LEU90       0.0001
     56  CD2      -13.3500  -35.0570   17.7590 C.3    90  LEU90       0.0001
     57  N         -8.5010  -36.8590   17.4360 N.am   91  LEU91      -0.1980
     58  CA        -7.2310  -36.9770   16.7040 C.3    91  LEU91       0.1596
     59  C         -7.2810  -38.0410   15.6000 C.2    91  LEU91       0.2287
     60  O         -6.7980  -37.8150   14.4840 O.2    91  LEU91      -0.2864
     61  CB        -6.0470  -37.1970   17.6560 C.3    91  LEU91       0.0297
     62  CG        -5.5570  -35.9630   18.4390 C.3    91  LEU91       0.0022
     63  CD1       -4.6170  -36.3460   19.5810 C.3    91  LEU91       0.0001
     64  CD2       -4.9130  -34.8790   17.5540 C.3    91  LEU91       0.0001
     65  N         -9.7790  -36.8140   12.6570 N.3    94  HIS94      -0.1241
     66  CA        -9.3000  -35.7280   11.8360 C.3    94  HIS94       0.1621
     67  C         -7.9430  -36.0040   11.1820 C.2    94  HIS94       0.2264
     68  O         -7.3350  -35.1010   10.5970 O.2    94  HIS94      -0.2867
     69  CB        -9.2520  -34.4660   12.6820 C.3    94  HIS94       0.0745
     70  CG       -10.6060  -33.9570   13.0630 C.ar   94  HIS94       0.0817
     71  ND1      -11.0380  -32.6880   12.7500 N.ar   94  HIS94      -0.2268
     72  CD2      -11.6310  -34.5550   13.7140 C.ar   94  HIS94       0.1154
     73  CE1      -12.2650  -32.5220   13.2050 C.ar   94  HIS94       0.1986
     74  NE2      -12.6510  -33.6420   13.7900 N.ar   94  HIS94      -0.2212
     75  N         -7.5250  -35.3360    7.4160 N.3    97  VAL97      -0.1245
     76  CA        -8.0860  -34.0510    6.9820 C.3    97  VAL97       0.1561
     77  C         -7.2970  -33.3350    5.8790 C.2    97  VAL97       0.2260
     78  O         -7.8750  -32.8990    4.8830 O.2    97  VAL97      -0.2867
     79  CB        -8.3100  -33.0800    8.1660 C.3    97  VAL97       0.0252
     80  CG1       -8.2120  -31.6180    7.7070 C.3    97  VAL97       0.0019
     81  CG2       -9.6530  -33.3380    8.7970 C.3    97  VAL97       0.0019
     82  N         -4.4960  -26.1090   12.6090 N.3   129  ARG129     -0.1245
     83  CA        -4.7110  -27.5290   12.8780 C.3   129  ARG129      0.1563
     84  C         -3.5520  -28.1470   13.6260 C.2   129  ARG129      0.2260
     85  O         -3.7530  -28.9380   14.5510 O.2   129  ARG129     -0.2867
     86  CB        -4.9010  -28.2980   11.5780 C.3   129  ARG129      0.0307
     87  CG        -5.0310  -29.8050   11.7520 C.3   129  ARG129      0.0489
     88  CD        -5.4460  -30.4710   10.4340 C.3   129  ARG129      0.2205
     89  NE        -5.5630  -31.9230   10.5300 N.pl3 129  ARG129     -0.0865
     90  CZ        -4.5310  -32.7590   10.5120 C.cat 129  ARG129      0.5346
     91  NH1       -3.3000  -32.2930   10.4090 N.pl3 129  ARG129      0.1354
     92  NH2       -4.7250  -34.0610   10.6020 N.pl3 129  ARG129      0.1354
     93  N         -3.4620  -27.1540   17.2990 N.3   132  ILE132     -0.1231
     94  CA        -4.4620  -27.9550   17.9890 C.3   132  ILE132      0.1692
     95  C         -3.9100  -29.3650   18.2810 C.2   132  ILE132      0.2591
     96  O         -3.9530  -29.8260   19.4230 O.2   132  ILE132     -0.2718
     97  CB        -5.8090  -28.0360   17.1950 C.3   132  ILE132      0.0266
     98  CG1       -6.6640  -26.7950   17.4350 C.3   132  ILE132      0.0019
     99  CG2       -6.6340  -29.2680   17.6010 C.3   132  ILE132      0.0020
    100  CD1       -7.4040  -26.3110   16.1880 C.3   132  ILE132      0.0001
    101  N         -3.3870  -30.0520   17.2670 N.am  133  ARG133     -0.1980
    102  CA        -3.0260  -31.4420   17.4870 C.3   133  ARG133      0.1597
    103  C         -1.7860  -31.5250   18.3540 C.2   133  ARG133      0.2287
    104  O         -1.5200  -32.5560   18.9790 O.2   133  ARG133     -0.2864
    105  CB        -2.8190  -32.1930   16.1810 C.3   133  ARG133      0.0334
    106  CG        -3.9100  -32.0000   15.1880 C.3   133  ARG133      0.0492
    107  CD        -3.6150  -32.8170   13.9640 C.3   133  ARG133      0.2205
    108  NE        -3.4840  -34.2410   14.2810 N.pl3 133  ARG133     -0.0865
    109  CZ        -4.4730  -35.1260   14.1890 C.cat 133  ARG133      0.5346
    110  NH1       -5.6870  -34.7530   13.7950 N.pl3 133  ARG133      0.1354
    111  NH2       -4.2500  -36.3900   14.4950 N.pl3 133  ARG133      0.1354
    112  N         -3.1430  -30.9520   21.9860 N.3   136  ALA136     -0.1245
    113  CA        -3.8080  -32.1870   22.3570 C.3   136  ALA136      0.1562
    114  C         -2.8240  -33.3020   22.6660 C.2   136  ALA136      0.2260
    115  O         -2.9190  -33.9270   23.7270 O.2   136  ALA136     -0.2867
    116  CB        -4.7530  -32.6320   21.2510 C.3   136  ALA136      0.0290
@<TRIPOS>BOND
     1    78    77    2
     2    77    76    1
     3    76    75    1
     4    76    79    1
     5    80    79    1
     6    79    81    1
     7    91    90    1
     8    25    23   ar
     9    25    27   ar
    10    88    89    1
    11    88    87    1
    12    90    89    2
    13    90    92    1
    14    68    67    2
    15    23    22   ar
    16    28    27    1
    17    67    66    1
    18    27    26   ar
    19    86    87    1
    20    86    83    1
    21    17    18    1
    22    22    21    1
    23    22    24   ar
    24    66    65    1
    25    66    69    1
    26    21    18    1
    27    26    24   ar
    28    18    19    1
    29    82    83    1
    30    69    70    1
    31    71    70   ar
    32    71    73   ar
    33    83    84    1
    34    70    72   ar
    35    73    74   ar
    36    19    20    2
    37    84    85    2
    38    72    74   ar
    39   110   109    1
    40   107   108    1
    41   107   106    1
    42   109   108    2
    43   109   111    1
    44    60    59    2
    45    12    11    2
    46   106   105    1
    47    52    51    2
    48    59    58    1
    49    29    30    1
    50    11    10    1
    51    15    13    1
    52   105   102    1
    53   100    98    1
    54    33    30    1
    55    16    14    1
    56    10    13    1
    57    10     9    1
    58    58    57    1
    59    58    61    1
    60    51    57   am
    61    51    50    1
    62    30    31    1
    63    13    14    1
    64    97    98    1
    65    97    99    1
    66    97    94    1
    67   101   102    1
    68   101    95   am
    69    93    94    1
    70   102   103    1
    71    64    62    1
    72    61    62    1
    73    50    53    1
    74    50    49    1
    75    56    54    1
    76    31    32    2
    77    94    95    1
    78    95    96    2
    79   103   104    2
    80    62    63    1
    81    53    54    1
    82    54    55    1
    83     4     3    2
    84    45    44    2
    85    40    39    1
    86   116   113    1
    87     3     2    1
    88    44    43    1
    89    39    38    1
    90    39    41    1
    91     8     6    1
    92    34    35    1
    93   112   113    1
    94     2     5    1
    95     2     1    1
    96    38    35    1
    97    43    42    1
    98    43    46    1
    99   113   114    1
   100     5     6    1
   101     7     6    1
   102    47    46    1
   103   114   115    2
   104    35    36    1
   105    46    48    1
   106    36    37    2
