@<TRIPOS>MOLECULE
tmp/3tz3B00.pdb
 136 129 0 0 0
SMALL
GASTEIGER

@<TRIPOS>ATOM
      1  N        -30.8760  -17.3500  -53.3810 N.3   441  ALA441     -0.1245
      2  CA       -30.6620  -16.5090  -54.5580 C.3   441  ALA441      0.1562
      3  C        -31.3590  -15.1690  -54.3780 C.2   441  ALA441      0.2260
      4  O        -32.4060  -15.0940  -53.7250 O.2   441  ALA441     -0.2867
      5  CB       -31.2030  -17.2100  -55.8000 C.3   441  ALA441      0.0290
      6  N        -35.4230  -13.6290  -55.7160 N.3   444  VAL444     -0.1245
      7  CA       -36.2890  -14.8220  -55.6900 C.3   444  VAL444      0.1561
      8  C        -37.0180  -14.8910  -54.3320 C.2   444  VAL444      0.2260
      9  O        -36.3530  -14.8490  -53.3010 O.2   444  VAL444     -0.2867
     10  CB       -35.5530  -16.1510  -55.9910 C.3   444  VAL444      0.0252
     11  CG1      -36.4950  -17.3390  -55.8200 C.3   444  VAL444      0.0019
     12  CG2      -34.9430  -16.1540  -57.3870 C.3   444  VAL444      0.0019
     13  N        -38.7620  -16.6330  -51.3000 N.3   446  PHE446     -0.1241
     14  CA       -38.6730  -17.9000  -50.5840 C.3   446  PHE446      0.1605
     15  C        -39.7590  -17.8640  -49.4880 C.2   446  PHE446      0.2264
     16  O        -40.3270  -16.7920  -49.2340 O.2   446  PHE446     -0.2867
     17  CB       -37.2660  -18.0850  -49.9940 C.3   446  PHE446      0.0534
     18  CG       -36.2250  -18.4210  -51.0270 C.ar  446  PHE446     -0.0203
     19  CD1      -35.5290  -17.4180  -51.6910 C.ar  446  PHE446     -0.0042
     20  CD2      -35.9370  -19.7390  -51.3420 C.ar  446  PHE446     -0.0042
     21  CE1      -34.5890  -17.7320  -52.6910 C.ar  446  PHE446     -0.0003
     22  CE2      -34.9880  -20.0510  -52.3300 C.ar  446  PHE446     -0.0003
     23  CZ       -34.3230  -19.0460  -52.9940 C.ar  446  PHE446     -0.0000
     24  N        -37.7490  -12.1980  -59.6370 N.3   475  ARG475     -0.1231
     25  CA       -37.7620  -13.1040  -60.7890 C.3   475  ARG475      0.1694
     26  C        -38.9300  -14.0830  -60.6670 C.2   475  ARG475      0.2593
     27  O        -39.4320  -14.5700  -61.6750 O.2   475  ARG475     -0.2718
     28  CB       -36.4500  -13.8980  -60.8760 C.3   475  ARG475      0.0321
     29  CG       -35.1960  -13.0340  -60.9870 C.3   475  ARG475      0.0489
     30  CD       -33.9440  -13.8820  -60.9820 C.3   475  ARG475      0.2205
     31  NE       -33.8570  -14.6870  -62.1990 N.pl3 475  ARG475     -0.0865
     32  CZ       -33.1240  -15.7880  -62.3270 C.cat 475  ARG475      0.5346
     33  NH1      -32.4050  -16.2390  -61.3060 N.pl3 475  ARG475      0.1354
     34  NH2      -33.1220  -16.4620  -63.4720 N.pl3 475  ARG475      0.1354
     35  N        -39.3270  -14.3800  -59.4280 N.am  476  GLY476     -0.1942
     36  CA       -40.4280  -15.2820  -59.1080 C.3   476  GLY476      0.2014
     37  C        -40.3160  -15.8680  -57.7240 C.2   476  GLY476      0.2639
     38  O        -39.5710  -15.3590  -56.8860 O.2   476  GLY476     -0.2714
     39  N        -41.0640  -16.9400  -57.4750 N.am  477  PHE477     -0.1959
     40  CA       -41.0190  -17.6810  -56.2200 C.3   477  PHE477      0.1771
     41  C        -40.1200  -18.8640  -56.4610 C.2   477  PHE477      0.2620
     42  O        -40.0370  -19.3350  -57.5920 O.2   477  PHE477     -0.2715
     43  CB       -42.4340  -18.1780  -55.8210 C.3   477  PHE477      0.0574
     44  CG       -43.3330  -17.0820  -55.3000 C.ar  477  PHE477     -0.0200
     45  CD1      -44.1070  -16.3180  -56.1690 C.ar  477  PHE477     -0.0042
     46  CD2      -43.3700  -16.7750  -53.9480 C.ar  477  PHE477     -0.0042
     47  CE1      -44.9140  -15.2830  -55.6840 C.ar  477  PHE477     -0.0003
     48  CE2      -44.1610  -15.7210  -53.4720 C.ar  477  PHE477     -0.0003
     49  CZ       -44.9460  -15.0030  -54.3380 C.ar  477  PHE477     -0.0000
     50  N        -39.4870  -19.3800  -55.4080 N.am  478  SER478     -0.1936
     51  CA       -38.6880  -20.6030  -55.4790 C.3   478  SER478      0.2055
     52  C        -39.6510  -21.7950  -55.6050 C.2   478  SER478      0.2644
     53  O        -40.4080  -22.0770  -54.6760 O.2   478  SER478     -0.2714
     54  CB       -37.8330  -20.7540  -54.2310 C.3   478  SER478      0.2130
     55  OG       -37.0650  -21.9400  -54.3290 O.3   478  SER478     -0.2179
     56  N        -39.6680  -22.4130  -56.7750 N.am  479  GLY479     -0.1939
     57  CA       -40.5360  -23.5430  -57.0700 C.3   479  GLY479      0.2014
     58  C        -39.8930  -24.8990  -56.8530 C.2   479  GLY479      0.2639
     59  O        -40.4600  -25.9160  -57.2500 O.2   479  GLY479     -0.2714
     60  N        -38.7130  -24.9110  -56.2350 N.am  480  GLY480     -0.1954
     61  CA       -37.9940  -26.1380  -55.9430 C.3   480  GLY480      0.1869
     62  C        -38.6980  -27.0240  -54.9330 C.2   480  GLY480      0.2309
     63  O        -39.6390  -26.5840  -54.2590 O.2   480  GLY480     -0.2863
     64  N        -38.4630  -25.7400  -51.0190 N.3   483  ASP483     -0.1239
     65  CA       -39.2950  -24.5410  -50.8470 C.3   483  ASP483      0.1674
     66  C        -40.7850  -24.7600  -51.0490 C.2   483  ASP483      0.2266
     67  O        -41.5890  -24.0970  -50.3890 O.2   483  ASP483     -0.2867
     68  CB       -38.7420  -23.3530  -51.6470 C.3   483  ASP483      0.1410
     69  CG       -37.3400  -22.9770  -51.1940 C.2   483  ASP483      0.3668
     70  OD1      -37.1840  -22.5680  -50.0180 O.co2 483  ASP483     -0.2456
     71  OD2      -36.3900  -23.1530  -51.9930 O.co2 483  ASP483     -0.2456
     72  N        -41.4560  -11.0440  -62.9220 N.3   517  ARG517     -0.1245
     73  CA       -41.8820  -12.1550  -63.7760 C.3   517  ARG517      0.1563
     74  C        -42.8910  -13.0480  -63.0920 C.2   517  ARG517      0.2260
     75  O        -42.9580  -13.0520  -61.8590 O.2   517  ARG517     -0.2867
     76  CB       -40.6690  -13.0360  -64.1970 C.3   517  ARG517      0.0307
     77  CG       -39.3750  -12.3260  -64.5400 C.3   517  ARG517      0.0489
     78  CD       -39.5400  -11.5960  -65.8390 C.3   517  ARG517      0.2205
     79  NE       -38.2900  -11.0120  -66.3040 N.pl3 517  ARG517     -0.0865
     80  CZ       -38.0990  -10.5950  -67.5400 C.cat 517  ARG517      0.5346
     81  NH1      -39.0610  -10.7100  -68.4390 N.pl3 517  ARG517      0.1354
     82  NH2      -36.9390  -10.0700  -67.8940 N.pl3 517  ARG517      0.1354
     83  N        -44.1120  -13.0140  -68.5380 N.3   545  VAL545     -0.1231
     84  CA       -44.4700  -14.2770  -67.8470 C.3   545  VAL545      0.1692
     85  C        -43.1660  -15.0170  -67.4640 C.2   545  VAL545      0.2592
     86  O        -42.9480  -15.3370  -66.2980 O.2   545  VAL545     -0.2718
     87  CB       -45.4710  -15.1650  -68.6470 C.3   545  VAL545      0.0266
     88  CG1      -45.8830  -16.3920  -67.8390 C.3   545  VAL545      0.0020
     89  CG2      -46.7090  -14.3650  -69.0580 C.3   545  VAL545      0.0020
     90  N        -42.2700  -15.1780  -68.4540 N.am  546  LEU546     -0.1966
     91  CA       -40.9490  -15.7860  -68.3360 C.3   546  LEU546      0.1728
     92  C        -39.8850  -14.7320  -68.6310 C.2   546  LEU546      0.2616
     93  O        -40.2100  -13.6020  -68.9760 O.2   546  LEU546     -0.2715
     94  CB       -40.8080  -16.9340  -69.3550 C.3   546  LEU546      0.0311
     95  CG       -41.8290  -18.0640  -69.3280 C.3   546  LEU546      0.0022
     96  CD1      -41.5310  -19.0450  -70.4010 C.3   546  LEU546      0.0001
     97  CD2      -41.8180  -18.7920  -68.0310 C.3   546  LEU546      0.0001
     98  N        -38.6180  -15.1070  -68.4960 N.am  547  GLU547     -0.1977
     99  CA       -37.4660  -14.2660  -68.8250 C.3   547  GLU547      0.1602
    100  C        -37.1070  -14.5980  -70.2830 C.2   547  GLU547      0.2287
    101  O        -37.5340  -15.6630  -70.7600 O.2   547  GLU547     -0.2864
    102  CB       -36.2740  -14.5740  -67.8960 C.3   547  GLU547      0.0415
    103  CG       -36.4370  -14.0320  -66.4850 C.3   547  GLU547      0.1163
    104  CD       -35.3520  -14.4180  -65.5000 C.2   547  GLU547      0.3649
    105  OE1      -35.1280  -13.6460  -64.5400 O.co2 547  GLU547     -0.2457
    106  OE2      -34.7340  -15.4940  -65.6740 O.co2 547  GLU547     -0.2457
    107  N        -34.7970  -16.1400  -71.7350 N.3   549  GLU549     -0.1231
    108  CA       -34.3400  -17.5260  -71.8800 C.3   549  GLU549      0.1699
    109  C        -35.4820  -18.5550  -71.9430 C.2   549  GLU549      0.2592
    110  O        -35.4330  -19.4980  -72.7390 O.2   549  GLU549     -0.2718
    111  CB       -33.2720  -17.8990  -70.8390 C.3   549  GLU549      0.0402
    112  CG       -32.4090  -19.1130  -71.2100 C.3   549  GLU549      0.1161
    113  CD       -32.1540  -19.4470  -72.6750 C.2   549  GLU549      0.3649
    114  OE1      -31.4010  -18.6930  -73.3330 O.co2 549  GLU549     -0.2457
    115  OE2      -32.6780  -20.4830  -73.1510 O.co2 549  GLU549     -0.2457
    116  N        -36.5130  -18.3230  -71.1470 N.am  550  GLY550     -0.1957
    117  CA       -37.7140  -19.1520  -71.1150 C.3   550  GLY550      0.1869
    118  C        -38.6320  -18.9280  -72.2980 C.2   550  GLY550      0.2309
    119  O        -39.1380  -19.9010  -72.8680 O.2   550  GLY550     -0.2863
    120  N        -37.0800  -20.6780  -75.1760 N.3   553  GLU553     -0.1231
    121  CA       -37.2340  -22.1170  -74.9550 C.3   553  GLU553      0.1699
    122  C        -38.6340  -22.6190  -75.3480 C.2   553  GLU553      0.2592
    123  O        -38.7460  -23.6700  -75.9800 O.2   553  GLU553     -0.2718
    124  CB       -36.9090  -22.4680  -73.4860 C.3   553  GLU553      0.0402
    125  CG       -36.7630  -23.9530  -73.1860 C.3   553  GLU553      0.1161
    126  CD       -35.4760  -24.5740  -73.6770 C.2   553  GLU553      0.3649
    127  OE1      -34.3940  -24.0110  -73.3890 O.co2 553  GLU553     -0.2457
    128  OE2      -35.5500  -25.6340  -74.3400 O.co2 553  GLU553     -0.2457
    129  N        -39.6770  -21.8440  -75.0270 N.am  554  ILE554     -0.1980
    130  CA       -41.0610  -22.2040  -75.3040 C.3   554  ILE554      0.1595
    131  C        -41.5740  -21.7610  -76.6640 C.2   554  ILE554      0.2287
    132  O        -42.1970  -22.5700  -77.3450 O.2   554  ILE554     -0.2864
    133  CB       -41.9960  -21.8110  -74.1000 C.3   554  ILE554      0.0276
    134  CG1      -41.9310  -22.8720  -72.9760 C.3   554  ILE554      0.0022
    135  CG2      -43.4670  -21.5990  -74.5210 C.3   554  ILE554      0.0022
    136  CD1      -40.7390  -22.8550  -72.0990 C.3   554  ILE554      0.0001
@<TRIPOS>BOND
     1   132   131    2
     2   131   130    1
     3   123   122    2
     4   122   129   am
     5   122   121    1
     6   130   129    1
     7   130   133    1
     8   120   121    1
     9   121   124    1
    10   135   133    1
    11   128   126   ar
    12   133   134    1
    13   126   127   ar
    14   126   125    1
    15   124   125    1
    16   114   113   ar
    17   115   113   ar
    18   134   136    1
    19   119   118    2
    20   110   109    2
    21   113   112    1
    22   118   117    1
    23   109   108    1
    24   109   116   am
    25   108   107    1
    26   108   111    1
    27   112   111    1
    28   116   117    1
    29   101   100    2
    30    96    95    1
    31   100    99    1
    32    94    95    1
    33    94    91    1
    34    95    97    1
    35    89    87    1
    36    93    92    2
    37    99    98    1
    38    99   102    1
    39    87    84    1
    40    87    88    1
    41    92    98   am
    42    92    91    1
    43    83    84    1
    44    90    91    1
    45    90    85   am
    46    81    80    1
    47   102   103    1
    48    82    80    1
    49    84    85    1
    50    80    79    2
    51    85    86    2
    52   103   104    1
    53    79    78    1
    54    78    77    1
    55   106   104   ar
    56   104   105   ar
    57    77    76    1
    58    76    73    1
    59    73    74    1
    60    73    72    1
    61    34    32    1
    62    74    75    2
    63    32    31    2
    64    32    33    1
    65    31    30    1
    66    27    26    2
    67    29    30    1
    68    29    28    1
    69    28    25    1
    70    25    26    1
    71    25    24    1
    72    26    35   am
    73    35    36    1
    74    36    37    1
    75    37    39   am
    76    37    38    2
    77    42    41    2
    78    39    40    1
    79    12    10    1
    80    59    58    2
    81    57    58    1
    82    57    56    1
    83    58    60   am
    84    56    52   am
    85    41    40    1
    86    41    50   am
    87    60    61    1
    88    40    43    1
    89    45    47   ar
    90    45    44   ar
    91    10    11    1
    92    10     7    1
    93    61    62    1
    94    43    44    1
    95     5     2    1
    96     6     7    1
    97     7     8    1
    98    47    49   ar
    99    52    51    1
   100    52    53    2
   101    51    50    1
   102    51    54    1
   103    44    46   ar
   104    62    63    2
   105     2     3    1
   106     2     1    1
   107     3     4    2
   108    49    48   ar
   109     8     9    2
   110    55    54    1
   111    46    48   ar
   112    23    21   ar
   113    23    22   ar
   114    21    19   ar
   115    22    20   ar
   116    71    69   ar
   117    19    18   ar
   118    68    69    1
   119    68    65    1
   120    20    18   ar
   121    13    14    1
   122    69    70   ar
   123    66    65    1
   124    66    67    2
   125    18    17    1
   126    64    65    1
   127    14    17    1
   128    14    15    1
   129    15    16    2
