@<TRIPOS>MOLECULE
tmp/3tz6A00.pdb
 93 85 0 0 0
SMALL
GASTEIGER

@<TRIPOS>ATOM
      1  N        242.8660   48.7160   73.6380 N.3   128  ASN128     -0.1225
      2  CA       242.0760   49.9520   73.6240 C.3   128  ASN128      0.1785
      3  C        241.5470   50.2340   72.2040 C.2   128  ASN128      0.2597
      4  O        242.2880   50.1160   71.2320 O.2   128  ASN128     -0.2718
      5  CB       243.0140   51.0800   74.1170 C.3   128  ASN128      0.1169
      6  CG       242.4810   52.4780   73.8800 C.2   128  ASN128      0.2627
      7  OD1      243.1260   53.2890   73.1960 O.2   128  ASN128     -0.2716
      8  ND2      241.3310   52.7920   74.4860 N.am  128  ASN128     -0.0877
      9  N        240.2650   50.5830   72.0800 N.am  129  CYS129     -0.1970
     10  CA       239.6760   50.7950   70.7560 C.3   129  CYS129      0.1712
     11  C        240.3590   51.9200   69.9640 C.2   129  CYS129      0.2296
     12  O        240.5980   51.7880   68.7620 O.2   129  CYS129     -0.2864
     13  CB       238.1580   51.0580   70.8710 C.3   129  CYS129      0.0983
     14  SG       237.8230   52.5780   71.7740 S.3   129  CYS129     -0.0798
     15  N        236.5550   61.0160   69.2590 N.3   156  GLN156     -0.1245
     16  CA       235.9970   59.7470   69.7420 C.3   156  GLN156      0.1566
     17  C        234.4670   59.7370   69.8780 C.2   156  GLN156      0.2260
     18  O        233.8840   60.6340   70.4990 O.2   156  GLN156     -0.2867
     19  CB       236.6560   59.3530   71.0650 C.3   156  GLN156      0.0367
     20  CG       238.0610   58.7990   70.8660 C.3   156  GLN156      0.0905
     21  CD       238.8140   58.6110   72.1760 C.2   156  GLN156      0.2608
     22  OE1      239.9330   59.1040   72.3170 O.2   156  GLN156     -0.2717
     23  NE2      238.2030   57.9090   73.1460 N.am  156  GLN156     -0.0878
     24  N        231.7780   54.5040   72.5770 N.3   160  GLY160     -0.1210
     25  CA       232.9610   54.1700   73.3630 C.3   160  GLY160      0.1956
     26  C        232.6550   54.0880   74.8470 C.2   160  GLY160      0.2612
     27  O        233.3100   53.3440   75.5700 O.2   160  GLY160     -0.2717
     28  N        231.6510   54.8420   75.2960 N.am  161  SER161     -0.1952
     29  CA       231.2310   54.8340   76.7010 C.3   161  SER161      0.1924
     30  C        230.0460   53.9010   76.9680 C.2   161  SER161      0.2314
     31  O        229.3720   54.0340   77.9950 O.2   161  SER161     -0.2863
     32  CB       230.8420   56.2420   77.1370 C.3   161  SER161      0.2116
     33  OG       231.8080   57.1900   76.7400 O.3   161  SER161     -0.2180
     34  N        243.0800   57.3550   79.2910 N.3   223  GLU223     -0.1245
     35  CA       242.8840   57.1510   77.8540 C.3   223  GLU223      0.1567
     36  C        244.0090   57.7970   77.0460 C.2   223  GLU223      0.2260
     37  O        244.4960   57.1910   76.0870 O.2   223  GLU223     -0.2867
     38  CB       241.5040   57.6240   77.3750 C.3   223  GLU223      0.0388
     39  CG       240.3360   56.9070   78.0440 C.3   223  GLU223      0.1160
     40  CD       240.3530   55.4100   77.8110 C.2   223  GLU223      0.3649
     41  OE1      240.3050   54.9730   76.6360 O.co2 223  GLU223     -0.2457
     42  OE2      240.3950   54.6600   78.8070 O.co2 223  GLU223     -0.2457
     43  N        246.9350   55.3840   77.2900 N.3   226  LYS226     -0.1245
     44  CA       246.7810   54.1190   76.5590 C.3   226  LYS226      0.1561
     45  C        247.4340   54.1830   75.1770 C.2   226  LYS226      0.2260
     46  O        248.0280   53.2070   74.7230 O.2   226  LYS226     -0.2867
     47  CB       245.2970   53.7190   76.4270 C.3   226  LYS226      0.0271
     48  CG       244.7050   53.1680   77.7150 C.3   226  LYS226      0.0035
     49  CD       243.2230   52.8880   77.5710 C.3   226  LYS226      0.0206
     50  CE       242.6970   52.3440   78.8890 C.3   226  LYS226      0.1093
     51  NZ       241.2160   52.2860   78.8160 N.3   226  LYS226     -0.1314
     52  N        236.2990   63.8030   72.9220 N.3   248  ARG248     -0.1245
     53  CA       234.9940   63.2060   72.6050 C.3   248  ARG248      0.1563
     54  C        234.2600   64.1210   71.6310 C.2   248  ARG248      0.2260
     55  O        234.3220   65.3460   71.7590 O.2   248  ARG248     -0.2867
     56  CB       234.1530   62.9660   73.8770 C.3   248  ARG248      0.0307
     57  CG       232.9170   62.0410   73.6720 C.3   248  ARG248      0.0489
     58  CD       233.2150   60.5380   73.5450 C.3   248  ARG248      0.2205
     59  NE       233.9920   60.0800   74.7080 N.pl3 248  ARG248     -0.0865
     60  CZ       234.5850   58.8930   74.8220 C.cat 248  ARG248      0.5346
     61  NH1      234.5000   57.9770   73.8470 N.pl3 248  ARG248      0.1354
     62  NH2      235.2590   58.6170   75.9280 N.pl3 248  ARG248      0.1354
     63  N        235.6120   55.9790   65.7620 N.3   255  HIS255     -0.1241
     64  CA       236.6730   56.8120   66.3200 C.3   255  HIS255      0.1621
     65  C        237.5590   57.2710   65.2060 C.2   255  HIS255      0.2264
     66  O        237.8310   56.5050   64.2830 O.2   255  HIS255     -0.2867
     67  CB       237.5170   56.0290   67.3340 C.3   255  HIS255      0.0745
     68  CG       236.8570   55.8270   68.6850 C.ar  255  HIS255      0.0817
     69  ND1      235.6550   56.3510   69.0100 N.ar  255  HIS255     -0.2268
     70  CD2      237.2980   55.1400   69.8080 C.ar  255  HIS255      0.1154
     71  CE1      235.3400   56.0090   70.2690 C.ar  255  HIS255      0.1986
     72  NE2      236.3440   55.2680   70.7620 N.ar  255  HIS255     -0.2212
     73  N        234.7020   51.6120   66.4210 N.3   324  ASN324     -0.1225
     74  CA       235.2180   51.2940   67.7420 C.3   324  ASN324      0.1785
     75  C        234.5730   50.0780   68.4080 C.2   324  ASN324      0.2597
     76  O        235.1370   49.5420   69.3740 O.2   324  ASN324     -0.2718
     77  CB       235.1100   52.5050   68.6730 C.3   324  ASN324      0.1169
     78  CG       233.6810   53.0020   68.8090 C.2   324  ASN324      0.2627
     79  OD1      233.1090   53.5480   67.8530 O.2   324  ASN324     -0.2716
     80  ND2      233.0940   52.8220   70.0000 N.am  324  ASN324     -0.0877
     81  N        233.4020   49.6550   67.9080 N.am  325  LEU325     -0.1980
     82  CA       232.7280   48.4620   68.4350 C.3   325  LEU325      0.1596
     83  C        233.1400   47.2100   67.6720 C.2   325  LEU325      0.2287
     84  O        233.1590   46.1060   68.2350 O.2   325  LEU325     -0.2864
     85  CB       231.1890   48.6250   68.4060 C.3   325  LEU325      0.0297
     86  CG       230.5790   49.7610   69.2280 C.3   325  LEU325      0.0022
     87  CD1      229.0550   49.7360   69.0580 C.3   325  LEU325      0.0001
     88  CD2      230.9530   49.6410   70.7050 C.3   325  LEU325      0.0001
     89  N        236.8560   46.5990   69.0840 N.3   329  ALA329     -0.1245
     90  CA       236.5370   45.7350   70.2150 C.3   329  ALA329      0.1562
     91  C        236.1840   44.3190   69.7710 C.2   329  ALA329      0.2260
     92  O        237.0570   43.4370   69.7650 O.2   329  ALA329     -0.2867
     93  CB       235.4240   46.3420   71.0730 C.3   329  ALA329      0.0290
@<TRIPOS>BOND
     1    66    65    2
     2    65    64    1
     3    63    64    1
     4    64    67    1
     5    73    74    1
     6    67    68    1
     7    83    84    2
     8    83    82    1
     9    74    75    1
    10    74    77    1
    11    79    78    2
    12    81    75   am
    13    81    82    1
    14    85    82    1
    15    85    86    1
    16    75    76    2
    17    77    78    1
    18    68    69   ar
    19    68    70   ar
    20    12    11    2
    21    78    80   am
    22    69    71   ar
    23    87    86    1
    24    89    90    1
    25    86    88    1
    26    15    16    1
    27    16    17    1
    28    16    19    1
    29    92    91    2
    30    91    90    1
    31    70    72   ar
    32    17    18    2
    33    11    10    1
    34    90    93    1
    35    71    72   ar
    36    10    13    1
    37    10     9    1
    38    20    19    1
    39    20    21    1
    40    13    14    1
    41     4     3    2
    42    54    55    2
    43    54    53    1
    44     9     3   am
    45    21    22    2
    46    21    23   am
    47     3     2    1
    48    24    25    1
    49    53    52    1
    50    53    56    1
    51     7     6    2
    52    25    26    1
    53    58    57    1
    54    58    59    1
    55     2     1    1
    56     2     5    1
    57    57    56    1
    58    61    60    1
    59     6     5    1
    60     6     8   am
    61    59    60    2
    62    46    45    2
    63    60    62    1
    64    26    28   am
    65    26    27    2
    66    45    44    1
    67    28    29    1
    68    37    36    2
    69    47    44    1
    70    47    48    1
    71    44    43    1
    72    41    40   ar
    73    29    30    1
    74    29    32    1
    75    33    32    1
    76    30    31    2
    77    36    35    1
    78    38    35    1
    79    38    39    1
    80    49    48    1
    81    49    50    1
    82    40    39    1
    83    40    42   ar
    84    35    34    1
    85    51    50    1
