@<TRIPOS>MOLECULE
tmp/3tz7B00.pdb
 211 199 0 0 0
SMALL
GASTEIGER

@<TRIPOS>ATOM
      1  N          2.3010   13.6900  -32.7590 N.3    17  LEU17      -0.1245
      2  CA         2.5430   13.1510  -31.4230 C.3    17  LEU17       0.1561
      3  C          3.8950   13.5460  -30.8440 C.2    17  LEU17       0.2260
      4  O          4.2210   13.1870  -29.7130 O.2    17  LEU17      -0.2867
      5  CB         2.3720   11.6290  -31.4120 C.3    17  LEU17       0.0270
      6  CG         0.9720   11.0770  -31.6940 C.3    17  LEU17       0.0019
      7  CD1        1.0190    9.5590  -31.7000 C.3    17  LEU17       0.0001
      8  CD2       -0.0650   11.5830  -30.6950 C.3    17  LEU17       0.0001
      9  N          6.7240   12.2110  -35.2500 N.3    25  VAL25      -0.1245
     10  CA         5.8740   11.0320  -35.0720 C.3    25  VAL25       0.1561
     11  C          4.4030   11.4360  -35.0830 C.2    25  VAL25       0.2260
     12  O          3.9950   12.3350  -34.3570 O.2    25  VAL25      -0.2867
     13  CB         6.2050   10.2520  -33.7820 C.3    25  VAL25       0.0252
     14  CG1        5.3980    8.9750  -33.7230 C.3    25  VAL25       0.0019
     15  CG2        7.6830    9.9230  -33.7160 C.3    25  VAL25       0.0019
     16  N          1.0120    4.3040  -36.6130 N.3    37  ALA37      -0.1245
     17  CA         2.0050    5.2410  -36.1240 C.3    37  ALA37       0.1562
     18  C          2.9840    5.5510  -37.2460 C.2    37  ALA37       0.2260
     19  O          3.6110    4.6460  -37.7940 O.2    37  ALA37      -0.2867
     20  CB         2.7220    4.6550  -34.9500 C.3    37  ALA37       0.0290
     21  N          6.3010    7.4530  -38.5800 N.3    39  LYS39      -0.1245
     22  CA         7.5770    8.0960  -38.3040 C.3    39  LYS39       0.1561
     23  C          8.1320    8.7560  -39.5780 C.2    39  LYS39       0.2260
     24  O          8.1080    8.1630  -40.6620 O.2    39  LYS39      -0.2867
     25  CB         8.5490    7.0650  -37.7330 C.3    39  LYS39       0.0271
     26  CG         9.6590    7.6470  -36.8960 C.3    39  LYS39       0.0035
     27  CD        10.5370    6.5500  -36.3320 C.3    39  LYS39       0.0206
     28  CE        11.7390    7.1320  -35.6010 C.3    39  LYS39       0.1093
     29  NZ        12.2350    6.2080  -34.5350 N.3    39  LYS39      -0.1314
     30  N         17.4640    1.7480  -41.7560 N.3    53  GLN53      -0.1231
     31  CA        17.9990    0.6000  -41.0370 C.3    53  GLN53       0.1698
     32  C         17.0220    0.1620  -39.9470 C.2    53  GLN53       0.2592
     33  O         16.9530   -1.0200  -39.6080 O.2    53  GLN53      -0.2718
     34  CB        19.3800    0.9020  -40.4580 C.3    53  GLN53       0.0381
     35  CG        20.2490   -0.3420  -40.3050 C.3    53  GLN53       0.0905
     36  CD        21.6620   -0.1760  -40.8630 C.2    53  GLN53       0.2608
     37  OE1       22.4310   -1.1390  -40.9090 O.2    53  GLN53      -0.2717
     38  NE2       22.0090    1.0410  -41.2920 N.am   53  GLN53      -0.0878
     39  N         16.2530    1.1220  -39.4360 N.am   54  GLU54      -0.1979
     40  CA        15.2100    0.8610  -38.4480 C.3    54  GLU54       0.1602
     41  C         14.2080   -0.1760  -38.9390 C.2    54  GLU54       0.2287
     42  O         13.9550   -1.1600  -38.2510 O.2    54  GLU54      -0.2864
     43  CB        14.4900    2.1550  -38.0550 C.3    54  GLU54       0.0415
     44  CG        13.3960    1.9630  -37.0060 C.3    54  GLU54       0.1163
     45  CD        12.9320    3.2680  -36.3850 C.2    54  GLU54       0.3649
     46  OE1       12.2270    3.2080  -35.3550 O.co2  54  GLU54      -0.2457
     47  OE2       13.2730    4.3530  -36.9140 O.co2  54  GLU54      -0.2457
     48  N         15.5820   -3.8850  -39.2140 N.3    57  VAL57      -0.1231
     49  CA        15.5850   -4.6080  -37.9410 C.3    57  VAL57       0.1692
     50  C         14.1880   -5.1020  -37.6020 C.2    57  VAL57       0.2591
     51  O         14.0190   -6.2030  -37.0770 O.2    57  VAL57      -0.2718
     52  CB        16.0540   -3.7270  -36.7640 C.3    57  VAL57       0.0266
     53  CG1       16.4750   -4.5900  -35.5850 C.3    57  VAL57       0.0020
     54  CG2       17.1960   -2.8210  -37.1720 C.3    57  VAL57       0.0020
     55  N         13.1870   -4.2850  -37.9050 N.am   58  MET58      -0.1979
     56  CA        11.8120   -4.6280  -37.5850 C.3    58  MET58       0.1605
     57  C         11.2150   -5.6780  -38.5250 C.2    58  MET58       0.2287
     58  O         10.0550   -6.0730  -38.3720 O.2    58  MET58      -0.2864
     59  CB        10.9680   -3.3670  -37.5220 C.3    58  MET58       0.0413
     60  CG        11.3230   -2.5210  -36.3240 C.3    58  MET58       0.0598
     61  SD        10.3250   -1.0470  -36.1590 S.3    58  MET58      -0.1393
     62  CE         8.6940   -1.7290  -36.4000 C.3    58  MET58       0.0692
     63  N         13.0470   -9.1910  -36.7370 N.3    61  LEU61      -0.1245
     64  CA        12.5040   -9.5090  -35.4150 C.3    61  LEU61       0.1561
     65  C         10.9790   -9.3790  -35.3370 C.2    61  LEU61       0.2260
     66  O         10.4530   -8.2780  -35.1760 O.2    61  LEU61      -0.2867
     67  CB        13.1520   -8.6150  -34.3510 C.3    61  LEU61       0.0270
     68  CG        14.6740   -8.5160  -34.2650 C.3    61  LEU61       0.0019
     69  CD1       15.0710   -7.4600  -33.2550 C.3    61  LEU61       0.0001
     70  CD2       15.2960   -9.8480  -33.9010 C.3    61  LEU61       0.0001
     71  N          6.3870   -7.9240  -29.5560 N.3    66  LEU66      -0.1231
     72  CA         7.2550   -6.9200  -30.1560 C.3    66  LEU66       0.1693
     73  C          6.4470   -6.0030  -31.0620 C.2    66  LEU66       0.2591
     74  O          5.3750   -6.3860  -31.5440 O.2    66  LEU66      -0.2718
     75  CB         8.3860   -7.5670  -30.9590 C.3    66  LEU66       0.0284
     76  CG         9.5150   -8.3510  -30.2820 C.3    66  LEU66       0.0019
     77  CD1       10.7440   -8.3160  -31.1660 C.3    66  LEU66       0.0001
     78  CD2        9.8700   -7.8190  -28.9070 C.3    66  LEU66       0.0001
     79  N          6.9770   -4.8010  -31.2910 N.am   67  VAL67      -0.1980
     80  CA         6.3630   -3.8020  -32.1750 C.3    67  VAL67       0.1595
     81  C          6.2380   -4.2860  -33.6170 C.2    67  VAL67       0.2287
     82  O          7.1120   -4.9730  -34.1490 O.2    67  VAL67      -0.2864
     83  CB         7.1360   -2.4690  -32.1660 C.3    67  VAL67       0.0276
     84  CG1        6.3000   -1.3620  -32.7870 C.3    67  VAL67       0.0022
     85  CG2        7.4680   -2.0830  -30.7700 C.3    67  VAL67       0.0022
     86  N          4.0240    1.7640  -38.4750 N.3    82  THR82      -0.1203
     87  CA         3.9440    0.7290  -37.4460 C.3    82  THR82       0.1994
     88  C          2.5810    0.7720  -36.7460 C.2    82  THR82       0.2618
     89  O          1.9270    1.8130  -36.7390 O.2    82  THR82      -0.2717
     90  CB         5.0780    0.8960  -36.4010 C.3    82  THR82       0.1784
     91  OG1        4.9530    2.1620  -35.7360 O.3    82  THR82      -0.2211
     92  CG2        6.4490    0.8140  -37.0630 C.3    82  THR82       0.0376
     93  N          2.1580   -0.3490  -36.1570 N.am   83  GLU83      -0.1965
     94  CA         0.8580   -0.4250  -35.4540 C.3    83  GLU83       0.1733
     95  C          0.6990    0.5930  -34.3040 C.2    83  GLU83       0.2616
     96  O          1.6310    0.8210  -33.5200 O.2    83  GLU83      -0.2715
     97  CB         0.5880   -1.8450  -34.9340 C.3    83  GLU83       0.0429
     98  CG         1.5210   -2.2950  -33.8050 C.3    83  GLU83       0.1163
     99  CD         1.0220   -3.5240  -33.0680 C.2    83  GLU83       0.3649
    100  OE1        1.8670   -4.3770  -32.7120 O.co2  83  GLU83      -0.2457
    101  OE2       -0.2060   -3.6340  -32.8420 O.co2  83  GLU83      -0.2457
    102  N         -0.4880    1.1920  -34.2150 N.am   84  TYR84      -0.1960
    103  CA        -0.7650    2.2150  -33.2100 C.3    84  TYR84       0.1771
    104  C         -1.0780    1.5930  -31.8580 C.2    84  TYR84       0.2619
    105  O         -2.1470    1.0040  -31.6620 O.2    84  TYR84      -0.2715
    106  CB        -1.9090    3.1440  -33.6570 C.3    84  TYR84       0.0574
    107  CG        -2.2700    4.2310  -32.6590 C.ar   84  TYR84      -0.0198
    108  CD1       -1.4570    5.3570  -32.4840 C.ar   84  TYR84      -0.0009
    109  CD2       -3.4300    4.1410  -31.8950 C.ar   84  TYR84      -0.0009
    110  CE1       -1.7910    6.3710  -31.5570 C.ar   84  TYR84       0.0417
    111  CE2       -3.7760    5.1460  -30.9650 C.ar   84  TYR84       0.0417
    112  CZ        -2.9560    6.2560  -30.8010 C.ar   84  TYR84       0.1957
    113  OH        -3.3100    7.2320  -29.8850 O.3    84  TYR84      -0.2866
    114  N         -0.1360    1.7250  -30.9280 N.am   85  MET85      -0.1977
    115  CA        -0.3830    1.3150  -29.5500 C.3    85  MET85       0.1605
    116  C         -1.2520    2.3470  -28.8540 C.2    85  MET85       0.2287
    117  O         -0.8090    3.4580  -28.5470 O.2    85  MET85      -0.2864
    118  CB         0.9140    1.0610  -28.7900 C.3    85  MET85       0.0413
    119  CG         1.6850   -0.1360  -29.3120 C.3    85  MET85       0.0598
    120  SD         0.6630   -1.5880  -29.5970 S.3    85  MET85      -0.1393
    121  CE         0.4020   -2.2040  -27.9350 C.3    85  MET85       0.0692
    122  N         -0.0240    4.9650  -25.5610 N.3    88  GLY88      -0.1210
    123  CA         1.2620    5.6580  -25.4050 C.3    88  GLY88       0.1956
    124  C          2.3290    4.8070  -24.7560 C.2    88  GLY88       0.2612
    125  O          2.1880    3.5850  -24.7000 O.2    88  GLY88      -0.2717
    126  N          3.4000    5.4350  -24.2670 N.am   89  CYS89      -0.1970
    127  CA         4.4690    4.6740  -23.6170 C.3    89  CYS89       0.1712
    128  C          4.1070    4.3370  -22.1840 C.2    89  CYS89       0.2296
    129  O          3.4090    5.0980  -21.5160 O.2    89  CYS89      -0.2864
    130  CB         5.8290    5.3760  -23.6990 C.3    89  CYS89       0.0983
    131  SG         6.0730    6.8240  -22.6390 S.3    89  CYS89      -0.0798
    132  N          4.4440    6.9610  -19.3730 N.3    92  ASP92      -0.1239
    133  CA         3.3550    7.9410  -19.3100 C.3    92  ASP92       0.1674
    134  C          2.1140    7.3200  -18.7190 C.2    92  ASP92       0.2266
    135  O          1.4000    7.9520  -17.9290 O.2    92  ASP92      -0.2867
    136  CB         2.9860    8.4460  -20.6960 C.3    92  ASP92       0.1410
    137  CG         4.0910    9.2010  -21.3510 C.2    92  ASP92       0.3668
    138  OD1        3.9040    9.5750  -22.5260 O.co2  92  ASP92      -0.2456
    139  OD2        5.1390    9.4090  -20.7020 O.co2  92  ASP92      -0.2456
    140  N         13.9060  -12.1090  -27.7620 N.3   121  VAL121     -0.1245
    141  CA        15.1630  -11.4130  -28.0650 C.3   121  VAL121      0.1561
    142  C         16.3580  -12.2890  -27.6920 C.2   121  VAL121      0.2260
    143  O         17.2960  -12.4500  -28.4730 O.2   121  VAL121     -0.2867
    144  CB        15.2360  -10.0470  -27.3400 C.3   121  VAL121      0.0252
    145  CG1       16.6320   -9.4540  -27.4110 C.3   121  VAL121      0.0019
    146  CG2       14.2310   -9.0900  -27.9310 C.3   121  VAL121      0.0019
    147  N         19.9780  -11.3530  -30.1940 N.3   126  TYR126     -0.1241
    148  CA        19.9800   -9.9080  -30.3170 C.3   126  TYR126      0.1605
    149  C         20.1290   -9.2870  -28.9190 C.2   126  TYR126      0.2264
    150  O         20.0330   -9.9910  -27.9170 O.2   126  TYR126     -0.2867
    151  CB        18.6860   -9.4700  -30.9820 C.3   126  TYR126      0.0534
    152  CG        18.7290   -8.0920  -31.5850 C.ar  126  TYR126     -0.0201
    153  CD1       19.2460   -7.8870  -32.8640 C.ar  126  TYR126     -0.0009
    154  CD2       18.2320   -6.9890  -30.8820 C.ar  126  TYR126     -0.0009
    155  CE1       19.2730   -6.6120  -33.4260 C.ar  126  TYR126      0.0417
    156  CE2       18.2550   -5.7120  -31.4300 C.ar  126  TYR126      0.0417
    157  CZ        18.7740   -5.5280  -32.7010 C.ar  126  TYR126      0.1957
    158  OH        18.7950   -4.2650  -33.2470 O.3   126  TYR126     -0.2866
    159  N         19.0550   -5.5750  -26.6550 N.3   128  HIS128     -0.1241
    160  CA        18.2670   -4.3370  -26.7000 C.3   128  HIS128      0.1621
    161  C         19.0730   -3.0780  -26.4140 C.2   128  HIS128      0.2264
    162  O         18.9430   -2.0880  -27.1380 O.2   128  HIS128     -0.2867
    163  CB        17.0560   -4.3830  -25.7680 C.3   128  HIS128      0.0745
    164  CG        16.0920   -3.2580  -25.9990 C.ar  128  HIS128      0.0817
    165  ND1       16.4000   -1.9430  -25.7220 N.ar  128  HIS128     -0.2268
    166  CD2       14.8350   -3.2510  -26.5010 C.ar  128  HIS128      0.1154
    167  CE1       15.3720   -1.1760  -26.0350 C.ar  128  HIS128      0.1986
    168  NE2       14.4080   -1.9450  -26.5070 N.ar  128  HIS128     -0.2212
    169  N          5.4730    0.0840  -25.1830 N.3   137  LEU137     -0.1245
    170  CA         4.2270    0.5970  -25.6980 C.3   137  LEU137      0.1561
    171  C          3.0720   -0.1760  -25.0800 C.2   137  LEU137      0.2260
    172  O          3.0050   -1.4070  -25.1880 O.2   137  LEU137     -0.2867
    173  CB         4.1910    0.4210  -27.2090 C.3   137  LEU137      0.0270
    174  CG         5.1870    1.1730  -28.0780 C.3   137  LEU137      0.0019
    175  CD1        5.1850    0.5640  -29.4680 C.3   137  LEU137      0.0001
    176  CD2        4.8640    2.6600  -28.1240 C.3   137  LEU137      0.0001
    177  N          7.6430   -4.6770  -26.5390 N.3   146  VAL146     -0.1231
    178  CA         8.9790   -4.0740  -26.4500 C.3   146  VAL146      0.1692
    179  C          9.2450   -3.1890  -27.6670 C.2   146  VAL146      0.2592
    180  O          9.0030   -3.6150  -28.7860 O.2   146  VAL146     -0.2718
    181  CB        10.1090   -5.1420  -26.3590 C.3   146  VAL146      0.0266
    182  CG1       11.4270   -4.4970  -25.9540 C.3   146  VAL146      0.0020
    183  CG2        9.7590   -6.2610  -25.3790 C.3   146  VAL146      0.0020
    184  N          9.7620   -1.9790  -27.4450 N.am  147  ALA147     -0.1966
    185  CA        10.0310   -1.0100  -28.5210 C.3   147  ALA147      0.1728
    186  C         11.3040   -0.1760  -28.3000 C.2   147  ALA147      0.2616
    187  O         11.9750   -0.3110  -27.2810 O.2   147  ALA147     -0.2715
    188  CB         8.8320   -0.0920  -28.6870 C.3   147  ALA147      0.0334
    189  N         11.6270    0.6930  -29.2550 N.am  148  ASP148     -0.1957
    190  CA        12.7210    1.6590  -29.0880 C.3   148  ASP148      0.1840
    191  C         12.3900    3.0180  -29.7280 C.2   148  ASP148      0.2622
    192  O         11.8720    3.0750  -30.8390 O.2   148  ASP148     -0.2715
    193  CB        14.0260    1.0910  -29.6640 C.3   148  ASP148      0.1450
    194  CG        15.2760    1.8250  -29.1580 C.2   148  ASP148      0.3671
    195  OD1       15.1890    3.0290  -28.7960 O.co2 148  ASP148     -0.2456
    196  OD2       16.3570    1.1820  -29.1370 O.co2 148  ASP148     -0.2456
    197  N         12.7110    4.1040  -29.0260 N.am  149  PHE149     -0.1960
    198  CA        12.3700    5.4640  -29.4820 C.3   149  PHE149      0.1771
    199  C         13.5400    6.2640  -30.0910 C.2   149  PHE149      0.2620
    200  O         13.3670    6.8820  -31.1420 O.2   149  PHE149     -0.2715
    201  CB        11.7470    6.2890  -28.3460 C.3   149  PHE149      0.0574
    202  CG        10.2960    5.9690  -28.0570 C.ar  149  PHE149     -0.0200
    203  CD1        9.9290    4.7720  -27.4510 C.ar  149  PHE149     -0.0042
    204  CD2        9.2960    6.8980  -28.3420 C.ar  149  PHE149     -0.0042
    205  CE1        8.5880    4.4960  -27.1610 C.ar  149  PHE149     -0.0003
    206  CE2        7.9490    6.6260  -28.0490 C.ar  149  PHE149     -0.0003
    207  CZ         7.6000    5.4270  -27.4590 C.ar  149  PHE149     -0.0000
    208  N         14.7040    6.2700  -29.4310 N.am  150  GLY150     -0.1954
    209  CA        15.8500    7.0970  -29.8510 C.3   150  GLY150      0.1869
    210  C         16.9930    7.1560  -28.8380 C.2   150  GLY150      0.2309
    211  O         17.0130    7.9930  -27.9160 O.2   150  GLY150     -0.2863
@<TRIPOS>BOND
     1    30    31    1
     2    38    36   am
     3    31    34    1
     4    31    32    1
     5    37    36    2
     6    36    35    1
     7    24    23    2
     8    34    35    1
     9    32    33    2
    10    32    39   am
    11    23    22    1
    12    39    40    1
    13    48    49    1
    14    41    40    1
    15    41    42    2
    16    21    22    1
    17    57    58    2
    18    57    56    1
    19    86    87    1
    20    40    43    1
    21    22    25    1
    22    43    44    1
    23    49    50    1
    24    49    52    1
    25    55    50   am
    26    55    56    1
    27    19    18    2
    28    25    26    1
    29    50    51    2
    30    56    59    1
    31    59    60    1
    32    87    88    1
    33    87    90    1
    34    18    17    1
    35    54    52    1
    36    92    90    1
    37    44    45    1
    38    47    45   ar
    39    26    27    1
    40    52    53    1
    41    88    89    2
    42    88    93   am
    43    63    64    1
    44    16    17    1
    45    90    91    1
    46    62    61    1
    47    45    46   ar
    48    27    28    1
    49    60    61    1
    50    93    94    1
    51    17    20    1
    52    28    29    1
    53    94    97    1
    54    94    95    1
    55    64    65    1
    56    64    67    1
    57    65    66    2
    58     9    10    1
    59    11    10    1
    60    11    12    2
    61    10    13    1
    62    97    98    1
    63    67    68    1
    64    95   102   am
    65    95    96    2
    66    68    70    1
    67    68    69    1
    68   102   103    1
    69    82    81    2
    70    98    99    1
    71    13    14    1
    72    13    15    1
    73   106   103    1
    74   106   107    1
    75    81    80    1
    76   155   153   ar
    77   155   157   ar
    78   158   157    1
    79   103   104    1
    80    99   101   ar
    81    99   100   ar
    82   153   152   ar
    83    84    83    1
    84     1     2    1
    85   157   156   ar
    86   107   108   ar
    87   107   109   ar
    88   108   110   ar
    89    80    83    1
    90    80    79    1
    91    83    85    1
    92   109   111   ar
    93   104   105    2
    94   104   114   am
    95     7     6    1
    96     6     5    1
    97     6     8    1
    98   152   151    1
    99   152   154   ar
   100   110   112   ar
   101    74    73    2
   102   156   154   ar
   103     2     5    1
   104     2     3    1
   105    79    73   am
   106    77    76    1
   107   200   199    2
   108    73    72    1
   109   151   148    1
   110   111   112   ar
   111    75    76    1
   112    75    72    1
   113   114   115    1
   114     3     4    2
   115   192   191    2
   116   112   113    1
   117   148   147    1
   118   148   149    1
   119    76    78    1
   120    72    71    1
   121   199   198    1
   122   199   208   am
   123   209   208    1
   124   209   210    1
   125   191   190    1
   126   191   197   am
   127   193   194    1
   128   193   190    1
   129   120   119    1
   130   120   121    1
   131   115   116    1
   132   115   118    1
   133   198   197    1
   134   198   201    1
   135   175   174    1
   136   119   118    1
   137   189   190    1
   138   189   186   am
   139   194   196   ar
   140   194   195   ar
   141   149   150    2
   142   116   117    2
   143   210   211    2
   144   180   179    2
   145   188   185    1
   146   185   186    1
   147   185   184    1
   148   143   142    2
   149   201   202    1
   150   204   202   ar
   151   204   206   ar
   152   186   187    2
   153   176   174    1
   154   174   173    1
   155   141   140    1
   156   141   142    1
   157   141   144    1
   158   202   203   ar
   159   206   207   ar
   160   146   144    1
   161   179   184   am
   162   179   178    1
   163   207   205   ar
   164   203   205   ar
   165   145   144    1
   166   173   170    1
   167   162   161    2
   168   160   159    1
   169   160   161    1
   170   160   163    1
   171   177   178    1
   172   168   166   ar
   173   168   167   ar
   174   166   164   ar
   175   178   181    1
   176   181   182    1
   177   181   183    1
   178   167   165   ar
   179   164   163    1
   180   164   165   ar
   181   170   169    1
   182   170   171    1
   183   122   123    1
   184   123   124    1
   185   172   171    2
   186   124   125    2
   187   124   126   am
   188   126   127    1
   189   130   127    1
   190   130   131    1
   191   127   128    1
   192   138   137   ar
   193   128   129    2
   194   137   139   ar
   195   137   136    1
   196   136   133    1
   197   132   133    1
   198   133   134    1
   199   134   135    2
