@<TRIPOS>MOLECULE
tmp/3tzaA00.pdb
 168 162 0 0 0
SMALL
GASTEIGER

@<TRIPOS>ATOM
      1  N         -3.3780   36.2740   57.7250 N.3    12  GLU12      -0.1245
      2  CA        -4.4280   35.2690   57.6170 C.3    12  GLU12       0.1567
      3  C         -5.3760   35.4820   58.7810 C.2    12  GLU12       0.2260
      4  O         -4.9830   35.2800   59.9150 O.2    12  GLU12      -0.2867
      5  CB        -3.8170   33.8630   57.7000 C.3    12  GLU12       0.0388
      6  CG        -4.8120   32.7230   57.5360 C.3    12  GLU12       0.1160
      7  CD        -4.9850   32.3090   56.0860 C.2    12  GLU12       0.3649
      8  OE1       -4.0950   31.6100   55.5580 O.co2  12  GLU12      -0.2457
      9  OE2       -6.0090   32.6780   55.4740 O.co2  12  GLU12      -0.2457
     10  N         -5.6330   35.2850   62.5320 N.3    15  TYR15      -0.1241
     11  CA        -4.3470   35.0550   63.1790 C.3    15  TYR15       0.1605
     12  C         -3.4710   36.2960   63.1440 C.2    15  TYR15       0.2264
     13  O         -2.9410   36.7240   64.1690 O.2    15  TYR15      -0.2867
     14  CB        -3.6310   33.8620   62.5260 C.3    15  TYR15       0.0534
     15  CG        -4.4000   32.5790   62.6840 C.ar   15  TYR15      -0.0201
     16  CD1       -4.2440   31.8040   63.8180 C.ar   15  TYR15      -0.0009
     17  CD2       -5.3010   32.1550   61.7140 C.ar   15  TYR15      -0.0009
     18  CE1       -4.9540   30.6420   63.9880 C.ar   15  TYR15       0.0417
     19  CE2       -6.0180   30.9800   61.8740 C.ar   15  TYR15       0.0417
     20  CZ        -5.8400   30.2350   63.0180 C.ar   15  TYR15       0.1957
     21  OH        -6.5290   29.0620   63.2080 O.3    15  TYR15      -0.2866
     22  N          3.0370   28.8530   53.3480 N.3    60  TYR60      -0.1241
     23  CA         3.2820   28.2370   54.6390 C.3    60  TYR60       0.1605
     24  C          4.5850   27.4480   54.6530 C.2    60  TYR60       0.2264
     25  O          5.4770   27.7190   55.4560 O.2    60  TYR60      -0.2867
     26  CB         2.0750   27.3920   55.0630 C.3    60  TYR60       0.0534
     27  CG         0.9360   28.2600   55.5610 C.ar   60  TYR60      -0.0201
     28  CD1        0.8490   28.6120   56.8990 C.ar   60  TYR60      -0.0009
     29  CD2       -0.0300   28.7580   54.6860 C.ar   60  TYR60      -0.0009
     30  CE1       -0.1710   29.4210   57.3640 C.ar   60  TYR60       0.0417
     31  CE2       -1.0590   29.5740   55.1450 C.ar   60  TYR60       0.0417
     32  CZ        -1.1200   29.8940   56.4850 C.ar   60  TYR60       0.1957
     33  OH        -2.1320   30.6850   56.9700 O.3    60  TYR60      -0.2866
     34  N         -0.6600   29.8650   61.8180 N.3    88  PRO88      -0.2102
     35  CA        -1.3810   28.5920   61.7630 C.3    88  PRO88       0.1504
     36  C         -0.6130   27.5830   60.9150 C.2    88  PRO88       0.2576
     37  O         -1.0780   27.2150   59.8320 O.2    88  PRO88      -0.2718
     38  CB        -2.6930   28.9370   61.0540 C.3    88  PRO88       0.0282
     39  CG        -2.5390   30.2950   60.5080 C.3    88  PRO88       0.0208
     40  CD        -1.2490   30.8940   60.9440 C.3    88  PRO88       0.0893
     41  N          0.5370   27.1440   61.4180 N.am   89  LEU89      -0.1966
     42  CA         1.4390   26.2710   60.6790 C.3    89  LEU89       0.1728
     43  C          1.3410   24.8550   61.2430 C.2    89  LEU89       0.2616
     44  O          1.7040   24.6050   62.3860 O.2    89  LEU89      -0.2715
     45  CB         2.8770   26.8030   60.8000 C.3    89  LEU89       0.0311
     46  CG         4.0150   26.0860   60.0580 C.3    89  LEU89       0.0022
     47  CD1        3.8930   26.2420   58.5440 C.3    89  LEU89       0.0001
     48  CD2        5.3570   26.6130   60.5430 C.3    89  LEU89       0.0001
     49  N          0.8420   23.9350   60.4270 N.am   90  THR90      -0.1951
     50  CA         0.6190   22.5600   60.8590 C.3    90  THR90       0.1897
     51  C          1.9260   21.7870   61.0920 C.2    90  THR90       0.2313
     52  O          2.8530   21.8650   60.2880 O.2    90  THR90      -0.2863
     53  CB        -0.2480   21.8140   59.8280 C.3    90  THR90       0.1794
     54  OG1       -1.4110   22.5980   59.5400 O.3    90  THR90      -0.2208
     55  CG2       -0.6730   20.4450   60.3680 C.3    90  THR90       0.0378
     56  N          7.9990   18.5090   57.4620 N.3    95  ARG95      -0.1245
     57  CA         8.5310   19.7290   58.0730 C.3    95  ARG95       0.1563
     58  C          9.3870   19.4500   59.3110 C.2    95  ARG95       0.2260
     59  O         10.4220   20.0890   59.4990 O.2    95  ARG95      -0.2867
     60  CB         7.4100   20.7280   58.3950 C.3    95  ARG95       0.0307
     61  CG         6.6120   21.1850   57.1700 C.3    95  ARG95       0.0489
     62  CD         5.3780   21.9750   57.5880 C.3    95  ARG95       0.2205
     63  NE         4.6990   22.6010   56.4540 N.pl3  95  ARG95      -0.0865
     64  CZ         3.4840   23.1380   56.5150 C.cat  95  ARG95       0.5346
     65  NH1        2.8060   23.1110   57.6540 N.pl3  95  ARG95       0.1354
     66  NH2        2.9420   23.6930   55.4370 N.pl3  95  ARG95       0.1354
     67  N         -8.6700   24.2000   48.2520 N.3   137  LEU137     -0.1245
     68  CA        -7.6750   25.0950   47.6850 C.3   137  LEU137      0.1561
     69  C         -6.9210   24.3640   46.5750 C.2   137  LEU137      0.2260
     70  O         -6.7160   23.1550   46.6600 O.2   137  LEU137     -0.2867
     71  CB        -6.6890   25.5230   48.7690 C.3   137  LEU137      0.0270
     72  CG        -5.8480   26.7540   48.4530 C.3   137  LEU137      0.0019
     73  CD1       -6.7600   27.9680   48.3740 C.3   137  LEU137      0.0001
     74  CD2       -4.7690   26.9520   49.5120 C.3   137  LEU137      0.0001
     75  N         -3.9640   24.2620   45.8690 N.3   139  SER139     -0.1202
     76  CA        -2.6380   23.8350   46.2870 C.3   139  SER139      0.2020
     77  C         -2.6380   23.7160   47.7960 C.2   139  SER139      0.2619
     78  O         -3.6550   23.9630   48.4430 O.2   139  SER139     -0.2717
     79  CB        -1.5840   24.8490   45.8460 C.3   139  SER139      0.2103
     80  OG        -1.8840   26.1360   46.3620 O.3   139  SER139     -0.2182
     81  N         -1.5020   23.3350   48.3650 N.am  140  GLY140     -0.1942
     82  CA        -1.3820   23.3100   49.8080 C.3   140  GLY140      0.2014
     83  C         -1.7990   22.0050   50.4550 C.2   140  GLY140      0.2640
     84  O         -2.0550   21.0100   49.7810 O.2   140  GLY140     -0.2714
     85  N         -1.8770   22.0230   51.7780 N.am  141  SER141     -0.1935
     86  CA        -1.9550   20.7910   52.5510 C.3   141  SER141      0.2055
     87  C         -3.2960   20.0810   52.5030 C.2   141  SER141      0.2643
     88  O         -3.3280   18.8640   52.6060 O.2   141  SER141     -0.2714
     89  CB        -1.5400   21.0290   54.0050 C.3   141  SER141      0.2130
     90  OG        -2.4970   21.8130   54.6800 O.3   141  SER141     -0.2179
     91  N         -4.4030   20.8130   52.3660 N.am  142  THR142     -0.1950
     92  CA        -5.6940   20.1400   52.3110 C.3   142  THR142      0.1897
     93  C         -5.8010   19.3490   51.0140 C.2   142  THR142      0.2313
     94  O         -6.2140   18.1910   51.0250 O.2   142  THR142     -0.2863
     95  CB        -6.9040   21.1080   52.4540 C.3   142  THR142      0.1794
     96  OG1       -6.9130   21.6730   53.7690 O.3   142  THR142     -0.2208
     97  CG2       -8.2150   20.3380   52.2470 C.3   142  THR142      0.0378
     98  N         -8.3830   30.8930   50.0950 N.3   173  THR173     -0.1218
     99  CA        -9.3870   30.5550   51.0910 C.3   173  THR173      0.1862
    100  C        -10.6130   31.4650   50.9280 C.2   173  THR173      0.2287
    101  O        -11.7480   31.0070   51.0010 O.2   173  THR173     -0.2866
    102  CB        -8.8080   30.6390   52.5190 C.3   173  THR173      0.1770
    103  OG1       -7.7590   29.6710   52.6600 O.3   173  THR173     -0.2211
    104  CG2       -9.8880   30.3730   53.5680 C.3   173  THR173      0.0375
    105  N        -17.1490   23.3980   50.7180 N.3   189  TYR189     -0.1227
    106  CA       -15.7240   23.7190   50.7550 C.3   189  TYR189      0.1736
    107  C        -14.9700   22.9720   51.8570 C.2   189  TYR189      0.2595
    108  O        -15.3570   23.0080   53.0240 O.2   189  TYR189     -0.2718
    109  CB       -15.5110   25.2400   50.8800 C.3   189  TYR189      0.0548
    110  CG       -14.0570   25.6630   50.7770 C.ar  189  TYR189     -0.0200
    111  CD1      -13.2470   25.1830   49.7550 C.ar  189  TYR189     -0.0009
    112  CD2      -13.4960   26.5480   51.6950 C.ar  189  TYR189     -0.0009
    113  CE1      -11.9090   25.5600   49.6550 C.ar  189  TYR189      0.0417
    114  CE2      -12.1650   26.9320   51.6050 C.ar  189  TYR189      0.0417
    115  CZ       -11.3750   26.4300   50.5790 C.ar  189  TYR189      0.1957
    116  OH       -10.0540   26.8020   50.4770 O.3   189  TYR189     -0.2866
    117  N        -13.8960   22.2860   51.4770 N.am  190  LEU190     -0.1966
    118  CA       -13.0770   21.5510   52.4370 C.3   190  LEU190      0.1728
    119  C        -11.9010   22.4180   52.8950 C.2   190  LEU190      0.2616
    120  O        -11.0970   22.8600   52.0790 O.2   190  LEU190     -0.2715
    121  CB       -12.5850   20.2420   51.8100 C.3   190  LEU190      0.0311
    122  CG       -13.7080   19.2130   51.6360 C.3   190  LEU190      0.0022
    123  CD1      -13.4400   18.2870   50.4630 C.3   190  LEU190      0.0001
    124  CD2      -13.9090   18.4210   52.9330 C.3   190  LEU190      0.0001
    125  N        -11.8200   22.6820   54.1950 N.am  191  LEU191     -0.1963
    126  CA       -10.7660   23.5380   54.7270 C.3   191  LEU191      0.1728
    127  C        -10.4730   23.1980   56.1780 C.2   191  LEU191      0.2616
    128  O        -11.1140   22.3330   56.7670 O.2   191  LEU191     -0.2715
    129  CB       -11.1430   25.0180   54.5820 C.3   191  LEU191      0.0311
    130  CG       -12.1430   25.5690   55.5890 C.3   191  LEU191      0.0022
    131  CD1      -12.3390   27.0710   55.4000 C.3   191  LEU191      0.0001
    132  CD2      -13.4880   24.8380   55.4920 C.3   191  LEU191      0.0001
    133  N         -9.5020   23.8790   56.7660 N.am  192  GLU192     -0.1977
    134  CA        -9.1450   23.5910   58.1400 C.3   192  GLU192      0.1602
    135  C        -10.2470   24.0840   59.0820 C.2   192  GLU192      0.2287
    136  O        -10.8510   25.1380   58.8610 O.2   192  GLU192     -0.2864
    137  CB        -7.7390   24.1280   58.4470 C.3   192  GLU192      0.0415
    138  CG        -6.7140   23.4300   57.5350 C.3   192  GLU192      0.1163
    139  CD        -5.2590   23.6740   57.8960 C.2   192  GLU192      0.3649
    140  OE1       -4.9580   24.6300   58.6410 O.co2 192  GLU192     -0.2457
    141  OE2       -4.4060   22.8970   57.4060 O.co2 192  GLU192     -0.2457
    142  N        -10.4260   25.2830   61.9850 N.3   194  THR194     -0.1203
    143  CA       -10.2420   26.5710   62.6440 C.3   194  THR194      0.1994
    144  C        -10.8930   27.6900   61.8430 C.2   194  THR194      0.2617
    145  O        -11.6540   28.4970   62.3840 O.2   194  THR194     -0.2717
    146  CB        -8.7450   26.9000   62.7880 C.3   194  THR194      0.1784
    147  OG1       -8.0850   26.6380   61.5380 O.3   194  THR194     -0.2211
    148  CG2       -8.1200   26.0500   63.8880 C.3   194  THR194      0.0376
    149  N        -10.5830   27.7350   60.5520 N.am  195  MET195     -0.1979
    150  CA       -11.1000   28.7750   59.6610 C.3   195  MET195      0.1605
    151  C        -12.5980   28.5900   59.4530 C.2   195  MET195      0.2287
    152  O        -13.3510   29.5540   59.3790 O.2   195  MET195     -0.2864
    153  CB       -10.3730   28.7410   58.3120 C.3   195  MET195      0.0413
    154  CG       -10.8720   29.7600   57.2970 C.3   195  MET195      0.0598
    155  SD       -10.5920   31.4580   57.8530 S.3   195  MET195     -0.1393
    156  CE        -8.8040   31.5170   57.8350 C.3   195  MET195      0.0692
    157  N         -1.3700   22.9850   65.1510 N.3   219  TYR219     -0.1241
    158  CA        -0.4520   24.0410   64.7120 C.3   219  TYR219      0.1605
    159  C          0.6020   24.1690   65.7890 C.2   219  TYR219      0.2264
    160  O          0.3060   24.0170   66.9790 O.2   219  TYR219     -0.2867
    161  CB        -1.1380   25.4080   64.5470 C.3   219  TYR219      0.0534
    162  CG        -2.2860   25.4950   63.5590 C.ar  219  TYR219     -0.0201
    163  CD1       -2.2920   24.7610   62.3820 C.ar  219  TYR219     -0.0009
    164  CD2       -3.3460   26.3670   63.7850 C.ar  219  TYR219     -0.0009
    165  CE1       -3.3480   24.8640   61.4830 C.ar  219  TYR219      0.0417
    166  CE2       -4.3940   26.4810   62.8860 C.ar  219  TYR219      0.0417
    167  CZ        -4.3940   25.7270   61.7420 C.ar  219  TYR219      0.1957
    168  OH        -5.4500   25.8430   60.8520 O.3   219  TYR219     -0.2866
@<TRIPOS>BOND
     1    79    76    1
     2    79    80    1
     3    75    76    1
     4    76    77    1
     5    69    70    2
     6    69    68    1
     7    68    67    1
     8    68    71    1
     9    77    81   am
    10    77    78    2
    11    81    82    1
    12    73    72    1
    13    72    71    1
    14    72    74    1
    15   113   111   ar
    16   113   115   ar
    17   111   110   ar
    18    84    83    2
    19    82    83    1
    20    98    99    1
    21    83    85   am
    22   123   122    1
    23   116   115    1
    24   115   114   ar
    25   105   106    1
    26   106   109    1
    27   106   107    1
    28   110   109    1
    29   110   112   ar
    30   100   101    2
    31   100    99    1
    32    93    94    2
    33    93    92    1
    34    99   102    1
    35   117   107   am
    36   117   118    1
    37   114   112   ar
    38   122   121    1
    39   122   124    1
    40    85    86    1
    41   121   118    1
    42   107   108    2
    43   120   119    2
    44    97    95    1
    45    92    91    1
    46    92    95    1
    47    91    87   am
    48   118   119    1
    49    95    96    1
    50    87    86    1
    51    87    88    2
    52   102   103    1
    53   102   104    1
    54    86    89    1
    55   119   125   am
    56    22    23    1
    57    89    90    1
    58   125   126    1
    59   129   126    1
    60   129   130    1
    61    23    24    1
    62    23    26    1
    63    24    25    2
    64    29    31   ar
    65    29    27   ar
    66   126   127    1
    67    26    27    1
    68    31    32   ar
    69   131   130    1
    70    66    64    1
    71     9     7   ar
    72   132   130    1
    73     8     7   ar
    74    27    28   ar
    75     7     6    1
    76   127   133   am
    77   127   128    2
    78    63    64    2
    79    63    62    1
    80    32    33    1
    81    32    30   ar
    82    64    65    1
    83   133   134    1
    84    28    30   ar
    85    61    62    1
    86    61    60    1
    87   154   155    1
    88   154   153    1
    89   141   139   ar
    90    56    57    1
    91   138   139    1
    92   138   137    1
    93     6     5    1
    94     2     5    1
    95     2     1    1
    96     2     3    1
    97   156   155    1
    98   139   140   ar
    99    57    60    1
   100    57    58    1
   101   134   137    1
   102   134   135    1
   103   153   150    1
   104    47    46    1
   105     3     4    2
   106   136   135    2
   107    58    59    2
   108   152   151    2
   109   151   150    1
   110    54    53    1
   111   150   149    1
   112    53    55    1
   113    53    50    1
   114    37    36    2
   115    46    48    1
   116    46    45    1
   117    52    51    2
   118    49    50    1
   119    49    43   am
   120    39    40    1
   121    39    38    1
   122   149   144   am
   123    42    45    1
   124    42    43    1
   125    42    41    1
   126   168   167    1
   127    50    51    1
   128    36    41   am
   129    36    35    1
   130    40    34    1
   131    38    35    1
   132    43    44    2
   133   165   167   ar
   134   165   163   ar
   135   147   146    1
   136    17    19   ar
   137    17    15   ar
   138   167   166   ar
   139    35    34    1
   140   144   145    2
   141   144   143    1
   142    19    20   ar
   143   142   143    1
   144   163   162   ar
   145    14    15    1
   146    14    11    1
   147    10    11    1
   148   143   146    1
   149    15    16   ar
   150   146   148    1
   151   166   164   ar
   152    20    21    1
   153    20    18   ar
   154    12    11    1
   155    12    13    2
   156   162   164   ar
   157   162   161    1
   158    16    18   ar
   159   161   158    1
   160   158   157    1
   161   158   159    1
   162   159   160    2
