@<TRIPOS>MOLECULE
tmp/3tzbB03.pdb
 80 75 0 0 0
SMALL
GASTEIGER

@<TRIPOS>ATOM
      1  N         15.4780   28.9300    7.5960 N.3    67  GLY67      -0.1225
      2  CA        15.3250   28.5870    8.9950 C.3    67  GLY67       0.1811
      3  C         14.8070   29.7760    9.7930 C.2    67  GLY67       0.2280
      4  O         13.8050   29.6650   10.4950 O.2    67  GLY67      -0.2866
      5  N         11.0980   31.0940    8.5920 N.3    70  THR70      -0.1218
      6  CA         9.9850   30.2410    8.9990 C.3    70  THR70       0.1862
      7  C          9.7760   30.2440   10.5200 C.2    70  THR70       0.2287
      8  O          8.6470   30.1540   10.9900 O.2    70  THR70      -0.2866
      9  CB        10.1330   28.7870    8.4910 C.3    70  THR70       0.1770
     10  OG1       11.3730   28.2410    8.9490 O.3    70  THR70      -0.2211
     11  CG2       10.0950   28.7430    6.9830 C.3    70  THR70       0.0375
     12  N         10.8420   18.8210    6.1640 N.3   116  ASP116     -0.1239
     13  CA        11.5820   20.0710    6.0630 C.3   116  ASP116      0.1674
     14  C         10.7010   21.2760    6.3780 C.2   116  ASP116      0.2266
     15  O         11.1670   22.2140    7.0170 O.2   116  ASP116     -0.2867
     16  CB        12.2190   20.2500    4.6760 C.3   116  ASP116      0.1410
     17  CG        13.3090   19.2300    4.3890 C.2   116  ASP116      0.3668
     18  OD1       13.7540   18.5480    5.3350 O.co2 116  ASP116     -0.2456
     19  OD2       13.7370   19.1340    3.2200 O.co2 116  ASP116     -0.2456
     20  N          7.9590   20.5860   10.2060 N.3   119  LEU119     -0.1231
     21  CA         8.6300   20.5400   11.5010 C.3   119  LEU119      0.1693
     22  C          9.5640   21.7340   11.7360 C.2   119  LEU119      0.2592
     23  O         10.7690   21.5520   11.9060 O.2   119  LEU119     -0.2718
     24  CB         9.4130   19.2350   11.6310 C.3   119  LEU119      0.0284
     25  CG         8.6700   17.9230   11.3420 C.3   119  LEU119      0.0019
     26  CD1        9.5690   16.7080   11.6270 C.3   119  LEU119      0.0001
     27  CD2        7.3820   17.8320   12.1450 C.3   119  LEU119      0.0001
     28  N          9.0170   22.9490   11.7550 N.am  120  CYS120     -0.1956
     29  CA         9.8620   24.1450   11.8660 C.3   120  CYS120      0.1843
     30  C         10.1780   24.5470   13.3110 C.2   120  CYS120      0.2625
     31  O          9.5460   24.0750   14.2590 O.2   120  CYS120     -0.2714
     32  CB         9.2280   25.3290   11.1270 C.3   120  CYS120      0.0997
     33  SG         7.7990   26.0570   11.9720 S.3   120  CYS120     -0.0797
     34  N         11.1570   25.4300   13.4680 N.am  121  GLN121     -0.1977
     35  CA        11.5080   25.9380   14.7900 C.3   121  GLN121      0.1601
     36  C         10.3650   26.7510   15.3870 C.2   121  GLN121      0.2287
     37  O          9.7040   27.5160   14.6860 O.2   121  GLN121     -0.2864
     38  CB        12.7820   26.7810   14.7450 C.3   121  GLN121      0.0394
     39  CG        13.3590   27.0860   16.1180 C.3   121  GLN121      0.0908
     40  CD        14.7720   27.6740   16.0600 C.2   121  GLN121      0.2608
     41  OE1       15.3860   27.7730   14.9880 O.2   121  GLN121     -0.2717
     42  NE2       15.2890   28.0670   17.2210 N.am  121  GLN121     -0.0878
     43  N         10.4530   22.1320   17.6080 N.3   125  PHE125     -0.1241
     44  CA        11.5920   22.2240   18.5090 C.3   125  PHE125      0.1605
     45  C         11.9470   23.6730   18.7640 C.2   125  PHE125      0.2264
     46  O         11.4220   24.5800   18.1190 O.2   125  PHE125     -0.2867
     47  CB        12.8090   21.5030   17.9170 C.3   125  PHE125      0.0534
     48  CG        13.4770   22.2640   16.8020 C.ar  125  PHE125     -0.0203
     49  CD1       14.5810   23.0650   17.0550 C.ar  125  PHE125     -0.0042
     50  CD2       12.9880   22.1930   15.5040 C.ar  125  PHE125     -0.0042
     51  CE1       15.1860   23.7790   16.0360 C.ar  125  PHE125     -0.0003
     52  CE2       13.5970   22.9150   14.4650 C.ar  125  PHE125     -0.0003
     53  CZ        14.6920   23.7000   14.7350 C.ar  125  PHE125     -0.0000
     54  N         15.6390   17.0850   21.2460 N.3   131  TYR131     -0.1241
     55  CA        15.7160   15.7220   21.7430 C.3   131  TYR131      0.1605
     56  C         14.7270   15.5410   22.9070 C.2   131  TYR131      0.2264
     57  O         13.5550   15.8620   22.7690 O.2   131  TYR131     -0.2867
     58  CB        17.1550   15.3040   22.0810 C.3   131  TYR131      0.0534
     59  CG        18.0180   15.1640   20.8430 C.ar  131  TYR131     -0.0201
     60  CD1       17.6590   14.2800   19.8270 C.ar  131  TYR131     -0.0009
     61  CD2       19.1790   15.9240   20.6780 C.ar  131  TYR131     -0.0009
     62  CE1       18.4240   14.1520   18.6770 C.ar  131  TYR131      0.0417
     63  CE2       19.9700   15.8010   19.5210 C.ar  131  TYR131      0.0417
     64  CZ        19.5780   14.9070   18.5290 C.ar  131  TYR131      0.1957
     65  OH        20.3170   14.7640   17.3830 O.3   131  TYR131     -0.2866
     66  N         17.6450   11.4130   14.3070 N.3   173  GLY173     -0.1225
     67  CA        17.9250   12.7310   13.7550 C.3   173  GLY173      0.1811
     68  C         16.7000   13.6160   13.6670 C.2   173  GLY173      0.2280
     69  O         16.7820   14.8280   13.8720 O.2   173  GLY173     -0.2866
     70  N         14.6110   14.1060   17.8480 N.3   177  PHE177     -0.1241
     71  CA        14.9880   15.5250   17.8980 C.3   177  PHE177      0.1605
     72  C         13.8230   16.4350   18.2830 C.2   177  PHE177      0.2264
     73  O         13.9930   17.4130   19.0340 O.2   177  PHE177     -0.2867
     74  CB        15.5740   15.9710   16.5510 C.3   177  PHE177      0.0534
     75  CG        16.1740   17.3460   16.5770 C.ar  177  PHE177     -0.0203
     76  CD1       17.5050   17.5260   16.8920 C.ar  177  PHE177     -0.0042
     77  CD2       15.4050   18.4520   16.2950 C.ar  177  PHE177     -0.0042
     78  CE1       18.0680   18.8060   16.9160 C.ar  177  PHE177     -0.0003
     79  CE2       15.9510   19.7320   16.3070 C.ar  177  PHE177     -0.0003
     80  CZ        17.2790   19.9150   16.6220 C.ar  177  PHE177     -0.0000
@<TRIPOS>BOND
     1    19    17   ar
     2    17    16    1
     3    17    18   ar
     4    16    13    1
     5    13    12    1
     6    13    14    1
     7    14    15    2
     8    11     9    1
     9     1     2    1
    10     9    10    1
    11     9     6    1
    12     5     6    1
    13     2     3    1
    14     6     7    1
    15     3     4    2
    16    20    21    1
    17     7     8    2
    18    32    29    1
    19    32    33    1
    20    25    26    1
    21    25    24    1
    22    25    27    1
    23    21    24    1
    24    21    22    1
    25    22    28   am
    26    22    23    2
    27    28    29    1
    28    29    30    1
    29    30    34   am
    30    30    31    2
    31    34    35    1
    32    68    67    1
    33    68    69    2
    34    67    66    1
    35    52    53   ar
    36    52    50   ar
    37    37    36    2
    38    53    51   ar
    39    38    35    1
    40    38    39    1
    41    35    36    1
    42    41    40    2
    43    50    48   ar
    44    51    49   ar
    45    40    39    1
    46    40    42   am
    47    77    79   ar
    48    77    75   ar
    49    79    80   ar
    50    74    75    1
    51    74    71    1
    52    75    76   ar
    53    80    78   ar
    54    48    49   ar
    55    48    47    1
    56    76    78   ar
    57    65    64    1
    58    43    44    1
    59    70    71    1
    60    71    72    1
    61    47    44    1
    62    46    45    2
    63    72    73    2
    64    44    45    1
    65    64    62   ar
    66    64    63   ar
    67    62    60   ar
    68    63    61   ar
    69    60    59   ar
    70    61    59   ar
    71    59    58    1
    72    54    55    1
    73    55    58    1
    74    55    56    1
    75    57    56    2
