@<TRIPOS>MOLECULE
tmp/3tzeA00.pdb
 144 139 0 0 0
SMALL
GASTEIGER

@<TRIPOS>ATOM
      1  N         22.1790   35.0870  -33.6030 N.3    66  TYR66      -0.1227
      2  CA        21.0090   34.3470  -34.0760 C.3    66  TYR66       0.1736
      3  C         21.0010   32.9990  -33.3980 C.2    66  TYR66       0.2596
      4  O         22.0270   32.3380  -33.3590 O.2    66  TYR66      -0.2718
      5  CB        21.0800   34.1630  -35.6030 C.3    66  TYR66       0.0548
      6  CG        20.2420   33.0410  -36.1970 C.ar   66  TYR66      -0.0200
      7  CD1       18.9630   32.7580  -35.7290 C.ar   66  TYR66      -0.0009
      8  CD2       20.7150   32.2960  -37.2760 C.ar   66  TYR66      -0.0009
      9  CE1       18.1950   31.7470  -36.2970 C.ar   66  TYR66       0.0417
     10  CE2       19.9590   31.2840  -37.8530 C.ar   66  TYR66       0.0417
     11  CZ        18.6960   31.0090  -37.3620 C.ar   66  TYR66       0.1957
     12  OH        17.9280   30.0040  -37.9280 O.3    66  TYR66      -0.2866
     13  N         19.8650   32.5870  -32.8590 N.am   67  THR67      -0.1939
     14  CA        19.7390   31.2050  -32.4310 C.3    67  THR67       0.2028
     15  C         18.3080   30.7050  -32.5750 C.2    67  THR67       0.2643
     16  O         17.4310   31.4350  -33.0380 O.2    67  THR67      -0.2714
     17  CB        20.3810   30.9100  -31.0430 C.3    67  THR67       0.1808
     18  OG1       20.6350   29.4970  -30.9190 O.3    67  THR67      -0.2208
     19  CG2       19.5210   31.4080  -29.8940 C.3    67  THR67       0.0379
     20  N         18.0700   29.4590  -32.2110 N.am   68  GLY68      -0.1939
     21  CA        16.7900   28.8780  -32.5170 C.3    68  GLY68       0.2014
     22  C         16.3500   27.8790  -31.5000 C.2    68  GLY68       0.2639
     23  O         17.1470   27.4000  -30.7140 O.2    68  GLY68      -0.2714
     24  N         15.0580   27.5840  -31.5220 N.am   69  ARG69      -0.1963
     25  CA        14.4670   26.5330  -30.7140 C.3    69  ARG69       0.1729
     26  C         13.3110   25.9590  -31.5210 C.2    69  ARG69       0.2616
     27  O         12.5040   26.6910  -32.0980 O.2    69  ARG69      -0.2715
     28  CB        14.0040   27.1000  -29.3640 C.3    69  ARG69       0.0348
     29  CG        12.9470   26.3210  -28.6000 C.3    69  ARG69       0.0492
     30  CD        13.5480   25.1880  -27.7890 C.3    69  ARG69       0.2205
     31  NE        12.5170   24.3520  -27.1580 N.pl3  69  ARG69      -0.0865
     32  CZ        12.6540   23.0530  -26.8900 C.cat  69  ARG69       0.5346
     33  NH1       13.7840   22.4140  -27.2040 N.pl3  69  ARG69       0.1354
     34  NH2       11.6580   22.3870  -26.3080 N.pl3  69  ARG69       0.1354
     35  N         13.2670   24.6400  -31.5980 N.am   70  GLY70      -0.1955
     36  CA        12.1070   23.9900  -32.1290 C.3    70  GLY70       0.1869
     37  C         11.2300   23.7490  -30.9300 C.2    70  GLY70       0.2309
     38  O         11.6830   23.1280  -29.9740 O.2    70  GLY70      -0.2863
     39  N         14.7060   32.3410  -33.7470 N.3   101  GLN101     -0.1245
     40  CA        13.7600   31.6270  -34.6050 C.3   101  GLN101      0.1566
     41  C         13.1160   30.4490  -33.8730 C.2   101  GLN101      0.2260
     42  O         13.7980   29.5240  -33.4330 O.2   101  GLN101     -0.2867
     43  CB        14.4680   31.1240  -35.8660 C.3   101  GLN101      0.0367
     44  CG        13.6160   30.3180  -36.8290 C.3   101  GLN101      0.0905
     45  CD        14.4370   29.8690  -38.0200 C.2   101  GLN101      0.2608
     46  OE1       15.2430   28.9330  -37.9120 O.2   101  GLN101     -0.2717
     47  NE2       14.2650   30.5520  -39.1620 N.am  101  GLN101     -0.0878
     48  N         11.0160   27.4040  -34.4520 N.3   103  THR103     -0.1218
     49  CA        10.7010   26.6260  -35.6410 C.3   103  THR103      0.1862
     50  C          9.4630   25.7610  -35.4370 C.2   103  THR103      0.2287
     51  O          9.5460   24.5240  -35.3970 O.2   103  THR103     -0.2866
     52  CB        11.9060   25.8110  -36.1450 C.3   103  THR103      0.1770
     53  OG1       12.2820   24.8470  -35.1580 O.3   103  THR103     -0.2211
     54  CG2       13.0660   26.7360  -36.4640 C.3   103  THR103      0.0375
     55  N          9.0680   23.5860  -38.5130 N.3   106  GLU106     -0.1231
     56  CA         9.9160   22.3880  -38.4940 C.3   106  GLU106      0.1699
     57  C          9.2840   21.2970  -37.6460 C.2   106  GLU106      0.2592
     58  O          9.1550   20.1670  -38.0920 O.2   106  GLU106     -0.2718
     59  CB        11.3440   22.7260  -37.9980 C.3   106  GLU106      0.0402
     60  CG        12.2580   21.5500  -37.5990 C.3   106  GLU106      0.1161
     61  CD        13.6570   21.9860  -37.0890 C.2   106  GLU106      0.3649
     62  OE1       13.8120   23.1230  -36.5380 O.co2 106  GLU106     -0.2457
     63  OE2       14.6230   21.1810  -37.2390 O.co2 106  GLU106     -0.2457
     64  N          8.8960   21.6410  -36.4230 N.am  107  LYS107     -0.1980
     65  CA         8.2660   20.6660  -35.5350 C.3   107  LYS107      0.1599
     66  C          6.9620   20.1360  -36.1430 C.2   107  LYS107      0.2287
     67  O          6.6280   18.9510  -35.9710 O.2   107  LYS107     -0.2864
     68  CB         8.0470   21.2420  -34.1260 C.3   107  LYS107      0.0344
     69  CG         9.3300   21.4990  -33.3620 C.3   107  LYS107      0.0297
     70  CD        10.2180   20.3120  -33.1920 C.2   107  LYS107     -0.0067
     71  CE        11.5380   20.4330  -32.6270 C.2   107  LYS107      0.1012
     72  NZ        12.2970   19.1820  -32.5320 N.pl3 107  LYS107     -0.1270
     73  N         16.0350   27.9700  -42.0440 N.3   188  GLU188     -0.1245
     74  CA        16.9070   28.0390  -40.9040 C.3   188  GLU188      0.1567
     75  C         18.1650   28.8480  -41.2940 C.2   188  GLU188      0.2260
     76  O         18.7350   29.5770  -40.4840 O.2   188  GLU188     -0.2867
     77  CB        17.2210   26.6390  -40.3630 C.3   188  GLU188      0.0388
     78  CG        18.3340   26.6620  -39.3340 C.3   188  GLU188      0.1160
     79  CD        18.2510   25.5680  -38.2790 C.2   188  GLU188      0.3649
     80  OE1       17.3060   24.7320  -38.2930 O.co2 188  GLU188     -0.2457
     81  OE2       19.1560   25.5560  -37.4120 O.co2 188  GLU188     -0.2457
     82  N         26.2220   32.7220  -34.7440 N.3   208  VAL208     -0.1231
     83  CA        25.2450   31.7270  -34.3330 C.3   208  VAL208      0.1678
     84  C         25.8040   30.8340  -33.2420 C.2   208  VAL208      0.2434
     85  O         26.6720   29.9810  -33.4940 O.2   208  VAL208     -0.2733
     86  CB        24.7630   30.8540  -35.5080 C.3   208  VAL208      0.0265
     87  CG1       23.6560   29.9120  -35.0470 C.3   208  VAL208      0.0020
     88  CG2       24.2790   31.7230  -36.6490 C.3   208  VAL208      0.0020
     89  N         25.3320   31.0420  -32.0170 N.am  209  PRO209     -0.2718
     90  CA        25.5560   30.1170  -30.9120 C.3   209  PRO209      0.1535
     91  C         24.6580   28.9000  -31.0920 C.2   209  PRO209      0.2598
     92  O         23.4250   29.0360  -31.2430 O.2   209  PRO209     -0.2715
     93  CB        25.1210   30.9220  -29.6930 C.3   209  PRO209      0.0310
     94  CG        25.3380   32.3330  -30.1140 C.3   209  PRO209      0.0237
     95  CD        24.8790   32.3480  -31.5430 C.3   209  PRO209      0.0939
     96  N         25.2690   27.7260  -31.0890 N.am  210  ALA210     -0.1964
     97  CA        24.5590   26.5320  -31.4490 C.3   210  ALA210      0.1728
     98  C         25.1690   25.2770  -30.8710 C.2   210  ALA210      0.2616
     99  O         26.3360   25.2290  -30.4800 O.2   210  ALA210     -0.2715
    100  CB        24.4620   26.4080  -32.9650 C.3   210  ALA210      0.0334
    101  N         24.3020   24.2750  -30.7850 N.am  211  ALA211     -0.1977
    102  CA        24.6730   22.8930  -30.6820 C.3   211  ALA211      0.1597
    103  C         25.4050   22.5850  -31.9730 C.2   211  ALA211      0.2287
    104  O         24.9740   23.0240  -33.0370 O.2   211  ALA211     -0.2864
    105  CB        23.4070   22.0410  -30.5760 C.3   211  ALA211      0.0319
    106  N         23.8300   21.4200  -35.2410 N.3   214  GLN214     -0.1245
    107  CA        23.2860   22.4520  -36.1300 C.3   214  GLN214      0.1566
    108  C         24.2820   22.9300  -37.2110 C.2   214  GLN214      0.2260
    109  O         23.9020   23.6900  -38.1120 O.2   214  GLN214     -0.2867
    110  CB        22.7420   23.6480  -35.3140 C.3   214  GLN214      0.0367
    111  CG        21.5290   23.3550  -34.4350 C.3   214  GLN214      0.0905
    112  CD        20.3570   22.7930  -35.2280 C.2   214  GLN214      0.2608
    113  OE1       19.7630   23.4890  -36.0540 O.2   214  GLN214     -0.2717
    114  NE2       20.0310   21.5260  -34.9940 N.am  214  GLN214     -0.0878
    115  N         23.6330   23.2370  -41.1850 N.3   217  PHE217     -0.1227
    116  CA        22.9350   24.4720  -41.6110 C.3   217  PHE217      0.1736
    117  C         23.9090   25.6310  -41.8470 C.2   217  PHE217      0.2595
    118  O         23.7820   26.3500  -42.8430 O.2   217  PHE217     -0.2718
    119  CB        21.8110   24.9050  -40.6520 C.3   217  PHE217      0.0547
    120  CG        20.6730   23.9310  -40.5780 C.ar  217  PHE217     -0.0202
    121  CD1       19.6100   24.0040  -41.4800 C.ar  217  PHE217     -0.0042
    122  CD2       20.6650   22.9120  -39.6130 C.ar  217  PHE217     -0.0042
    123  CE1       18.5540   23.0860  -41.4140 C.ar  217  PHE217     -0.0003
    124  CE2       19.6170   21.9820  -39.5460 C.ar  217  PHE217     -0.0003
    125  CZ        18.5600   22.0750  -40.4490 C.ar  217  PHE217     -0.0000
    126  N         24.8910   25.7980  -40.9630 N.am  218  PHE218     -0.1976
    127  CA        25.8030   26.9500  -41.0470 C.3   218  PHE218      0.1639
    128  C         26.9830   26.7630  -42.0150 C.2   218  PHE218      0.2290
    129  O         27.3520   27.7030  -42.7360 O.2   218  PHE218     -0.2864
    130  CB        26.2140   27.4440  -39.6330 C.3   218  PHE218      0.0560
    131  CG        25.0580   27.4510  -38.6580 C.ar  218  PHE218     -0.0200
    132  CD1       23.8710   28.1530  -38.9610 C.ar  218  PHE218     -0.0042
    133  CD2       25.1090   26.7050  -37.4800 C.ar  218  PHE218     -0.0042
    134  CE1       22.7750   28.1170  -38.1000 C.ar  218  PHE218     -0.0003
    135  CE2       24.0230   26.6720  -36.6190 C.ar  218  PHE218     -0.0003
    136  CZ        22.8550   27.3680  -36.9260 C.ar  218  PHE218     -0.0000
    137  N         20.0190   17.1850  -27.0930 N.3   251  MET251     -0.1245
    138  CA        19.0130   18.1900  -26.7370 C.3   251  MET251      0.1570
    139  C         17.7040   17.4630  -26.4140 C.2   251  MET251      0.2261
    140  O         16.9060   17.9430  -25.6120 O.2   251  MET251     -0.2867
    141  CB        18.8260   19.2180  -27.8620 C.3   251  MET251      0.0387
    142  CG        20.0530   20.0260  -28.1330 C.3   251  MET251      0.0595
    143  SD        19.7890   21.2160  -29.4650 S.3   251  MET251     -0.1393
    144  CE        18.4270   22.2040  -28.8930 C.3   251  MET251      0.0692
@<TRIPOS>BOND
     1   118   117    2
     2   129   128    2
     3    73    74    1
     4   128   127    1
     5   117   116    1
     6   117   126   am
     7   116   115    1
     8   116   119    1
     9   121   123   ar
    10   121   120   ar
    11   123   125   ar
    12    75    74    1
    13    75    76    2
    14   127   126    1
    15   127   130    1
    16    74    77    1
    17   119   120    1
    18   120   122   ar
    19   125   124   ar
    20    77    78    1
    21   130   131    1
    22   122   124   ar
    23    78    79    1
    24    47    45   am
    25   132   131   ar
    26   132   134   ar
    27   131   133   ar
    28    55    56    1
    29    56    59    1
    30    56    57    1
    31    80    79   ar
    32    79    81   ar
    33   109   108    2
    34   134   136   ar
    35    58    57    2
    36    45    46    2
    37    45    44    1
    38    59    60    1
    39    12    11    1
    40    10    11   ar
    41    10     8   ar
    42    57    64   am
    43    60    61    1
    44   133   135   ar
    45    11     9   ar
    46     8     6   ar
    47    63    61   ar
    48   108   107    1
    49    61    62   ar
    50   136   135   ar
    51    44    43    1
    52    88    86    1
    53    54    52    1
    54    64    65    1
    55     9     7   ar
    56     6     7   ar
    57     6     5    1
    58    52    49    1
    59    52    53    1
    60    66    67    2
    61    66    65    1
    62   107   110    1
    63   107   106    1
    64   113   112    2
    65    43    40    1
    66    49    50    1
    67    49    48    1
    68     5     2    1
    69    65    68    1
    70    86    87    1
    71    86    83    1
    72    50    51    2
    73   110   111    1
    74   112   114   am
    75   112   111    1
    76    82    83    1
    77    40    41    1
    78    40    39    1
    79    83    84    1
    80    68    69    1
    81     2     1    1
    82     2     3    1
    83    41    42    2
    84    85    84    2
    85     3     4    2
    86     3    13   am
    87    69    70    1
    88    84    89   am
    89    70    71    2
    90    16    15    2
    91   104   103    2
    92   100    97    1
    93    13    14    1
    94    71    72    1
    95    15    14    1
    96    15    20   am
    97    21    20    1
    98    21    22    1
    99    14    17    1
   100    36    35    1
   101    36    37    1
   102    27    26    2
   103    89    95    1
   104    89    90    1
   105   103   102    1
   106    35    26   am
   107    95    94    1
   108    24    22   am
   109    24    25    1
   110    26    25    1
   111    22    23    2
   112    97    96    1
   113    97    98    1
   114    92    91    2
   115    91    96   am
   116    91    90    1
   117    17    18    1
   118    17    19    1
   119    37    38    2
   120    90    93    1
   121    98   101   am
   122    98    99    2
   123   101   102    1
   124    25    28    1
   125   102   105    1
   126    94    93    1
   127   143   144    1
   128   143   142    1
   129    28    29    1
   130    29    30    1
   131   142   141    1
   132   141   138    1
   133    30    31    1
   134    33    32    1
   135    31    32    2
   136   137   138    1
   137    32    34    1
   138   138   139    1
   139   139   140    2
