@<TRIPOS>MOLECULE
tmp/3tzfB01.pdb
 102 99 0 0 0
SMALL
GASTEIGER

@<TRIPOS>ATOM
      1  N         27.9150   -8.5910   11.2400 N.3    28  PHE28      -0.1241
      2  CA        28.8970   -7.7740   11.9730 C.3    28  PHE28       0.1605
      3  C         28.7570   -7.7490   13.5060 C.2    28  PHE28       0.2264
      4  O         29.7340   -7.4870   14.2100 O.2    28  PHE28      -0.2867
      5  CB        28.9450   -6.3410   11.4140 C.3    28  PHE28       0.0534
      6  CG        27.9570   -5.4000   12.0500 C.ar   28  PHE28      -0.0203
      7  CD1       28.3510   -4.5570   13.0870 C.ar   28  PHE28      -0.0042
      8  CD2       26.6380   -5.3510   11.6140 C.ar   28  PHE28      -0.0042
      9  CE1       27.4430   -3.6840   13.6820 C.ar   28  PHE28      -0.0003
     10  CE2       25.7220   -4.4790   12.2040 C.ar   28  PHE28      -0.0003
     11  CZ        26.1280   -3.6450   13.2420 C.ar   28  PHE28      -0.0000
     12  N         25.9300   -7.6700    4.6190 N.3    62  THR62      -0.1203
     13  CA        26.3030   -6.6390    3.6550 C.3    62  THR62       0.1994
     14  C         27.2230   -5.5960    4.2910 C.2    62  THR62       0.2618
     15  O         27.3340   -4.4650    3.8040 O.2    62  THR62      -0.2717
     16  CB        25.0590   -5.9590    3.0300 C.3    62  THR62       0.1784
     17  OG1       24.1940   -5.4780    4.0700 O.3    62  THR62      -0.2211
     18  CG2       24.2950   -6.9380    2.1290 C.3    62  THR62       0.0376
     19  N         27.8830   -5.9930    5.3790 N.am   63  ARG63      -0.1965
     20  CA        28.8490   -5.1470    6.0850 C.3    63  ARG63       0.1714
     21  C         30.0330   -4.8280    5.1650 C.2    63  ARG63       0.2458
     22  O         30.3000   -5.5950    4.2350 O.2    63  ARG63      -0.2730
     23  CB        29.3290   -5.8440    7.3690 C.3    63  ARG63       0.0347
     24  CG        30.3520   -6.9530    7.1370 C.3    63  ARG63       0.0492
     25  CD        30.4350   -7.9250    8.3000 C.3    63  ARG63       0.2205
     26  NE        31.5630   -8.8510    8.1480 N.pl3  63  ARG63      -0.0865
     27  CZ        31.5460   -9.9590    7.4060 C.cat  63  ARG63       0.5346
     28  NH1       30.4540  -10.3020    6.7320 N.pl3  63  ARG63       0.1354
     29  NH2       32.6280  -10.7270    7.3370 N.pl3  63  ARG63       0.1354
     30  N         30.7370   -3.6980    5.4110 N.am   64  PRO64      -0.2727
     31  CA        31.9290   -3.3670    4.6200 C.3    64  PRO64       0.1402
     32  C         32.8990   -4.5430    4.5920 C.2    64  PRO64       0.2269
     33  O         33.3090   -5.0290    5.6500 O.2    64  PRO64      -0.2865
     34  CB        32.5400   -2.1860    5.3790 C.3    64  PRO64       0.0296
     35  CG        31.3930   -1.5530    6.0650 C.3    64  PRO64       0.0237
     36  CD        30.4450   -2.6580    6.4170 C.3    64  PRO64       0.0939
     37  N         32.3490    0.5800   -0.3620 N.3   146  MET146     -0.1230
     38  CA        31.5220    1.7260    0.0330 C.3   146  MET146      0.1702
     39  C         32.2020    2.6280    1.0670 C.2   146  MET146      0.2592
     40  O         32.0390    3.8500    1.0310 O.2   146  MET146     -0.2718
     41  CB        30.1290    1.2840    0.5100 C.3   146  MET146      0.0401
     42  CG        30.0950    0.3460    1.7140 C.3   146  MET146      0.0596
     43  SD        28.4290   -0.2960    1.9790 S.3   146  MET146     -0.1393
     44  CE        28.6430   -1.2030    3.5130 C.3   146  MET146      0.0692
     45  N         32.9760    2.0230    1.9660 N.am  147  GLN147     -0.1979
     46  CA        33.6550    2.7680    3.0270 C.3   147  GLN147      0.1601
     47  C         35.0580    3.2550    2.6530 C.2   147  GLN147      0.2287
     48  O         35.7810    3.7730    3.5080 O.2   147  GLN147     -0.2864
     49  CB        33.6810    1.9660    4.3370 C.3   147  GLN147      0.0394
     50  CG        32.3180    1.8520    5.0310 C.3   147  GLN147      0.0908
     51  CD        31.5580    3.1720    5.0920 C.2   147  GLN147      0.2608
     52  OE1       30.5270    3.3360    4.4380 O.2   147  GLN147     -0.2717
     53  NE2       32.0700    4.1190    5.8710 N.am  147  GLN147     -0.0878
     54  N         25.4730    4.1670    7.4770 N.3   187  GLY187     -0.1210
     55  CA        26.6810    3.3440    7.3960 C.3   187  GLY187      0.1956
     56  C         26.9880    2.7380    6.0320 C.2   187  GLY187      0.2611
     57  O         27.9750    2.0040    5.8890 O.2   187  GLY187     -0.2717
     58  N         26.1500    3.0320    5.0330 N.am  188  PHE188     -0.1976
     59  CA        26.3340    2.4830    3.6820 C.3   188  PHE188      0.1639
     60  C         26.9280    3.5280    2.7350 C.2   188  PHE188      0.2290
     61  O         26.1980    4.3050    2.1050 O.2   188  PHE188     -0.2864
     62  CB        25.0130    1.9370    3.1190 C.3   188  PHE188      0.0560
     63  CG        24.5550    0.6430    3.7550 C.ar  188  PHE188     -0.0200
     64  CD1       25.0270   -0.5830    3.2910 C.ar  188  PHE188     -0.0042
     65  CD2       23.6340    0.6550    4.8040 C.ar  188  PHE188     -0.0042
     66  CE1       24.5970   -1.7850    3.8700 C.ar  188  PHE188     -0.0003
     67  CE2       23.1900   -0.5330    5.3870 C.ar  188  PHE188     -0.0003
     68  CZ        23.6730   -1.7580    4.9180 C.ar  188  PHE188     -0.0000
     69  N         25.6920    0.0800   14.8510 N.3   219  LYS219     -0.1231
     70  CA        26.5830    0.4080   13.7330 C.3   219  LYS219      0.1693
     71  C         27.8040    1.2100   14.1640 C.2   219  LYS219      0.2593
     72  O         27.8380    1.7520   15.2730 O.2   219  LYS219     -0.2718
     73  CB        25.8180    1.1180   12.6070 C.3   219  LYS219      0.0285
     74  CG        25.0680    0.1460   11.7080 C.3   219  LYS219      0.0035
     75  CD        24.4680    0.8260   10.4900 C.3   219  LYS219      0.0206
     76  CE        23.8110   -0.2130    9.5980 C.3   219  LYS219      0.1093
     77  NZ        22.7750    0.3760    8.7120 N.3   219  LYS219     -0.1314
     78  N         28.8020    1.2790   13.2800 N.am  220  SER220     -0.1938
     79  CA        30.0350    2.0160   13.5490 C.3   220  SER220      0.2055
     80  C         29.7940    3.4950   13.8900 C.2   220  SER220      0.2642
     81  O         30.5810    4.0940   14.6180 O.2   220  SER220     -0.2714
     82  CB        31.0170    1.8840   12.3780 C.3   220  SER220      0.2130
     83  OG        30.5110    2.5390   11.2250 O.3   220  SER220     -0.2179
     84  N         28.7070    4.0830   13.3910 N.am  221  MET221     -0.1976
     85  CA        28.3890    5.4770   13.7490 C.3   221  MET221      0.1605
     86  C         28.2180    5.6520   15.2580 C.2   221  MET221      0.2287
     87  O         28.4520    6.7340   15.7920 O.2   221  MET221     -0.2864
     88  CB        27.1710    6.0150   12.9900 C.3   221  MET221      0.0413
     89  CG        25.8480    5.3330   13.2810 C.3   221  MET221      0.0598
     90  SD        24.4930    6.0600   12.3310 S.3   221  MET221     -0.1393
     91  CE        24.1170    7.5520   13.2520 C.3   221  MET221      0.0692
     92  N         26.5210   -1.5250   22.3980 N.3   233  ARG233     -0.1245
     93  CA        26.0910   -0.3020   21.7330 C.3   233  ARG233      0.1563
     94  C         24.5920   -0.0690   21.8550 C.2   233  ARG233      0.2260
     95  O         24.0160    0.6970   21.0860 O.2   233  ARG233     -0.2867
     96  CB        26.5230   -0.3090   20.2590 C.3   233  ARG233      0.0307
     97  CG        28.0280   -0.2790   20.0810 C.3   233  ARG233      0.0489
     98  CD        28.4650   -0.3700   18.6130 C.3   233  ARG233      0.2205
     99  NE        29.8950   -0.6800   18.5340 N.pl3 233  ARG233     -0.0865
    100  CZ        30.5630   -1.0050   17.4260 C.cat 233  ARG233      0.5346
    101  NH1       31.8640   -1.2740   17.5000 N.pl3 233  ARG233      0.1354
    102  NH2       29.9550   -1.0640   16.2490 N.pl3 233  ARG233      0.1354
@<TRIPOS>BOND
     1    37    38    1
     2    38    41    1
     3    38    39    1
     4    41    42    1
     5    40    39    2
     6    39    45   am
     7    42    43    1
     8    45    46    1
     9    43    44    1
    10    61    60    2
    11    18    16    1
    12    47    46    1
    13    47    48    2
    14    60    59    1
    15    46    49    1
    16    16    13    1
    17    16    17    1
    18    62    59    1
    19    62    63    1
    20    64    63   ar
    21    64    66   ar
    22    13    14    1
    23    13    12    1
    24    59    58    1
    25    63    65   ar
    26    15    14    2
    27    66    68   ar
    28    22    21    2
    29    14    19   am
    30    49    50    1
    31    52    51    2
    32    32    31    1
    33    32    33    2
    34    31    34    1
    35    31    30    1
    36    65    67   ar
    37    68    67   ar
    38    50    51    1
    39    58    56   am
    40    51    53   am
    41    21    30   am
    42    21    20    1
    43    19    20    1
    44    34    35    1
    45    30    36    1
    46    57    56    2
    47    56    55    1
    48    35    36    1
    49    20    23    1
    50    28    27    1
    51    24    23    1
    52    24    25    1
    53    29    27    1
    54    55    54    1
    55    27    26    2
    56    26    25    1
    57    77    76    1
    58    76    75    1
    59    75    74    1
    60    83    82    1
    61     1     2    1
    62     5     2    1
    63     5     6    1
    64     8     6   ar
    65     8    10   ar
    66    74    73    1
    67     2     3    1
    68     6     7   ar
    69    10    11   ar
    70    90    91    1
    71    90    89    1
    72    82    79    1
    73    73    70    1
    74    88    89    1
    75    88    85    1
    76     7     9   ar
    77    11     9   ar
    78    78    79    1
    79    78    71   am
    80    84    85    1
    81    84    80   am
    82     3     4    2
    83    79    80    1
    84    70    71    1
    85    70    69    1
    86    85    86    1
    87    80    81    2
    88    71    72    2
    89    86    87    2
    90   102   100    1
    91   100   101    1
    92   100    99    2
    93    99    98    1
    94    98    97    1
    95    97    96    1
    96    96    93    1
    97    95    94    2
    98    93    94    1
    99    93    92    1
