@<TRIPOS>MOLECULE
tmp/3tzfB00.pdb
 190 175 0 0 0
SMALL
GASTEIGER

@<TRIPOS>ATOM
      1  N         15.6630   -7.5380   13.9760 N.3    20  ILE20      -0.1245
      2  CA        16.6430   -8.1550   13.0670 C.3    20  ILE20       0.1561
      3  C         16.8480   -9.6370   13.3820 C.2    20  ILE20       0.2260
      4  O         17.1990  -10.0040   14.5050 O.2    20  ILE20      -0.2867
      5  CB        18.0110   -7.4170   13.1050 C.3    20  ILE20       0.0252
      6  CG1       17.8630   -5.9870   12.5830 C.3    20  ILE20       0.0019
      7  CG2       19.0750   -8.1670   12.2950 C.3    20  ILE20       0.0019
      8  CD1       18.9980   -5.0600   12.9800 C.3    20  ILE20       0.0001
      9  N         19.2280  -12.1860   11.7260 N.3    22  ASN22      -0.1240
     10  CA        20.3060  -12.6210   10.8380 C.3    22  ASN22       0.1653
     11  C         20.4110  -14.1450   10.8440 C.2    22  ASN22       0.2266
     12  O         20.4330  -14.7660   11.9110 O.2    22  ASN22      -0.2867
     13  CB        21.6510  -12.0100   11.2580 C.3    22  ASN22       0.1155
     14  CG        21.7710  -10.5310   10.9050 C.2    22  ASN22       0.2627
     15  OD1       21.5520  -10.1290    9.7620 O.2    22  ASN22      -0.2716
     16  ND2       22.1440   -9.7180   11.8870 N.am   22  ASN22      -0.0877
     17  N         27.5190  -12.0010   10.0900 N.3    27  SER27      -0.1202
     18  CA        26.9630  -10.6710   10.3770 C.3    27  SER27       0.2020
     19  C         27.8140   -9.9100   11.4070 C.2    27  SER27       0.2618
     20  O         28.3660  -10.5120   12.3260 O.2    27  SER27      -0.2717
     21  CB        25.5020  -10.7690   10.8210 C.3    27  SER27       0.2103
     22  OG        24.6570  -11.0680    9.7160 O.3    27  SER27      -0.2182
     23  N         27.9150   -8.5910   11.2400 N.am   28  PHE28      -0.1975
     24  CA        28.8970   -7.7740   11.9730 C.3    28  PHE28       0.1639
     25  C         28.7570   -7.7490   13.5060 C.2    28  PHE28       0.2290
     26  O         29.7340   -7.4870   14.2100 O.2    28  PHE28      -0.2864
     27  CB        28.9450   -6.3410   11.4140 C.3    28  PHE28       0.0560
     28  CG        27.9570   -5.4000   12.0500 C.ar   28  PHE28      -0.0200
     29  CD1       28.3510   -4.5570   13.0870 C.ar   28  PHE28      -0.0042
     30  CD2       26.6380   -5.3510   11.6140 C.ar   28  PHE28      -0.0042
     31  CE1       27.4430   -3.6840   13.6820 C.ar   28  PHE28      -0.0003
     32  CE2       25.7220   -4.4790   12.2040 C.ar   28  PHE28      -0.0003
     33  CZ        26.1280   -3.6450   13.2420 C.ar   28  PHE28      -0.0000
     34  N         26.2420  -10.1630   15.2220 N.3    30  ASP30      -0.1239
     35  CA        25.6090  -11.4000   15.7010 C.3    30  ASP30       0.1674
     36  C         25.7150  -12.6050   14.7500 C.2    30  ASP30       0.2266
     37  O         24.8610  -13.5010   14.7730 O.2    30  ASP30      -0.2867
     38  CB        24.1390  -11.1340   16.0840 C.3    30  ASP30       0.1410
     39  CG        23.3030  -10.6030   14.9200 C.2    30  ASP30       0.3668
     40  OD1       23.7860  -10.5970   13.7660 O.co2  30  ASP30      -0.2456
     41  OD2       22.1490  -10.1880   15.1660 O.co2  30  ASP30      -0.2456
     42  N         22.2240  -12.6380    3.9770 N.3    60  GLU60      -0.1231
     43  CA        23.4590  -12.1060    3.4080 C.3    60  GLU60       0.1699
     44  C         23.9510  -10.8970    4.1940 C.2    60  GLU60       0.2593
     45  O         23.2990   -9.8450    4.2100 O.2    60  GLU60      -0.2718
     46  CB        23.2490  -11.7260    1.9370 C.3    60  GLU60       0.0402
     47  CG        24.4960  -11.1740    1.2380 C.3    60  GLU60       0.1161
     48  CD        24.1680  -10.1870    0.1270 C.2    60  GLU60       0.3649
     49  OE1       23.0390   -9.6500    0.1080 O.co2  60  GLU60      -0.2457
     50  OE2       25.0450   -9.9400   -0.7260 O.co2  60  GLU60      -0.2457
     51  N         25.0980  -11.0490    4.8520 N.am   61  SER61      -0.1938
     52  CA        25.7460   -9.9190    5.5050 C.3    61  SER61       0.2055
     53  C         26.2250   -8.9520    4.4290 C.2    61  SER61       0.2644
     54  O         26.8220   -9.3660    3.4320 O.2    61  SER61      -0.2714
     55  CB        26.9120  -10.3870    6.3800 C.3    61  SER61       0.2130
     56  OG        27.6560   -9.2910    6.8840 O.3    61  SER61      -0.2179
     57  N         25.9300   -7.6700    4.6190 N.am   62  THR62      -0.1936
     58  CA        26.3030   -6.6390    3.6550 C.3    62  THR62       0.2028
     59  C         27.2230   -5.5960    4.2910 C.2    62  THR62       0.2642
     60  O         27.3340   -4.4650    3.8040 O.2    62  THR62      -0.2714
     61  CB        25.0590   -5.9590    3.0300 C.3    62  THR62       0.1808
     62  OG1       24.1940   -5.4780    4.0700 O.3    62  THR62      -0.2208
     63  CG2       24.2950   -6.9380    2.1290 C.3    62  THR62       0.0379
     64  N         27.8830   -5.9930    5.3790 N.am   63  ARG63      -0.1977
     65  CA        28.8490   -5.1470    6.0850 C.3    63  ARG63       0.1597
     66  C         30.0330   -4.8280    5.1650 C.2    63  ARG63       0.2287
     67  O         30.3000   -5.5950    4.2350 O.2    63  ARG63      -0.2864
     68  CB        29.3290   -5.8440    7.3690 C.3    63  ARG63       0.0334
     69  CG        30.3520   -6.9530    7.1370 C.3    63  ARG63       0.0492
     70  CD        30.4350   -7.9250    8.3000 C.3    63  ARG63       0.2205
     71  NE        31.5630   -8.8510    8.1480 N.pl3  63  ARG63      -0.0865
     72  CZ        31.5460   -9.9590    7.4060 C.cat  63  ARG63       0.5346
     73  NH1       30.4540  -10.3020    6.7320 N.pl3  63  ARG63       0.1354
     74  NH2       32.6280  -10.7270    7.3370 N.pl3  63  ARG63       0.1354
     75  N         15.3910   -9.3890    4.0020 N.3    94  ASP94      -0.1239
     76  CA        16.5360   -8.5480    3.6940 C.3    94  ASP94       0.1674
     77  C         17.3730   -9.2480    2.6280 C.2    94  ASP94       0.2266
     78  O         18.3490   -9.9360    2.9320 O.2    94  ASP94      -0.2867
     79  CB        17.3480   -8.2960    4.9680 C.3    94  ASP94       0.1410
     80  CG        18.4340   -7.2510    4.7890 C.2    94  ASP94       0.3668
     81  OD1       18.6910   -6.8050    3.6470 O.co2  94  ASP94      -0.2456
     82  OD2       19.0410   -6.8760    5.8140 O.co2  94  ASP94      -0.2456
     83  N         12.7890   -6.0230    1.7640 N.3   113  ASN113     -0.1240
     84  CA        13.8030   -5.1010    2.2530 C.3   113  ASN113      0.1653
     85  C         15.0780   -5.3010    1.4410 C.2   113  ASN113      0.2266
     86  O         15.8380   -6.2420    1.6850 O.2   113  ASN113     -0.2867
     87  CB        14.0420   -5.3360    3.7540 C.3   113  ASN113      0.1155
     88  CG        15.1710   -4.4780    4.3270 C.2   113  ASN113      0.2627
     89  OD1       15.4640   -3.3850    3.8330 O.2   113  ASN113     -0.2716
     90  ND2       15.8030   -4.9770    5.3950 N.am  113  ASN113     -0.0877
     91  N         18.6020   -3.6760    0.2440 N.3   115  ILE115     -0.1245
     92  CA        19.6700   -2.6860    0.4110 C.3   115  ILE115      0.1561
     93  C         20.2500   -2.2210   -0.9350 C.2   115  ILE115      0.2260
     94  O         20.9280   -1.1920   -1.0040 O.2   115  ILE115     -0.2867
     95  CB        20.8040   -3.1920    1.3720 C.3   115  ILE115      0.0252
     96  CG1       21.6310   -4.3240    0.7450 C.3   115  ILE115      0.0019
     97  CG2       20.2320   -3.5900    2.7360 C.3   115  ILE115      0.0019
     98  CD1       23.0110   -3.8790    0.2410 C.3   115  ILE115      0.0001
     99  N         11.0570   -1.8220    0.3980 N.3   135  CYS135     -0.1235
    100  CA        11.9070   -0.7960    0.9790 C.3   135  CYS135      0.1677
    101  C         13.1100   -0.5730    0.0750 C.2   135  CYS135      0.2270
    102  O         13.8340   -1.5140   -0.2540 O.2   135  CYS135     -0.2867
    103  CB        12.3610   -1.1830    2.3910 C.3   135  CYS135      0.0956
    104  SG        13.3320    0.1030    3.2110 S.3   135  CYS135     -0.0801
    105  N         16.7100    1.2580   -0.3720 N.3   137  MET137     -0.1245
    106  CA        17.7600    1.8240    0.4640 C.3   137  MET137      0.1570
    107  C         18.8430    2.5480   -0.3310 C.2   137  MET137      0.2261
    108  O         19.3170    2.0440   -1.3420 O.2   137  MET137     -0.2867
    109  CB        18.3760    0.7520    1.3670 C.3   137  MET137      0.0387
    110  CG        19.1240    1.3300    2.5580 C.3   137  MET137      0.0595
    111  SD        20.2880    0.1920    3.3390 S.3   137  MET137     -0.1393
    112  CE        21.6050    0.2070    2.1210 C.3   137  MET137      0.0692
    113  N         14.6880    4.1920    2.9250 N.3   183  ASP183     -0.1239
    114  CA        15.7080    4.0460    3.9590 C.3   183  ASP183      0.1674
    115  C         16.9950    4.7150    3.4710 C.2   183  ASP183      0.2266
    116  O         17.5740    4.2710    2.4860 O.2   183  ASP183     -0.2867
    117  CB        15.9550    2.5590    4.2480 C.3   183  ASP183      0.1410
    118  CG        16.9640    2.3280    5.3730 C.2   183  ASP183      0.3668
    119  OD1       17.8650    3.1650    5.5860 O.co2 183  ASP183     -0.2456
    120  OD2       16.8600    1.2870    6.0460 O.co2 183  ASP183     -0.2456
    121  N         22.0220    4.2740    6.6760 N.3   186  PHE186     -0.1241
    122  CA        23.0980    4.6490    7.5840 C.3   186  PHE186      0.1605
    123  C         24.2480    3.6470    7.4990 C.2   186  PHE186      0.2264
    124  O         24.0210    2.4370    7.4410 O.2   186  PHE186     -0.2867
    125  CB        22.5790    4.7280    9.0200 C.3   186  PHE186      0.0534
    126  CG        21.6890    5.9070    9.2790 C.ar  186  PHE186     -0.0203
    127  CD1       22.2300    7.1260    9.6710 C.ar  186  PHE186     -0.0042
    128  CD2       20.3020    5.7950    9.1440 C.ar  186  PHE186     -0.0042
    129  CE1       21.4130    8.2140    9.9210 C.ar  186  PHE186     -0.0003
    130  CE2       19.4760    6.8730    9.3910 C.ar  186  PHE186     -0.0003
    131  CZ        20.0290    8.0890    9.7820 C.ar  186  PHE186     -0.0000
    132  N         26.1500    3.0320    5.0330 N.3   188  PHE188     -0.1241
    133  CA        26.3340    2.4830    3.6820 C.3   188  PHE188      0.1605
    134  C         26.9280    3.5280    2.7350 C.2   188  PHE188      0.2264
    135  O         26.1980    4.3050    2.1050 O.2   188  PHE188     -0.2867
    136  CB        25.0130    1.9370    3.1190 C.3   188  PHE188      0.0534
    137  CG        24.5550    0.6430    3.7550 C.ar  188  PHE188     -0.0203
    138  CD1       25.0270   -0.5830    3.2910 C.ar  188  PHE188     -0.0042
    139  CD2       23.6340    0.6550    4.8040 C.ar  188  PHE188     -0.0042
    140  CE1       24.5970   -1.7850    3.8700 C.ar  188  PHE188     -0.0003
    141  CE2       23.1900   -0.5330    5.3870 C.ar  188  PHE188     -0.0003
    142  CZ        23.6730   -1.7580    4.9180 C.ar  188  PHE188     -0.0000
    143  N         12.1280    4.0810    6.8640 N.3   213  LEU213     -0.1245
    144  CA        12.7040    3.0030    7.6560 C.3   213  LEU213      0.1561
    145  C         14.1610    3.3880    7.8930 C.2   213  LEU213      0.2260
    146  O         14.8410    3.8140    6.9630 O.2   213  LEU213     -0.2867
    147  CB        12.6190    1.6830    6.8830 C.3   213  LEU213      0.0270
    148  CG        12.8620    0.3480    7.5930 C.3   213  LEU213      0.0019
    149  CD1       12.0530   -0.7350    6.9050 C.3   213  LEU213      0.0001
    150  CD2       14.3360   -0.0380    7.6370 C.3   213  LEU213      0.0001
    151  N         17.9920    2.2230    9.8940 N.3   215  GLY215     -0.1225
    152  CA        18.7660    1.2010   10.5930 C.3   215  GLY215      0.1811
    153  C         20.1250    1.6880   11.0560 C.2   215  GLY215      0.2280
    154  O         21.0610    1.7880   10.2600 O.2   215  GLY215     -0.2866
    155  N         21.1720    0.5060   14.3190 N.3   217  SER217     -0.1217
    156  CA        21.4320   -0.4340   15.4040 C.3   217  SER217      0.1889
    157  C         22.8540   -1.0130   15.4120 C.2   217  SER217      0.2288
    158  O         23.2600   -1.7050   14.4760 O.2   217  SER217     -0.2866
    159  CB        20.3990   -1.5560   15.3680 C.3   217  SER217      0.2089
    160  OG        20.5270   -2.4110   16.4830 O.3   217  SER217     -0.2183
    161  N         25.6920    0.0800   14.8510 N.3   219  LYS219     -0.1245
    162  CA        26.5830    0.4080   13.7330 C.3   219  LYS219      0.1561
    163  C         27.8040    1.2100   14.1640 C.2   219  LYS219      0.2260
    164  O         27.8380    1.7520   15.2730 O.2   219  LYS219     -0.2867
    165  CB        25.8180    1.1180   12.6070 C.3   219  LYS219      0.0271
    166  CG        25.0680    0.1460   11.7080 C.3   219  LYS219      0.0035
    167  CD        24.4680    0.8260   10.4900 C.3   219  LYS219      0.0206
    168  CE        23.8110   -0.2130    9.5980 C.3   219  LYS219      0.1093
    169  NZ        22.7750    0.3760    8.7120 N.3   219  LYS219     -0.1314
    170  N         14.7510   -0.2960   12.5450 N.3   253  ARG253     -0.1245
    171  CA        15.3130   -1.6320   12.3930 C.3   253  ARG253      0.1563
    172  C         16.4090   -1.8610   13.4260 C.2   253  ARG253      0.2260
    173  O         17.4550   -1.2070   13.3770 O.2   253  ARG253     -0.2867
    174  CB        15.8740   -1.7840   10.9770 C.3   253  ARG253      0.0307
    175  CG        16.3220   -3.1860   10.6420 C.3   253  ARG253      0.0489
    176  CD        16.9170   -3.2670    9.2360 C.3   253  ARG253      0.2205
    177  NE        17.4230   -4.6140    8.9680 N.pl3 253  ARG253     -0.0865
    178  CZ        18.6510   -5.0320    9.2720 C.cat 253  ARG253      0.5346
    179  NH1       19.5160   -4.2040    9.8430 N.pl3 253  ARG253      0.1354
    180  NH2       19.0230   -6.2780    8.9990 N.pl3 253  ARG253      0.1354
    181  N         18.5030   -4.5510   16.5830 N.3   255  HIS255     -0.1241
    182  CA        18.8450   -5.8290   17.2030 C.3   255  HIS255      0.1621
    183  C         18.1810   -5.9640   18.5700 C.2   255  HIS255      0.2264
    184  O         17.7800   -7.0590   18.9600 O.2   255  HIS255     -0.2867
    185  CB        20.3630   -5.9760   17.3550 C.3   255  HIS255      0.0745
    186  CG        21.1100   -5.8990   16.0600 C.ar  255  HIS255      0.0817
    187  ND1       21.7090   -4.7400   15.6150 N.ar  255  HIS255     -0.2268
    188  CD2       21.3560   -6.8370   15.1150 C.ar  255  HIS255      0.1154
    189  CE1       22.2900   -4.9680   14.4490 C.ar  255  HIS255      0.1986
    190  NE2       22.0910   -6.2320   14.1250 N.ar  255  HIS255     -0.2212
@<TRIPOS>BOND
     1   108   107    2
     2    94    93    2
     3    93    92    1
     4    50    48   ar
     5   105   106    1
     6   107   106    1
     7   102   101    2
     8   101   100    1
     9    49    48   ar
    10    48    47    1
    11    98    96    1
    12    91    92    1
    13    99   100    1
    14    92    95    1
    15   106   109    1
    16    96    95    1
    17   100   103    1
    18    47    46    1
    19   109   110    1
    20    95    97    1
    21    85    86    2
    22    85    84    1
    23    83    84    1
    24    46    43    1
    25   135   134    2
    26   112   111    1
    27    63    61    1
    28    84    87    1
    29   103   104    1
    30   116   115    2
    31   110   111    1
    32    77    78    2
    33    77    76    1
    34   134   133    1
    35   113   114    1
    36    61    58    1
    37    61    62    1
    38   136   133    1
    39   136   137    1
    40   138   137   ar
    41   138   140   ar
    42    43    42    1
    43    43    44    1
    44    54    53    2
    45   115   114    1
    46    81    80   ar
    47    58    59    1
    48    58    57    1
    49   133   132    1
    50    76    75    1
    51    76    79    1
    52    87    88    1
    53   137   139   ar
    54    60    59    2
    55    89    88    2
    56   140   142   ar
    57   114   117    1
    58    44    45    2
    59    44    51   am
    60    67    66    2
    61   117   118    1
    62    59    64   am
    63    88    90   am
    64    53    57   am
    65    53    52    1
    66    80    79    1
    67    80    82   ar
    68   139   141   ar
    69    51    52    1
    70   142   141   ar
    71    66    65    1
    72   118   119   ar
    73   118   120   ar
    74    64    65    1
    75    52    55    1
    76    65    68    1
    77    55    56    1
    78   121   122    1
    79    73    72    1
    80   143   144    1
    81   147   148    1
    82   147   144    1
    83   149   148    1
    84   146   145    2
    85    69    68    1
    86    69    70    1
    87    74    72    1
    88    72    71    2
    89   124   123    2
    90   123   122    1
    91   122   125    1
    92   148   150    1
    93   144   145    1
    94    71    70    1
    95   169   168    1
    96   177   176    1
    97   177   178    2
    98   180   178    1
    99   125   126    1
   100   128   126   ar
   101   128   130   ar
   102   176   175    1
   103   178   179    1
   104   126   127   ar
   105   130   131   ar
   106   168   167    1
   107   127   129   ar
   108    22    21    1
   109    15    14    2
   110   131   129   ar
   111   151   152    1
   112    17    18    1
   113   154   153    2
   114    18    21    1
   115    18    19    1
   116   167   166    1
   117   152   153    1
   118   175   174    1
   119    10    11    1
   120    10    13    1
   121    10     9    1
   122    11    12    2
   123    14    13    1
   124    14    16   am
   125   174   171    1
   126    23    19   am
   127    23    24    1
   128    19    20    2
   129    27    24    1
   130    27    28    1
   131    30    28   ar
   132    30    32   ar
   133   166   165    1
   134    24    25    1
   135    28    29   ar
   136    32    33   ar
   137     7     5    1
   138   171   170    1
   139   171   172    1
   140     6     8    1
   141     6     5    1
   142   165   162    1
   143     2     5    1
   144     2     3    1
   145     2     1    1
   146    29    31   ar
   147    33    31   ar
   148   173   172    2
   149     3     4    2
   150    25    26    2
   151   162   163    1
   152   162   161    1
   153    40    39   ar
   154   190   189   ar
   155   190   188   ar
   156   163   164    2
   157   155   156    1
   158   189   187   ar
   159   158   157    2
   160    36    37    2
   161    36    35    1
   162    39    41   ar
   163    39    38    1
   164   188   186   ar
   165    34    35    1
   166   159   156    1
   167   159   160    1
   168   156   157    1
   169   187   186   ar
   170    35    38    1
   171   186   185    1
   172   181   182    1
   173   182   185    1
   174   182   183    1
   175   183   184    2
