@<TRIPOS>MOLECULE
tmp/3tziB01.pdb
 241 232 0 0 0
SMALL
GASTEIGER

@<TRIPOS>ATOM
      1  N         58.8400   20.0020   58.4340 N.3    82  MET82      -0.1245
      2  CA        57.6860   20.8240   58.0580 C.3    82  MET82       0.1570
      3  C         56.8420   20.1730   56.9550 C.2    82  MET82       0.2261
      4  O         55.6170   20.2480   56.9950 O.2    82  MET82      -0.2867
      5  CB        58.1030   22.2430   57.6480 C.3    82  MET82       0.0387
      6  CG        56.9160   23.2040   57.4860 C.3    82  MET82       0.0595
      7  SD        56.0490   23.4450   59.0450 S.3    82  MET82      -0.1393
      8  CE        54.4560   24.0710   58.5110 C.3    82  MET82       0.0692
      9  N         54.7650   17.6220   58.7660 N.3    85  VAL85      -0.1231
     10  CA        53.7160   18.3330   59.5170 C.3    85  VAL85       0.1692
     11  C         52.5460   18.7000   58.6080 C.2    85  VAL85       0.2591
     12  O         51.3800   18.5340   58.9840 O.2    85  VAL85      -0.2718
     13  CB        54.2700   19.6020   60.2250 C.3    85  VAL85       0.0266
     14  CG1       53.1450   20.4840   60.7470 C.3    85  VAL85       0.0020
     15  CG2       55.2170   19.2120   61.3650 C.3    85  VAL85       0.0020
     16  N         52.8700   19.1790   57.4100 N.am   86  LEU86      -0.1980
     17  CA        51.8610   19.5250   56.4210 C.3    86  LEU86       0.1596
     18  C         51.0830   18.2980   55.9300 C.2    86  LEU86       0.2287
     19  O         49.8500   18.2950   55.9630 O.2    86  LEU86      -0.2864
     20  CB        52.4780   20.3000   55.2450 C.3    86  LEU86       0.0297
     21  CG        52.9570   21.7380   55.4870 C.3    86  LEU86       0.0022
     22  CD1       53.5430   22.3380   54.2210 C.3    86  LEU86       0.0001
     23  CD2       51.8500   22.6350   56.0260 C.3    86  LEU86       0.0001
     24  N         48.5220   15.8590   58.3090 N.3    89  ARG89      -0.1245
     25  CA        47.1860   16.4220   58.5420 C.3    89  ARG89       0.1563
     26  C         46.2570   16.2350   57.3390 C.2    89  ARG89       0.2260
     27  O         45.0390   16.1000   57.4980 O.2    89  ARG89      -0.2867
     28  CB        47.2940   17.9250   58.8520 C.3    89  ARG89       0.0307
     29  CG        48.1560   18.2960   60.0580 C.3    89  ARG89       0.0489
     30  CD        47.3760   18.1250   61.3480 C.3    89  ARG89       0.2205
     31  NE        48.2080   18.1910   62.5470 N.pl3  89  ARG89      -0.0865
     32  CZ        47.8070   17.7730   63.7460 C.cat  89  ARG89       0.5346
     33  NH1       46.5910   17.2540   63.8940 N.pl3  89  ARG89       0.1354
     34  NH2       48.6160   17.8630   64.7940 N.pl3  89  ARG89       0.1354
     35  N         41.4180   38.1100   62.1490 N.3   174  PHE174     -0.1241
     36  CA        41.7330   37.1210   61.1090 C.3   174  PHE174      0.1605
     37  C         40.5630   36.1960   60.7500 C.2   174  PHE174      0.2264
     38  O         40.2540   36.0200   59.5580 O.2   174  PHE174     -0.2867
     39  CB        42.9550   36.2850   61.5230 C.3   174  PHE174      0.0534
     40  CG        43.2610   35.1380   60.5850 C.ar  174  PHE174     -0.0203
     41  CD1       43.6820   35.3810   59.2730 C.ar  174  PHE174     -0.0042
     42  CD2       43.1480   33.8130   61.0270 C.ar  174  PHE174     -0.0042
     43  CE1       43.9670   34.3270   58.4040 C.ar  174  PHE174     -0.0003
     44  CE2       43.4350   32.7560   60.1790 C.ar  174  PHE174     -0.0003
     45  CZ        43.8430   33.0060   58.8570 C.ar  174  PHE174     -0.0000
     46  N         36.3760   34.7430   57.3400 N.3   178  PHE178     -0.1241
     47  CA        35.8040   33.5020   56.8180 C.3   178  PHE178      0.1605
     48  C         34.7290   32.8830   57.7020 C.2   178  PHE178      0.2264
     49  O         33.9680   32.0410   57.2370 O.2   178  PHE178     -0.2867
     50  CB        36.8720   32.4860   56.3360 C.3   178  PHE178      0.0534
     51  CG        37.9730   32.2000   57.3220 C.ar  178  PHE178     -0.0203
     52  CD1       37.7290   31.4830   58.4860 C.ar  178  PHE178     -0.0042
     53  CD2       39.2770   32.6010   57.0510 C.ar  178  PHE178     -0.0042
     54  CE1       38.7800   31.2010   59.3830 C.ar  178  PHE178     -0.0003
     55  CE2       40.3200   32.3310   57.9340 C.ar  178  PHE178     -0.0003
     56  CZ        40.0790   31.6240   59.0960 C.ar  178  PHE178     -0.0000
     57  N         50.3330   34.0520   60.2160 N.3   313  VAL313     -0.1231
     58  CA        49.4980   33.0600   60.8730 C.3   313  VAL313      0.1692
     59  C         50.2680   31.7560   61.1640 C.2   313  VAL313      0.2591
     60  O         50.1220   31.1690   62.2400 O.2   313  VAL313     -0.2718
     61  CB        48.1840   32.7780   60.1090 C.3   313  VAL313      0.0266
     62  CG1       47.4830   31.5830   60.7160 C.3   313  VAL313      0.0020
     63  CG2       47.2410   34.0090   60.1710 C.3   313  VAL313      0.0020
     64  N         51.0900   31.3160   60.2180 N.am  314  ILE314     -0.1980
     65  CA        51.8550   30.0870   60.4130 C.3   314  ILE314      0.1595
     66  C         53.0290   30.3110   61.3750 C.2   314  ILE314      0.2287
     67  O         53.1800   29.5910   62.3640 O.2   314  ILE314     -0.2864
     68  CB        52.3420   29.4880   59.0610 C.3   314  ILE314      0.0276
     69  CG1       51.1440   28.9740   58.2540 C.3   314  ILE314      0.0022
     70  CG2       53.4120   28.3820   59.2870 C.3   314  ILE314      0.0022
     71  CD1       51.4620   28.6270   56.7990 C.3   314  ILE314      0.0001
     72  N         51.5150   33.0580   64.7120 N.3   317  TYR317     -0.1227
     73  CA        50.2400   32.7680   65.3640 C.3   317  TYR317      0.1736
     74  C         50.0990   31.2850   65.7320 C.2   317  TYR317      0.2595
     75  O         49.9000   30.9470   66.9050 O.2   317  TYR317     -0.2718
     76  CB        49.1050   33.2640   64.4680 C.3   317  TYR317      0.0548
     77  CG        47.6950   32.9940   64.9280 C.ar  317  TYR317     -0.0200
     78  CD1       46.9930   33.9530   65.6440 C.ar  317  TYR317     -0.0009
     79  CD2       47.0410   31.8040   64.5890 C.ar  317  TYR317     -0.0009
     80  CE1       45.6850   33.7380   66.0320 C.ar  317  TYR317      0.0417
     81  CE2       45.7290   31.5610   64.9820 C.ar  317  TYR317      0.0417
     82  CZ        45.0530   32.5430   65.6970 C.ar  317  TYR317      0.1957
     83  OH        43.7530   32.3460   66.0980 O.3   317  TYR317     -0.2866
     84  N         50.2340   30.4080   64.7410 N.am  318  VAL318     -0.1980
     85  CA        50.1950   28.9670   64.9890 C.3   318  VAL318      0.1595
     86  C         51.4300   28.5200   65.7770 C.2   318  VAL318      0.2287
     87  O         51.3220   27.6650   66.6530 O.2   318  VAL318     -0.2864
     88  CB        50.0010   28.1380   63.6670 C.3   318  VAL318      0.0276
     89  CG1       50.0940   26.6360   63.9280 C.3   318  VAL318      0.0022
     90  CG2       48.6610   28.4490   63.0510 C.3   318  VAL318      0.0022
     91  N         50.5460   29.2060   69.4200 N.3   321  LEU321     -0.1231
     92  CA        49.4920   28.2880   69.8780 C.3   321  LEU321      0.1693
     93  C         50.0370   26.8990   70.1470 C.2   321  LEU321      0.2592
     94  O         49.7640   26.2980   71.1920 O.2   321  LEU321     -0.2718
     95  CB        48.3540   28.1960   68.8450 C.3   321  LEU321      0.0284
     96  CG        47.3230   29.2990   69.0100 C.3   321  LEU321      0.0019
     97  CD1       46.2420   29.2420   67.9320 C.3   321  LEU321      0.0001
     98  CD2       46.7240   29.2620   70.4390 C.3   321  LEU321      0.0001
     99  N         50.8270   26.4150   69.1930 N.am  322  SER322     -0.1952
    100  CA        51.3580   25.0560   69.2020 C.3   322  SER322      0.1924
    101  C         52.1590   24.7030   70.4580 C.2   322  SER322      0.2314
    102  O         52.0960   23.5660   70.9350 O.2   322  SER322     -0.2863
    103  CB        52.2200   24.8260   67.9600 C.3   322  SER322      0.2116
    104  OG        53.4990   25.4230   68.1040 O.3   322  SER322     -0.2180
    105  N         55.2690   24.4260   70.2970 N.3   324  TYR324     -0.1241
    106  CA        56.3510   23.5850   69.7600 C.3   324  TYR324      0.1605
    107  C         57.7070   24.2670   69.8310 C.2   324  TYR324      0.2264
    108  O         57.8000   25.4870   69.6790 O.2   324  TYR324     -0.2867
    109  CB        56.1040   23.2200   68.2890 C.3   324  TYR324      0.0534
    110  CG        54.8440   22.4370   67.9820 C.ar  324  TYR324     -0.0201
    111  CD1       54.1460   21.7460   68.9750 C.ar  324  TYR324     -0.0009
    112  CD2       54.3700   22.3680   66.6790 C.ar  324  TYR324     -0.0009
    113  CE1       52.9990   21.0340   68.6710 C.ar  324  TYR324      0.0417
    114  CE2       53.2340   21.6590   66.3680 C.ar  324  TYR324      0.0417
    115  CZ        52.5550   20.9930   67.3630 C.ar  324  TYR324      0.1957
    116  OH        51.4240   20.2920   67.0310 O.3   324  TYR324     -0.2866
    117  N         58.0160   26.2140   62.8900 N.3   328  LEU328     -0.1245
    118  CA        57.1690   26.0370   61.7080 C.3   328  LEU328      0.1561
    119  C         57.6120   27.0030   60.5910 C.2   328  LEU328      0.2260
    120  O         58.2890   27.9970   60.8530 O.2   328  LEU328     -0.2867
    121  CB        55.6900   26.2300   62.0580 C.3   328  LEU328      0.0270
    122  CG        55.0410   25.3440   63.1320 C.3   328  LEU328      0.0019
    123  CD1       53.6830   25.9140   63.5270 C.3   328  LEU328      0.0001
    124  CD2       54.8850   23.9030   62.6830 C.3   328  LEU328      0.0001
    125  N         34.5260   23.9540   62.1740 N.3   350  PHE350     -0.1241
    126  CA        35.6820   24.8740   62.2620 C.3   350  PHE350      0.1605
    127  C         35.2630   26.2210   62.8810 C.2   350  PHE350      0.2264
    128  O         35.9560   26.7680   63.7430 O.2   350  PHE350     -0.2867
    129  CB        36.2850   25.0770   60.8560 C.3   350  PHE350      0.0534
    130  CG        37.6330   25.7800   60.8330 C.ar  350  PHE350     -0.0203
    131  CD1       38.5080   25.7300   61.9230 C.ar  350  PHE350     -0.0042
    132  CD2       38.0410   26.4610   59.6820 C.ar  350  PHE350     -0.0042
    133  CE1       39.7750   26.3650   61.8680 C.ar  350  PHE350     -0.0003
    134  CE2       39.2960   27.1090   59.6220 C.ar  350  PHE350     -0.0003
    135  CZ        40.1570   27.0680   60.7220 C.ar  350  PHE350     -0.0000
    136  N         34.3500   25.3970   66.7590 N.3   353  LEU353     -0.1231
    137  CA        35.5180   25.2020   67.6270 C.3   353  LEU353      0.1693
    138  C         36.2850   26.5080   67.8740 C.2   353  LEU353      0.2592
    139  O         37.0010   26.6420   68.8690 O.2   353  LEU353     -0.2718
    140  CB        36.4550   24.1010   67.0920 C.3   353  LEU353      0.0284
    141  CG        37.2400   24.2840   65.7880 C.3   353  LEU353      0.0019
    142  CD1       38.5370   25.0450   66.0110 C.3   353  LEU353      0.0001
    143  CD2       37.5430   22.9070   65.2360 C.3   353  LEU353      0.0001
    144  N         36.1200   27.4670   66.9710 N.am  354  TYR354     -0.1976
    145  CA        36.8340   28.7320   67.0700 C.3   354  TYR354      0.1639
    146  C         36.1350   29.7810   67.9460 C.2   354  TYR354      0.2290
    147  O         36.5540   30.9400   67.9840 O.2   354  TYR354     -0.2864
    148  CB        37.0970   29.2910   65.6800 C.3   354  TYR354      0.0560
    149  CG        38.5470   29.5520   65.4220 C.ar  354  TYR354     -0.0198
    150  CD1       39.2700   28.7470   64.5320 C.ar  354  TYR354     -0.0009
    151  CD2       39.2190   30.5880   66.0760 C.ar  354  TYR354     -0.0009
    152  CE1       40.6230   28.9760   64.2970 C.ar  354  TYR354      0.0417
    153  CE2       40.5690   30.8240   65.8540 C.ar  354  TYR354      0.0417
    154  CZ        41.2650   30.0210   64.9630 C.ar  354  TYR354      0.1957
    155  OH        42.6030   30.2760   64.7310 O.3   354  TYR354     -0.2866
    156  N         36.3520   31.1100   70.7590 N.3   356  TRP356     -0.1241
    157  CA        37.3160   31.1770   71.8540 C.3   356  TRP356      0.1605
    158  C         37.0090   32.2960   72.8580 C.2   356  TRP356      0.2264
    159  O         37.9020   33.0420   73.2710 O.2   356  TRP356     -0.2867
    160  CB        38.7420   31.3280   71.2880 C.3   356  TRP356      0.0550
    161  CG        39.2310   30.1190   70.5300 C.ar  356  TRP356      0.0003
    162  CD1       38.6270   28.8890   70.4570 C.ar  356  TRP356      0.0946
    163  CD2       40.4350   30.0160   69.7680 C.ar  356  TRP356      0.0152
    164  NE1       39.3680   28.0410   69.6740 N.ar  356  TRP356     -0.2442
    165  CE2       40.4900   28.7000   69.2470 C.ar  356  TRP356      0.0810
    166  CE3       41.4780   30.9060   69.4730 C.ar  356  TRP356      0.0012
    167  CZ2       41.5480   28.2520   68.4480 C.ar  356  TRP356      0.0191
    168  CZ3       42.5330   30.4600   68.6770 C.ar  356  TRP356      0.0001
    169  CH2       42.5570   29.1450   68.1750 C.ar  356  TRP356      0.0015
    170  N         44.8770   24.6850   75.2220 N.3   487  PHE487     -0.1241
    171  CA        43.8820   23.7860   74.6290 C.3   487  PHE487      0.1605
    172  C         44.0920   22.3420   75.0490 C.2   487  PHE487      0.2264
    173  O         45.2040   21.9450   75.3790 O.2   487  PHE487     -0.2867
    174  CB        43.9550   23.8110   73.0840 C.3   487  PHE487      0.0534
    175  CG        43.7350   25.1590   72.4640 C.ar  487  PHE487     -0.0203
    176  CD1       42.7450   26.0110   72.9270 C.ar  487  PHE487     -0.0042
    177  CD2       44.4980   25.5550   71.3600 C.ar  487  PHE487     -0.0042
    178  CE1       42.5380   27.2600   72.3340 C.ar  487  PHE487     -0.0003
    179  CE2       44.2970   26.7880   70.7650 C.ar  487  PHE487     -0.0003
    180  CZ        43.3120   27.6490   71.2570 C.ar  487  PHE487     -0.0000
    181  N         40.5030   20.1200   70.5640 N.3   491  MET491     -0.1230
    182  CA        40.6500   21.4270   69.9070 C.3   491  MET491      0.1702
    183  C         41.7270   21.3920   68.8220 C.2   491  MET491      0.2592
    184  O         41.4880   21.8080   67.6850 O.2   491  MET491     -0.2718
    185  CB        40.9900   22.5220   70.9220 C.3   491  MET491      0.0401
    186  CG        41.0270   23.9290   70.3150 C.3   491  MET491      0.0596
    187  SD        39.3850   24.5140   69.8180 S.3   491  MET491     -0.1393
    188  CE        38.7440   25.0200   71.4220 C.3   491  MET491      0.0692
    189  N         42.8990   20.8750   69.1880 N.am  492  VAL492     -0.1980
    190  CA        44.0730   20.8770   68.3160 C.3   492  VAL492      0.1595
    191  C         43.9420   19.8970   67.1500 C.2   492  VAL492      0.2287
    192  O         44.3180   20.2200   66.0220 O.2   492  VAL492     -0.2864
    193  CB        45.3660   20.5780   69.1190 C.3   492  VAL492      0.0276
    194  CG1       46.5560   20.4150   68.1930 C.3   492  VAL492      0.0022
    195  CG2       45.6290   21.6890   70.1140 C.3   492  VAL492      0.0022
    196  N         41.2000   21.3910   64.9510 N.3   495  GLY495     -0.1210
    197  CA        41.6070   22.7190   64.4930 C.3   495  GLY495      0.1956
    198  C         42.7620   22.7270   63.5040 C.2   495  GLY495      0.2611
    199  O         42.7740   23.5350   62.5750 O.2   495  GLY495     -0.2717
    200  N         43.7300   21.8310   63.7010 N.am  496  ALA496     -0.1979
    201  CA        44.9350   21.8010   62.8690 C.3   496  ALA496      0.1597
    202  C         44.7120   21.4590   61.3830 C.2   496  ALA496      0.2287
    203  O         45.2180   22.1700   60.5130 O.2   496  ALA496     -0.2864
    204  CB        46.0140   20.8980   63.4950 C.3   496  ALA496      0.0319
    205  N         42.8920   24.3430   59.6520 N.3   499  SER499     -0.1202
    206  CA        43.7930   25.4880   59.4950 C.3   499  SER499      0.2020
    207  C         44.7600   25.2750   58.3520 C.2   499  SER499      0.2618
    208  O         45.0350   26.2050   57.6080 O.2   499  SER499     -0.2717
    209  CB        44.5660   25.7470   60.7880 C.3   499  SER499      0.2103
    210  OG        43.6450   25.9960   61.8430 O.3   499  SER499     -0.2182
    211  N         45.2530   24.0470   58.2030 N.am  500  LEU500     -0.1979
    212  CA        46.1150   23.7030   57.0780 C.3   500  LEU500      0.1596
    213  C         45.3980   23.9790   55.7590 C.2   500  LEU500      0.2287
    214  O         45.9750   24.5880   54.8570 O.2   500  LEU500     -0.2864
    215  CB        46.5890   22.2300   57.1350 C.3   500  LEU500      0.0297
    216  CG        47.0320   21.5890   55.8010 C.3   500  LEU500      0.0022
    217  CD1       48.4000   22.0770   55.3740 C.3   500  LEU500      0.0001
    218  CD2       47.0360   20.0720   55.8370 C.3   500  LEU500      0.0001
    219  N         42.7560   25.9570   55.1260 N.3   502  VAL502     -0.1231
    220  CA        42.4190   27.3580   54.8450 C.3   502  VAL502      0.1692
    221  C         43.6690   28.1800   54.5100 C.2   502  VAL502      0.2592
    222  O         43.5870   29.1480   53.7580 O.2   502  VAL502     -0.2718
    223  CB        41.5260   28.0100   55.9350 C.3   502  VAL502      0.0266
    224  CG1       42.3240   28.4250   57.1700 C.3   502  VAL502      0.0020
    225  CG2       40.7760   29.2050   55.3610 C.3   502  VAL502      0.0020
    226  N         44.8200   27.7760   55.0340 N.am  503  LEU503     -0.1966
    227  CA        46.0600   28.5100   54.7770 C.3   503  LEU503      0.1728
    228  C         46.7400   28.0660   53.4810 C.2   503  LEU503      0.2616
    229  O         47.0400   28.9020   52.6250 O.2   503  LEU503     -0.2715
    230  CB        47.0310   28.4090   55.9620 C.3   503  LEU503      0.0311
    231  CG        46.5760   29.0490   57.2830 C.3   503  LEU503      0.0022
    232  CD1       47.3860   28.5050   58.4670 C.3   503  LEU503      0.0001
    233  CD2       46.6120   30.6020   57.2300 C.3   503  LEU503      0.0001
    234  N         46.9760   26.7570   53.3420 N.am  504  MET504     -0.1977
    235  CA        47.7380   26.2210   52.2080 C.3   504  MET504      0.1605
    236  C         46.8940   25.9980   50.9430 C.2   504  MET504      0.2287
    237  O         47.4440   25.9340   49.8440 O.2   504  MET504     -0.2864
    238  CB        48.5050   24.9330   52.5870 C.3   504  MET504      0.0413
    239  CG        49.5410   25.0930   53.7260 C.3   504  MET504      0.0598
    240  SD        50.7940   26.4010   53.5240 S.3   504  MET504     -0.1393
    241  CE        51.6730   25.8200   52.0720 C.3   504  MET504      0.0692
@<TRIPOS>BOND
     1   237   236    2
     2   236   235    1
     3   241   240    1
     4   235   238    1
     5   235   234    1
     6   238   239    1
     7   229   228    2
     8   234   228   am
     9   228   227    1
    10   240   239    1
    11   222   221    2
    12    22    21    1
    13   221   220    1
    14   221   226   am
    15   227   226    1
    16   227   230    1
    17   220   219    1
    18   220   223    1
    19   214   213    2
    20    20    21    1
    21    20    17    1
    22   225   223    1
    23   217   216    1
    24    21    23    1
    25   213   212    1
    26   216   218    1
    27   216   215    1
    28    18    19    2
    29    18    17    1
    30   223   224    1
    31   230   231    1
    32    50    47    1
    33    50    51    1
    34    17    16    1
    35    71    69    1
    36    47    46    1
    37    47    48    1
    38     3     4    2
    39     3     2    1
    40    53    51   ar
    41    53    55   ar
    42   212   215    1
    43   212   211    1
    44   233   231    1
    45    49    48    2
    46   231   232    1
    47    51    52   ar
    48    26    27    2
    49    26    25    1
    50    16    11   am
    51     6     5    1
    52     6     7    1
    53   208   207    2
    54     5     2    1
    55    55    56   ar
    56     2     1    1
    57   211   207   am
    58    69    68    1
    59    24    25    1
    60   207   206    1
    61    43    45   ar
    62    43    41   ar
    63    52    54   ar
    64     8     7    1
    65    25    28    1
    66    11    12    2
    67    11    10    1
    68     9    10    1
    69    28    29    1
    70    45    44   ar
    71    68    70    1
    72    68    65    1
    73    56    54   ar
    74    41    40   ar
    75   206   205    1
    76   206   209    1
    77    10    13    1
    78    38    37    2
    79   134   132   ar
    80   134   135   ar
    81   132   130   ar
    82    29    30    1
    83    61    63    1
    84    61    62    1
    85    61    58    1
    86    44    42   ar
    87    57    58    1
    88    64    65    1
    89    64    59   am
    90    13    14    1
    91    13    15    1
    92    65    66    1
    93   203   202    2
    94    40    42   ar
    95    40    39    1
    96   119   120    2
    97   119   118    1
    98   135   133   ar
    99    37    36    1
   100   209   210    1
   101   130   129    1
   102   130   131   ar
   103   129   126    1
   104    58    59    1
   105    36    39    1
   106    36    35    1
   107    59    60    2
   108    30    31    1
   109    66    67    2
   110   202   201    1
   111   118   121    1
   112   118   117    1
   113   133   131   ar
   114   121   122    1
   115   125   126    1
   116   126   127    1
   117    31    32    2
   118   199   198    2
   119   124   122    1
   120   201   204    1
   121   201   200    1
   122   127   128    2
   123    90    88    1
   124   122   123    1
   125   198   200   am
   126   198   197    1
   127    88    89    1
   128    88    85    1
   129    32    33    1
   130    32    34    1
   131   152   150   ar
   132   152   154   ar
   133    76    77    1
   134    76    73    1
   135   197   196    1
   136   150   149   ar
   137    79    77   ar
   138    79    81   ar
   139    72    73    1
   140   155   154    1
   141    84    85    1
   142    84    74   am
   143    77    78   ar
   144   154   153   ar
   145    81    82   ar
   146    85    86    1
   147   143   141    1
   148    73    74    1
   149   149   148    1
   150   149   151   ar
   151    78    80   ar
   152   148   145    1
   153    82    80   ar
   154    82    83    1
   155    74    75    2
   156    86    87    2
   157   141   142    1
   158   141   140    1
   159   153   151   ar
   160   192   191    2
   161   114   112   ar
   162   114   115   ar
   163   112   110   ar
   164   136   137    1
   165   144   145    1
   166   144   138   am
   167   116   115    1
   168   145   146    1
   169   140   137    1
   170   191   190    1
   171   115   113   ar
   172   137   138    1
   173   184   183    2
   174   138   139    2
   175    97    96    1
   176   146   147    2
   177   103   104    1
   178   103   100    1
   179   110   109    1
   180   110   111   ar
   181   169   167   ar
   182   169   168   ar
   183   194   193    1
   184   109   106    1
   185   190   193    1
   186   190   189    1
   187   167   165   ar
   188   113   111   ar
   189   168   166   ar
   190   183   189   am
   191   183   182    1
   192    95    96    1
   193    95    92    1
   194    96    98    1
   195   193   195    1
   196    99   100    1
   197    99    93   am
   198   100   101    1
   199   165   164   ar
   200   165   163   ar
   201    91    92    1
   202   166   163   ar
   203   164   162   ar
   204   108   107    2
   205   106   107    1
   206   106   105    1
   207   163   161   ar
   208   187   186    1
   209   187   188    1
   210    92    93    1
   211   182   181    1
   212   182   185    1
   213    93    94    2
   214   186   185    1
   215   162   161   ar
   216   101   102    2
   217   161   160    1
   218   156   157    1
   219   179   180   ar
   220   179   177   ar
   221   180   178   ar
   222   160   157    1
   223   177   175   ar
   224   157   158    1
   225   178   176   ar
   226   175   176   ar
   227   175   174    1
   228   158   159    2
   229   174   171    1
   230   171   172    1
   231   171   170    1
   232   172   173    2
