@<TRIPOS>MOLECULE
tmp/3tziB02.pdb
 241 236 0 0 0
SMALL
GASTEIGER

@<TRIPOS>ATOM
      1  N         44.5800   37.6000   71.0830 N.3   168  ALA168     -0.1231
      2  CA        43.1210   37.4770   71.1540 C.3   168  ALA168      0.1694
      3  C         42.4220   38.2650   70.0390 C.2   168  ALA168      0.2592
      4  O         41.5460   37.7320   69.3510 O.2   168  ALA168     -0.2718
      5  CB        42.6060   37.9080   72.5390 C.3   168  ALA168      0.0304
      6  N         42.8250   39.5200   69.8500 N.am  169  PHE169     -0.1976
      7  CA        42.2220   40.3400   68.8100 C.3   169  PHE169      0.1639
      8  C         42.6930   39.9560   67.4120 C.2   169  PHE169      0.2290
      9  O         41.9320   40.1030   66.4570 O.2   169  PHE169     -0.2864
     10  CB        42.3950   41.8380   69.0850 C.3   169  PHE169      0.0560
     11  CG        41.5660   42.3300   70.2500 C.ar  169  PHE169     -0.0200
     12  CD1       40.1770   42.1790   70.2490 C.ar  169  PHE169     -0.0042
     13  CD2       42.1740   42.9380   71.3430 C.ar  169  PHE169     -0.0042
     14  CE1       39.4120   42.6290   71.3360 C.ar  169  PHE169     -0.0003
     15  CE2       41.4260   43.3950   72.4200 C.ar  169  PHE169     -0.0003
     16  CZ        40.0410   43.2390   72.4220 C.ar  169  PHE169     -0.0000
     17  N         43.2560   36.8460   66.5260 N.3   171  ALA171     -0.1231
     18  CA        42.3950   35.6920   66.2840 C.3   171  ALA171      0.1694
     19  C         40.9920   36.1220   65.8160 C.2   171  ALA171      0.2591
     20  O         40.4630   35.5940   64.8260 O.2   171  ALA171     -0.2718
     21  CB        42.3150   34.8260   67.5340 C.3   171  ALA171      0.0304
     22  N         40.4140   37.1020   66.5050 N.am  172  GLN172     -0.1979
     23  CA        39.0870   37.5950   66.1540 C.3   172  GLN172      0.1601
     24  C         39.0760   38.2620   64.7740 C.2   172  GLN172      0.2287
     25  O         38.2290   37.9500   63.9450 O.2   172  GLN172     -0.2864
     26  CB        38.5610   38.5440   67.2250 C.3   172  GLN172      0.0394
     27  CG        37.0430   38.7540   67.1640 C.3   172  GLN172      0.0908
     28  CD        36.5500   39.8520   68.1020 C.2   172  GLN172      0.2608
     29  OE1       37.3320   40.4670   68.8350 O.2   172  GLN172     -0.2717
     30  NE2       35.2400   40.1050   68.0780 N.am  172  GLN172     -0.0878
     31  N         39.9180   35.6100   61.7670 N.3   175  THR175     -0.1203
     32  CA        38.9190   34.5600   61.5250 C.3   175  THR175      0.1994
     33  C         37.5900   35.0990   61.0210 C.2   175  THR175      0.2617
     34  O         36.8810   34.3970   60.3060 O.2   175  THR175     -0.2717
     35  CB        38.6620   33.6330   62.7560 C.3   175  THR175      0.1784
     36  OG1       38.2120   34.4040   63.8710 O.3   175  THR175     -0.2211
     37  CG2       39.9160   32.8420   63.1160 C.3   175  THR175      0.0376
     38  N         37.2620   36.3410   61.3750 N.am  176  HIS176     -0.1975
     39  CA        35.9980   36.9360   60.9650 C.3   176  HIS176      0.1656
     40  C         35.9780   37.3760   59.4910 C.2   176  HIS176      0.2291
     41  O         35.0020   37.9820   59.0480 O.2   176  HIS176     -0.2864
     42  CB        35.6050   38.0880   61.8920 C.3   176  HIS176      0.0771
     43  CG        35.0660   37.6400   63.2120 C.ar  176  HIS176      0.0820
     44  ND1       35.6490   36.6310   63.9520 N.ar  176  HIS176     -0.2267
     45  CD2       34.0040   38.0710   63.9340 C.ar  176  HIS176      0.1154
     46  CE1       34.9620   36.4530   65.0670 C.ar  176  HIS176      0.1986
     47  NE2       33.9620   37.3170   65.0820 N.ar  176  HIS176     -0.2212
     48  N         34.6480   33.3110   58.9620 N.3   179  PHE179     -0.1227
     49  CA        33.4540   33.0640   59.7640 C.3   179  PHE179      0.1736
     50  C         32.5440   34.3000   59.7530 C.2   179  PHE179      0.2595
     51  O         32.7990   35.2830   60.4590 O.2   179  PHE179     -0.2718
     52  CB        33.8170   32.6590   61.2070 C.3   179  PHE179      0.0547
     53  CG        34.7710   31.4850   61.2990 C.ar  179  PHE179     -0.0202
     54  CD1       35.7790   31.4760   62.2600 C.ar  179  PHE179     -0.0042
     55  CD2       34.6440   30.3850   60.4440 C.ar  179  PHE179     -0.0042
     56  CE1       36.6580   30.4070   62.3690 C.ar  179  PHE179     -0.0003
     57  CE2       35.5240   29.3130   60.5430 C.ar  179  PHE179     -0.0003
     58  CZ        36.5380   29.3230   61.5030 C.ar  179  PHE179     -0.0000
     59  N         31.4830   34.2430   58.9530 N.am  180  LYS180     -0.1966
     60  CA        30.6020   35.3850   58.7070 C.3   180  LYS180      0.1728
     61  C         29.1930   34.8550   58.5230 C.2   180  LYS180      0.2616
     62  O         28.6510   34.8700   57.4120 O.2   180  LYS180     -0.2715
     63  CB        31.0270   36.1400   57.4300 C.3   180  LYS180      0.0311
     64  CG        32.2400   37.0650   57.5910 C.3   180  LYS180      0.0038
     65  CD        32.8890   37.4420   56.2610 C.3   180  LYS180      0.0206
     66  CE        31.8780   37.8400   55.2080 C.3   180  LYS180      0.1093
     67  NZ        32.4820   38.6150   54.0990 N.3   180  LYS180     -0.1314
     68  N         28.6070   34.3790   59.6150 N.am  181  THR181     -0.1951
     69  CA        27.3100   33.7180   59.5650 C.3   181  THR181      0.1897
     70  C         26.2200   34.6260   58.9890 C.2   181  THR181      0.2313
     71  O         26.1680   35.8230   59.2950 O.2   181  THR181     -0.2863
     72  CB        26.9260   33.1420   60.9370 C.3   181  THR181      0.1794
     73  OG1       27.8930   32.1440   61.2980 O.3   181  THR181     -0.2208
     74  CG2       25.5330   32.4970   60.9050 C.3   181  THR181      0.0378
     75  N         22.7840   35.4150   59.2500 N.3   183  HIS183     -0.1241
     76  CA        21.6670   35.2920   60.2020 C.3   183  HIS183      0.1621
     77  C         20.2660   35.3000   59.5880 C.2   183  HIS183      0.2264
     78  O         19.3540   34.6750   60.1320 O.2   183  HIS183     -0.2867
     79  CB        21.7930   36.3390   61.3140 C.3   183  HIS183      0.0745
     80  CG        23.0830   36.2420   62.0670 C.ar  183  HIS183      0.0817
     81  ND1       23.5580   35.2840   62.9000 N.ar  183  HIS183     -0.2268
     82  CD2       24.0900   37.1780   61.9450 C.ar  183  HIS183      0.1154
     83  CE1       24.8230   35.6650   63.2780 C.ar  183  HIS183      0.1986
     84  NE2       25.1200   36.8120   62.6910 N.ar  183  HIS183     -0.2212
     85  N         28.3060   34.2650   54.7190 N.3   191  ARG191     -0.1245
     86  CA        28.3770   35.4040   53.7880 C.3   191  ARG191      0.1563
     87  C         29.7750   35.5040   53.1990 C.2   191  ARG191      0.2260
     88  O         29.9950   36.2660   52.2540 O.2   191  ARG191     -0.2867
     89  CB        28.0430   36.7420   54.4830 C.3   191  ARG191      0.0307
     90  CG        26.6780   36.8100   55.1810 C.3   191  ARG191      0.0489
     91  CD        26.3030   38.2190   55.7290 C.3   191  ARG191      0.2205
     92  NE        27.4470   39.1060   56.0150 N.pl3 191  ARG191     -0.0865
     93  CZ        28.1480   39.1480   57.1580 C.cat 191  ARG191      0.5346
     94  NH1       27.8460   38.3480   58.1870 N.pl3 191  ARG191      0.1354
     95  NH2       29.1690   40.0010   57.2770 N.pl3 191  ARG191      0.1354
     96  N         34.1880   46.5750   68.1450 N.3   264  VAL264     -0.1245
     97  CA        35.2500   46.2670   69.1020 C.3   264  VAL264      0.1561
     98  C         36.4770   47.1260   68.7280 C.2   264  VAL264      0.2260
     99  O         36.9850   47.0030   67.6180 O.2   264  VAL264     -0.2867
    100  CB        35.6530   44.7620   69.0190 C.3   264  VAL264      0.0252
    101  CG1       36.6240   44.3890   70.1210 C.3   264  VAL264      0.0019
    102  CG2       34.4290   43.8570   69.0860 C.3   264  VAL264      0.0019
    103  N         34.1170   26.7410   62.4420 N.3   351  ASN351     -0.1240
    104  CA        33.5240   27.9360   63.0480 C.3   351  ASN351      0.1653
    105  C         33.2100   27.6880   64.5270 C.2   351  ASN351      0.2266
    106  O         33.6580   28.4390   65.3760 O.2   351  ASN351     -0.2867
    107  CB        32.2800   28.3850   62.2640 C.3   351  ASN351      0.1155
    108  CG        31.7240   29.7440   62.7250 C.2   351  ASN351      0.2627
    109  OD1       32.0570   30.2630   63.7980 O.2   351  ASN351     -0.2716
    110  ND2       30.8610   30.3150   61.9030 N.am  351  ASN351     -0.0877
    111  N         36.1200   27.4670   66.9710 N.3   354  TYR354     -0.1227
    112  CA        36.8340   28.7320   67.0700 C.3   354  TYR354      0.1736
    113  C         36.1350   29.7810   67.9460 C.2   354  TYR354      0.2595
    114  O         36.5540   30.9400   67.9840 O.2   354  TYR354     -0.2718
    115  CB        37.0970   29.2910   65.6800 C.3   354  TYR354      0.0548
    116  CG        38.5470   29.5520   65.4220 C.ar  354  TYR354     -0.0200
    117  CD1       39.2700   28.7470   64.5320 C.ar  354  TYR354     -0.0009
    118  CD2       39.2190   30.5880   66.0760 C.ar  354  TYR354     -0.0009
    119  CE1       40.6230   28.9760   64.2970 C.ar  354  TYR354      0.0417
    120  CE2       40.5690   30.8240   65.8540 C.ar  354  TYR354      0.0417
    121  CZ        41.2650   30.0210   64.9630 C.ar  354  TYR354      0.1957
    122  OH        42.6030   30.2760   64.7310 O.3   354  TYR354     -0.2866
    123  N         35.0790   29.3840   68.6510 N.am  355  HIS355     -0.1961
    124  CA        34.4000   30.3190   69.5450 C.3   355  HIS355      0.1787
    125  C         35.1920   30.4560   70.8540 C.2   355  HIS355      0.2620
    126  O         34.7600   29.9870   71.9170 O.2   355  HIS355     -0.2715
    127  CB        32.9380   29.9010   69.7770 C.3   355  HIS355      0.0785
    128  CG        32.0640   30.0820   68.5730 C.ar  355  HIS355      0.0821
    129  ND1       30.7290   30.4120   68.6620 N.ar  355  HIS355     -0.2267
    130  CD2       32.3420   30.0100   67.2490 C.ar  355  HIS355      0.1154
    131  CE1       30.2180   30.5130   67.4470 C.ar  355  HIS355      0.1986
    132  NE2       31.1770   30.2760   66.5720 N.ar  355  HIS355     -0.2212
    133  N         36.3520   31.1100   70.7590 N.am  356  TRP356     -0.1960
    134  CA        37.3160   31.1770   71.8540 C.3   356  TRP356      0.1771
    135  C         37.0090   32.2960   72.8580 C.2   356  TRP356      0.2619
    136  O         37.9020   33.0420   73.2710 O.2   356  TRP356     -0.2715
    137  CB        38.7420   31.3280   71.2880 C.3   356  TRP356      0.0590
    138  CG        39.2310   30.1190   70.5300 C.ar  356  TRP356      0.0006
    139  CD1       38.6270   28.8890   70.4570 C.ar  356  TRP356      0.0946
    140  CD2       40.4350   30.0160   69.7680 C.ar  356  TRP356      0.0152
    141  NE1       39.3680   28.0410   69.6740 N.ar  356  TRP356     -0.2442
    142  CE2       40.4900   28.7000   69.2470 C.ar  356  TRP356      0.0810
    143  CE3       41.4780   30.9060   69.4730 C.ar  356  TRP356      0.0012
    144  CZ2       41.5480   28.2520   68.4480 C.ar  356  TRP356      0.0191
    145  CZ3       42.5330   30.4600   68.6770 C.ar  356  TRP356      0.0001
    146  CH2       42.5570   29.1450   68.1750 C.ar  356  TRP356      0.0015
    147  N         35.7470   32.4080   73.2610 N.am  357  HIS357     -0.1973
    148  CA        35.3470   33.4930   74.1530 C.3   357  HIS357      0.1656
    149  C         36.0390   33.5410   75.5340 C.2   357  HIS357      0.2291
    150  O         36.2750   34.6330   76.0440 O.2   357  HIS357     -0.2864
    151  CB        33.8200   33.6190   74.2210 C.3   357  HIS357      0.0771
    152  CG        33.2220   34.0060   72.9060 C.ar  357  HIS357      0.0820
    153  ND1       32.4400   33.1480   72.1610 N.ar  357  HIS357     -0.2267
    154  CD2       33.3700   35.1300   72.1590 C.ar  357  HIS357      0.1154
    155  CE1       32.1050   33.7370   71.0270 C.ar  357  HIS357      0.1986
    156  NE2       32.6510   34.9430   71.0020 N.ar  357  HIS357     -0.2212
    157  N         39.0080   33.4790   76.0270 N.3   359  LEU359     -0.1231
    158  CA        40.1870   34.3230   75.8280 C.3   359  LEU359      0.1693
    159  C         39.9950   35.7140   76.4050 C.2   359  LEU359      0.2591
    160  O         40.9530   36.3410   76.8460 O.2   359  LEU359     -0.2718
    161  CB        40.5100   34.4860   74.3420 C.3   359  LEU359      0.0284
    162  CG        41.3370   33.4690   73.5640 C.3   359  LEU359      0.0019
    163  CD1       41.4360   33.9380   72.1020 C.3   359  LEU359      0.0001
    164  CD2       42.7250   33.2750   74.1850 C.3   359  LEU359      0.0001
    165  N         38.7550   36.1950   76.3820 N.am  360  LEU360     -0.1980
    166  CA        38.4630   37.5620   76.7700 C.3   360  LEU360      0.1596
    167  C         38.6940   37.8090   78.2690 C.2   360  LEU360      0.2287
    168  O         38.3470   36.9680   79.1010 O.2   360  LEU360     -0.2864
    169  CB        37.0440   37.9610   76.3440 C.3   360  LEU360      0.0297
    170  CG        36.7830   37.9810   74.8320 C.3   360  LEU360      0.0022
    171  CD1       35.2880   38.0780   74.5550 C.3   360  LEU360      0.0001
    172  CD2       37.5520   39.1210   74.1430 C.3   360  LEU360      0.0001
    173  N         39.3460   45.5820   79.8610 N.3   364  PHE364     -0.1241
    174  CA        40.3230   45.8860   78.8260 C.3   364  PHE364      0.1605
    175  C         41.2210   46.9950   79.3420 C.2   364  PHE364      0.2264
    176  O         40.7700   48.1240   79.5660 O.2   364  PHE364     -0.2867
    177  CB        39.6150   46.2140   77.5040 C.3   364  PHE364      0.0534
    178  CG        38.7370   45.0920   77.0230 C.ar  364  PHE364     -0.0203
    179  CD1       37.4150   44.9850   77.4630 C.ar  364  PHE364     -0.0042
    180  CD2       39.2460   44.1070   76.1830 C.ar  364  PHE364     -0.0042
    181  CE1       36.6080   43.9290   77.0520 C.ar  364  PHE364     -0.0003
    182  CE2       38.4500   43.0500   75.7630 C.ar  364  PHE364     -0.0003
    183  CZ        37.1300   42.9550   76.2020 C.ar  364  PHE364     -0.0000
    184  N         33.2780   45.7910   79.6560 N.3   373  PHE373     -0.1241
    185  CA        32.6670   45.4330   78.3760 C.3   373  PHE373      0.1605
    186  C         31.7110   46.5050   77.8590 C.2   373  PHE373      0.2264
    187  O         31.7420   46.8440   76.6750 O.2   373  PHE373     -0.2867
    188  CB        31.9250   44.0990   78.4880 C.3   373  PHE373      0.0534
    189  CG        32.8020   42.9080   78.2900 C.ar  373  PHE373     -0.0203
    190  CD1       32.8660   42.2800   77.0490 C.ar  373  PHE373     -0.0042
    191  CD2       33.5680   42.4080   79.3410 C.ar  373  PHE373     -0.0042
    192  CE1       33.6710   41.1610   76.8540 C.ar  373  PHE373     -0.0003
    193  CE2       34.3790   41.2920   79.1600 C.ar  373  PHE373     -0.0003
    194  CZ        34.4340   40.6660   77.9080 C.ar  373  PHE373     -0.0000
    195  N         33.8360   49.3860   76.6830 N.3   376  PHE376     -0.1227
    196  CA        34.7460   49.0790   75.5840 C.3   376  PHE376      0.1736
    197  C         34.0090   48.9310   74.2520 C.2   376  PHE376      0.2595
    198  O         34.4900   49.4090   73.2300 O.2   376  PHE376     -0.2718
    199  CB        35.5410   47.8110   75.9120 C.3   376  PHE376      0.0547
    200  CG        36.7610   47.6080   75.0590 C.ar  376  PHE376     -0.0202
    201  CD1       37.8110   48.5080   75.1010 C.ar  376  PHE376     -0.0042
    202  CD2       36.8730   46.4860   74.2500 C.ar  376  PHE376     -0.0042
    203  CE1       38.9470   48.3210   74.3200 C.ar  376  PHE376     -0.0003
    204  CE2       38.0140   46.2810   73.4720 C.ar  376  PHE376     -0.0003
    205  CZ        39.0530   47.2050   73.5140 C.ar  376  PHE376     -0.0000
    206  N         32.8380   48.2900   74.2760 N.am  377  LEU377     -0.1980
    207  CA        32.0860   47.9880   73.0550 C.3   377  LEU377      0.1596
    208  C         31.5940   49.2380   72.3190 C.2   377  LEU377      0.2287
    209  O         31.1390   50.2020   72.9470 O.2   377  LEU377     -0.2864
    210  CB        30.9030   47.0450   73.3390 C.3   377  LEU377      0.0297
    211  CG        31.1630   45.5840   73.7400 C.3   377  LEU377      0.0022
    212  CD1       30.0030   44.7270   73.2940 C.3   377  LEU377      0.0001
    213  CD2       32.4620   45.0050   73.1820 C.3   377  LEU377      0.0001
    214  N         29.6030   37.7770   78.1920 N.3   413  VAL413     -0.1245
    215  CA        29.2130   37.1180   76.9220 C.3   413  VAL413      0.1561
    216  C         28.4940   35.7810   77.1040 C.2   413  VAL413      0.2260
    217  O         28.5890   34.9030   76.2450 O.2   413  VAL413     -0.2867
    218  CB        30.3970   36.9460   75.9140 C.3   413  VAL413      0.0252
    219  CG1       30.9480   38.3030   75.4800 C.3   413  VAL413      0.0019
    220  CG2       31.5060   36.0260   76.4830 C.3   413  VAL413      0.0019
    221  N         26.2360   34.6490   74.2230 N.3   416  VAL416     -0.1245
    222  CA        27.0150   34.1710   73.0850 C.3   416  VAL416      0.1561
    223  C         27.3970   32.6940   73.2600 C.2   416  VAL416      0.2260
    224  O         27.2460   31.9010   72.3320 O.2   416  VAL416     -0.2867
    225  CB        28.2830   35.0550   72.8270 C.3   416  VAL416      0.0252
    226  CG1       28.9520   34.6600   71.5270 C.3   416  VAL416      0.0019
    227  CG2       27.9160   36.5400   72.7750 C.3   416  VAL416      0.0019
    228  N         24.3670   30.5590   72.8870 N.3   419  ALA419     -0.1245
    229  CA        24.0280   30.5100   71.4640 C.3   419  ALA419      0.1562
    230  C         24.8310   29.4420   70.7190 C.2   419  ALA419      0.2260
    231  O         24.2860   28.7450   69.8640 O.2   419  ALA419     -0.2867
    232  CB        24.2120   31.8680   70.8160 C.3   419  ALA419      0.0290
    233  N         22.8160   26.6550   68.8050 N.3   423  GLN423     -0.1245
    234  CA        22.9320   26.5940   67.3540 C.3   423  GLN423      0.1566
    235  C         23.5350   25.2710   66.8580 C.2   423  GLN423      0.2260
    236  O         23.1210   24.7710   65.8240 O.2   423  GLN423     -0.2867
    237  CB        23.6830   27.8220   66.8270 C.3   423  GLN423      0.0367
    238  CG        22.8090   29.0700   66.8420 C.3   423  GLN423      0.0905
    239  CD        23.5910   30.3580   66.6560 C.2   423  GLN423      0.2608
    240  OE1       24.6790   30.3630   66.0930 O.2   423  GLN423     -0.2717
    241  NE2       23.0280   31.4650   67.1270 N.am  423  GLN423     -0.0878
@<TRIPOS>BOND
     1    88    87    2
     2    87    86    1
     3    86    89    1
     4    86    85    1
     5    67    66    1
     6    89    90    1
     7    90    91    1
     8    66    65    1
     9    91    92    1
    10    92    93    2
    11    65    64    1
    12    93    95    1
    13    93    94    1
    14    62    61    2
    15    63    64    1
    16    63    60    1
    17    61    60    1
    18    61    68   am
    19    60    59    1
    20    59    50   am
    21    48    49    1
    22    70    71    2
    23    70    69    1
    24    41    40    2
    25    75    76    1
    26    40    39    1
    27    69    68    1
    28    69    72    1
    29    77    78    2
    30    77    76    1
    31    50    49    1
    32    50    51    2
    33    49    52    1
    34    76    79    1
    35    34    33    2
    36    55    57   ar
    37    55    53   ar
    38    57    58   ar
    39    74    72    1
    40    72    73    1
    41    39    38    1
    42    39    42    1
    43    33    38   am
    44    33    32    1
    45    52    53    1
    46    53    54   ar
    47    79    80    1
    48    58    56   ar
    49    32    31    1
    50    32    35    1
    51    42    43    1
    52   110   108   am
    53    82    80   ar
    54    82    84   ar
    55    80    81   ar
    56    54    56   ar
    57   107   108    1
    58   107   104    1
    59   103   104    1
    60    84    83   ar
    61   108   109    2
    62    35    37    1
    63    35    36    1
    64    81    83   ar
    65   104   105    1
    66    43    45   ar
    67    43    44   ar
    68    45    47   ar
    69    25    24    2
    70    44    46   ar
    71   119   117   ar
    72   119   121   ar
    73   105   106    2
    74   117   116   ar
    75   122   121    1
    76    24    23    1
    77    20    19    2
    78   121   120   ar
    79    46    47   ar
    80   116   115    1
    81   116   118   ar
    82   115   112    1
    83    19    18    1
    84    19    22   am
    85   236   235    2
    86   120   118   ar
    87   240   239    2
    88    23    22    1
    89    23    26    1
    90    18    17    1
    91    18    21    1
    92     9     8    2
    93   132   130   ar
    94   132   131   ar
    95   239   238    1
    96   239   241   am
    97   237   238    1
    98   237   234    1
    99   235   234    1
   100   111   112    1
   101   112   113    1
   102    27    26    1
   103    27    28    1
   104   130   128   ar
   105   234   233    1
   106     8     7    1
   107   131   129   ar
   108    99    98    2
   109   113   114    2
   110   113   123   am
   111    30    28   am
   112    28    29    2
   113    96    97    1
   114   146   144   ar
   115   146   145   ar
   116   144   142   ar
   117   128   129   ar
   118   128   127    1
   119   123   124    1
   120   145   143   ar
   121    98    97    1
   122     7    10    1
   123     7     6    1
   124   100   102    1
   125   100    97    1
   126   100   101    1
   127    10    11    1
   128   142   141   ar
   129   142   140   ar
   130     4     3    2
   131   143   140   ar
   132   124   127    1
   133   124   125    1
   134   141   139   ar
   135   140   138   ar
   136     6     3   am
   137   231   230    2
   138     3     2    1
   139    12    11   ar
   140    12    14   ar
   141    11    13   ar
   142   139   138   ar
   143   138   137    1
   144   230   229    1
   145   133   125   am
   146   133   134    1
   147   232   229    1
   148   125   126    2
   149   156   155   ar
   150   156   154   ar
   151   155   153   ar
   152     1     2    1
   153     2     5    1
   154   137   134    1
   155    14    16   ar
   156    13    15   ar
   157   229   228    1
   158   226   225    1
   159   134   135    1
   160   163   162    1
   161   154   152   ar
   162   153   152   ar
   163   208   209    2
   164   208   207    1
   165   224   223    2
   166    15    16   ar
   167   227   225    1
   168   225   222    1
   169   135   147   am
   170   135   136    2
   171   152   151    1
   172   207   210    1
   173   207   206    1
   174   222   223    1
   175   222   221    1
   176   213   211    1
   177   198   197    2
   178   147   148    1
   179   212   211    1
   180   210   211    1
   181   204   205   ar
   182   204   202   ar
   183   205   203   ar
   184   162   164    1
   185   162   161    1
   186   172   170    1
   187   148   151    1
   188   148   149    1
   189   202   200   ar
   190   197   206   am
   191   197   196    1
   192   203   201   ar
   193   161   158    1
   194   171   170    1
   195   170   169    1
   196   200   201   ar
   197   200   199    1
   198   219   218    1
   199   149   150    2
   200   196   199    1
   201   196   195    1
   202   182   180   ar
   203   182   183   ar
   204   158   157    1
   205   158   159    1
   206   218   220    1
   207   218   215    1
   208   180   178   ar
   209   183   181   ar
   210   217   216    2
   211   169   166    1
   212   165   159   am
   213   165   166    1
   214   159   160    2
   215   187   186    2
   216   166   167    1
   217   192   190   ar
   218   192   194   ar
   219   215   216    1
   220   215   214    1
   221   178   179   ar
   222   178   177    1
   223   190   189   ar
   224   181   179   ar
   225   177   174    1
   226   186   185    1
   227   194   193   ar
   228   167   168    2
   229   189   188    1
   230   189   191   ar
   231   185   188    1
   232   185   184    1
   233   174   175    1
   234   174   173    1
   235   193   191   ar
   236   175   176    2
