@<TRIPOS>MOLECULE
tmp/3tzlB00.pdb
 97 90 0 0 0
SMALL
GASTEIGER

@<TRIPOS>ATOM
      1  N          5.5930   -0.2980   13.1160 N.3    10  SER10      -0.1217
      2  CA         6.0960    0.1310   11.8150 C.3    10  SER10       0.1889
      3  C          5.0330   -0.0970   10.7480 C.2    10  SER10       0.2288
      4  O          4.2480   -1.0470   10.8350 O.2    10  SER10      -0.2866
      5  CB         7.3960   -0.5910   11.4480 C.3    10  SER10       0.2089
      6  OG         7.1990   -1.9900   11.3530 O.3    10  SER10      -0.2183
      7  N         -2.3440   -3.8220   11.1130 N.3    14  HIS14      -0.1241
      8  CA        -3.3210   -4.7100   10.4860 C.3    14  HIS14       0.1621
      9  C         -4.0420   -5.5940   11.5030 C.2    14  HIS14       0.2264
     10  O         -3.6620   -5.6500   12.6680 O.2    14  HIS14      -0.2867
     11  CB        -2.6830   -5.5420    9.3600 C.3    14  HIS14       0.0745
     12  CG        -1.4690   -6.3160    9.7750 C.ar   14  HIS14       0.0817
     13  ND1       -1.5390   -7.4470   10.5580 N.ar   14  HIS14      -0.2268
     14  CD2       -0.1570   -6.1320    9.4880 C.ar   14  HIS14       0.1154
     15  CE1       -0.3190   -7.9220   10.7500 C.ar   14  HIS14       0.1986
     16  NE2        0.5360   -7.1410   10.1130 N.ar   14  HIS14      -0.2212
     17  N         -3.9230   -8.5110   12.1310 N.3    16  GLY16      -0.1210
     18  CA        -3.0280   -9.4830   12.7300 C.3    16  GLY16       0.1956
     19  C         -2.3520   -8.9320   13.9810 C.2    16  GLY16       0.2611
     20  O         -2.2320   -9.6220   14.9900 O.2    16  GLY16      -0.2717
     21  N         -1.9020   -7.6840   13.9110 N.am   17  ASN17      -0.1974
     22  CA        -1.3860   -7.0000   15.0930 C.3    17  ASN17       0.1688
     23  C         -2.4650   -6.9130   16.1540 C.2    17  ASN17       0.2292
     24  O         -2.1980   -7.0820   17.3390 O.2    17  ASN17      -0.2864
     25  CB        -0.9030   -5.5910   14.7390 C.3    17  ASN17       0.1181
     26  CG         0.1770   -5.5990   13.6830 C.2    17  ASN17       0.2629
     27  OD1       -0.0020   -5.0460   12.6010 O.2    17  ASN17      -0.2716
     28  ND2        1.3100   -6.2310   13.9900 N.am   17  ASN17      -0.0877
     29  N         -3.6560  -10.5690   17.2820 N.3    20  GLY20      -0.1210
     30  CA        -2.4700  -11.2990   17.6960 C.3    20  GLY20       0.1956
     31  C         -1.7660  -10.7500   18.9310 C.2    20  GLY20       0.2611
     32  O         -1.1230  -11.5060   19.6580 O.2    20  GLY20      -0.2717
     33  N         -1.8730   -9.4480   19.1860 N.am   21  ALA21      -0.1979
     34  CA        -1.1610   -8.8670   20.3270 C.3    21  ALA21       0.1597
     35  C         -1.9340   -7.7710   21.0500 C.2    21  ALA21       0.2287
     36  O         -2.0160   -7.7630   22.2780 O.2    21  ALA21      -0.2864
     37  CB         0.1970   -8.3390   19.8900 C.3    21  ALA21       0.0319
     38  N          8.6300  -10.6110   22.3670 N.3   136  GLY136     -0.1225
     39  CA         8.8230  -11.6670   21.4050 C.3   136  GLY136      0.1811
     40  C         10.1800  -12.3120   21.5770 C.2   136  GLY136      0.2280
     41  O         11.1210  -11.6630   21.9530 O.2   136  GLY136     -0.2866
     42  N         -0.5300  -17.5490   20.6180 N.3   172  VAL172     -0.1231
     43  CA        -1.7480  -16.9640   20.0720 C.3   172  VAL172      0.1692
     44  C         -2.1020  -17.4370   18.6550 C.2   172  VAL172      0.2592
     45  O         -1.2270  -17.5990   17.7970 O.2   172  VAL172     -0.2718
     46  CB        -1.7150  -15.4230   20.1570 C.3   172  VAL172      0.0266
     47  CG1       -0.8010  -14.8370   19.0790 C.3   172  VAL172      0.0020
     48  CG2       -3.1230  -14.8670   20.0590 C.3   172  VAL172      0.0020
     49  N         -3.3930  -17.6820   18.4380 N.am  173  ALA173     -0.1966
     50  CA        -3.8970  -18.1510   17.1530 C.3   173  ALA173      0.1728
     51  C         -3.4720  -17.2020   16.0470 C.2   173  ALA173      0.2616
     52  O         -3.7230  -16.0000   16.1160 O.2   173  ALA173     -0.2715
     53  CB        -5.4150  -18.2870   17.1880 C.3   173  ALA173      0.0334
     54  N         -2.8130  -17.7540   15.0370 N.am  174  VAL174     -0.1963
     55  CA        -2.2870  -16.9580   13.9460 C.3   174  VAL174      0.1727
     56  C         -3.4420  -16.3980   13.1200 C.2   174  VAL174      0.2616
     57  O         -4.5210  -16.9950   13.0530 O.2   174  VAL174     -0.2715
     58  CB        -1.3390  -17.7980   13.0680 C.3   174  VAL174      0.0290
     59  CG1       -0.5240  -16.9130   12.1390 C.3   174  VAL174      0.0023
     60  CG2       -0.4120  -18.6110   13.9490 C.3   174  VAL174      0.0023
     61  N         -3.2180  -15.2310   12.5260 N.am  175  VAL175     -0.1977
     62  CA        -4.1950  -14.6030   11.6580 C.3   175  VAL175      0.1596
     63  C         -3.7730  -14.8020   10.2140 C.2   175  VAL175      0.2287
     64  O         -2.6480  -14.4630    9.8210 O.2   175  VAL175     -0.2864
     65  CB        -4.3330  -13.0870   11.9530 C.3   175  VAL175      0.0276
     66  CG1       -5.0190  -12.3760   10.7980 C.3   175  VAL175      0.0022
     67  CG2       -5.0940  -12.8640   13.2560 C.3   175  VAL175      0.0022
     68  N          0.4140  -16.6550    6.7140 N.3   182  LYS182     -0.1245
     69  CA         0.3390  -15.8050    7.9000 C.3   182  LYS182      0.1561
     70  C          0.3570  -14.3490    7.4870 C.2   182  LYS182      0.2260
     71  O          1.2160  -13.9420    6.7100 O.2   182  LYS182     -0.2867
     72  CB         1.5120  -16.0860    8.8360 C.3   182  LYS182      0.0271
     73  CG         1.7590  -15.0110    9.8800 C.3   182  LYS182      0.0035
     74  CD         2.9320  -15.3700   10.7930 C.3   182  LYS182      0.0206
     75  CE         3.1340  -14.3100   11.8740 C.3   182  LYS182      0.1093
     76  NZ         3.7320  -14.8910   13.1090 N.3   182  LYS182     -0.1314
     77  N          1.2170  -10.7040    7.2760 N.3   183  SER183     -0.1202
     78  CA         2.3550   -9.8710    7.6590 C.3   183  SER183      0.2020
     79  C          2.6160   -8.8180    6.5870 C.2   183  SER183      0.2619
     80  O          2.2360   -8.9960    5.4260 O.2   183  SER183     -0.2717
     81  CB         3.6160  -10.7080    7.8750 C.3   183  SER183      0.2103
     82  OG         4.2770  -10.9390    6.6480 O.3   183  SER183     -0.2182
     83  N          3.2620   -7.7240    6.9840 N.am  184  LYS184     -0.1965
     84  CA         3.5490   -6.6220    6.0660 C.3   184  LYS184      0.1728
     85  C          4.5130   -7.0450    4.9610 C.2   184  LYS184      0.2616
     86  O          4.3860   -6.6020    3.8170 O.2   184  LYS184     -0.2715
     87  CB         4.1100   -5.4060    6.8220 C.3   184  LYS184      0.0311
     88  CG         3.1560   -4.8160    7.8490 C.3   184  LYS184      0.0038
     89  CD         3.6290   -3.4640    8.3330 C.3   184  LYS184      0.0206
     90  CE         4.8690   -3.5850    9.1960 C.3   184  LYS184      0.1093
     91  NZ         4.5330   -4.2180   10.4920 N.3   184  LYS184     -0.1314
     92  N          5.4690   -7.9030    5.3110 N.am  185  SER185     -0.1950
     93  CA         6.4850   -8.3710    4.3680 C.3   185  SER185      0.1924
     94  C          5.8350   -9.0550    3.1640 C.2   185  SER185      0.2314
     95  O          6.3170   -8.9480    2.0290 O.2   185  SER185     -0.2863
     96  CB         7.4420   -9.3410    5.0670 C.3   185  SER185      0.2116
     97  OG         7.6650   -8.9550    6.4180 O.3   185  SER185     -0.2180
@<TRIPOS>BOND
     1    95    94    2
     2    94    93    1
     3    86    85    2
     4    93    96    1
     5    93    92    1
     6    85    92   am
     7    85    84    1
     8    96    97    1
     9    80    79    2
    10    84    87    1
    11    84    83    1
    12    79    83   am
    13    79    78    1
    14    82    81    1
    15    71    70    2
    16    68    69    1
    17    87    88    1
    18    77    78    1
    19    70    69    1
    20    78    81    1
    21    88    89    1
    22    69    72    1
    23    89    90    1
    24    72    73    1
    25    90    91    1
    26    11    12    1
    27    11     8    1
    28    14    12   ar
    29    14    16   ar
    30    12    13   ar
    31    64    63    2
    32    73    74    1
    33    16    15   ar
    34    63    62    1
    35     8     7    1
    36     8     9    1
    37    13    15   ar
    38     3     4    2
    39     3     2    1
    40    74    75    1
    41    66    65    1
    42     6     5    1
    43     5     2    1
    44     9    10    2
    45    62    65    1
    46    62    61    1
    47     2     1    1
    48    75    76    1
    49    65    67    1
    50    17    18    1
    51    59    58    1
    52    61    56   am
    53    27    26    2
    54    18    19    1
    55    57    56    2
    56    58    55    1
    57    58    60    1
    58    56    55    1
    59    26    28   am
    60    26    25    1
    61    21    19   am
    62    21    22    1
    63    55    54    1
    64    19    20    2
    65    25    22    1
    66    54    51   am
    67    22    23    1
    68    51    52    2
    69    51    50    1
    70    23    24    2
    71    50    53    1
    72    50    49    1
    73    29    30    1
    74    30    31    1
    75    45    44    2
    76    49    44   am
    77    44    43    1
    78    31    33   am
    79    31    32    2
    80    47    46    1
    81    33    34    1
    82    37    34    1
    83    48    46    1
    84    43    46    1
    85    43    42    1
    86    34    35    1
    87    35    36    2
    88    39    40    1
    89    39    38    1
    90    40    41    2
