@<TRIPOS>MOLECULE
tmp/3tzlB01.pdb
 117 111 0 0 0
SMALL
GASTEIGER

@<TRIPOS>ATOM
      1  N          5.6140   -3.9360   31.8770 N.3     4  LEU4       -0.1231
      2  CA         6.0060   -2.8080   31.0810 C.3     4  LEU4        0.1693
      3  C          6.3180   -3.2580   29.6700 C.2     4  LEU4        0.2593
      4  O          7.0470   -4.2290   29.4720 O.2     4  LEU4       -0.2718
      5  CB         7.2330   -2.1580   31.7070 C.3     4  LEU4        0.0284
      6  CG         7.7820   -0.8990   31.0330 C.3     4  LEU4        0.0019
      7  CD1        8.1220    0.1020   32.1250 C.3     4  LEU4        0.0001
      8  CD2        9.0070   -1.2300   30.2390 C.3     4  LEU4        0.0001
      9  N          5.7720   -2.5380   28.6980 N.am    5  THR5       -0.1939
     10  CA         5.9240   -2.8710   27.2860 C.3     5  THR5        0.2028
     11  C          6.2530   -1.5930   26.5450 C.2     5  THR5        0.2642
     12  O          5.5590   -0.5990   26.7000 O.2     5  THR5       -0.2714
     13  CB         4.5930   -3.3780   26.6810 C.3     5  THR5        0.1808
     14  OG1        4.0160   -4.3780   27.5270 O.3     5  THR5       -0.2208
     15  CG2        4.8160   -3.9600   25.2950 C.3     5  THR5        0.0379
     16  N          7.3130   -1.6080   25.7510 N.am    6  GLY6       -0.1954
     17  CA         7.6140   -0.4910   24.8880 C.3     6  GLY6        0.1869
     18  C          6.9920   -0.7800   23.5390 C.2     6  GLY6        0.2309
     19  O          7.0200   -1.9020   23.0850 O.2     6  GLY6       -0.2863
     20  N          6.7590   -0.0790   19.4460 N.3     8  GLN8       -0.1245
     21  CA         7.4960    0.4730   18.3240 C.3     8  GLN8        0.1566
     22  C          6.9060   -0.0220   17.0210 C.2     8  GLN8        0.2260
     23  O          7.5090   -0.8470   16.3310 O.2     8  GLN8       -0.2867
     24  CB         8.9630    0.0600   18.4090 C.3     8  GLN8        0.0367
     25  CG         9.9440    1.1480   18.0000 C.3     8  GLN8        0.0905
     26  CD        11.3740    0.6600   18.0680 C.2     8  GLN8        0.2608
     27  OE1       11.8050    0.0930   19.0820 O.2     8  GLN8       -0.2717
     28  NE2       12.1110    0.8420   16.9770 N.am    8  GLN8       -0.0878
     29  N          4.6360    2.4670   26.6540 N.3    34  PHE34      -0.1241
     30  CA         5.1390    3.7150   26.1130 C.3    34  PHE34       0.1605
     31  C          5.4440    3.5670   24.6390 C.2    34  PHE34       0.2264
     32  O          5.7830    2.4730   24.1830 O.2    34  PHE34      -0.2867
     33  CB         6.3760    4.2030   26.8790 C.3    34  PHE34       0.0534
     34  CG         7.5440    3.2550   26.8220 C.ar   34  PHE34      -0.0203
     35  CD1        8.5160    3.4040   25.8470 C.ar   34  PHE34      -0.0042
     36  CD2        7.6630    2.2170   27.7390 C.ar   34  PHE34      -0.0042
     37  CE1        9.5850    2.5360   25.7760 C.ar   34  PHE34      -0.0003
     38  CE2        8.7390    1.3330   27.6820 C.ar   34  PHE34      -0.0003
     39  CZ         9.7030    1.4960   26.6960 C.ar   34  PHE34      -0.0000
     40  N          7.9420    3.9880   22.0200 N.3    36  ALA36      -0.1245
     41  CA         9.3890    3.9980   22.1780 C.3    36  ALA36       0.1562
     42  C         10.0060    4.8320   21.0980 C.2    36  ALA36       0.2260
     43  O         10.6440    4.2940   20.2060 O.2    36  ALA36      -0.2867
     44  CB         9.9380    2.5670   22.1050 C.3    36  ALA36       0.0290
     45  N         14.0170    4.8630   20.5580 N.3    39  HIS39      -0.1241
     46  CA        14.4500    3.6530   19.8540 C.3    39  HIS39       0.1621
     47  C         14.1700    3.7060   18.3600 C.2    39  HIS39       0.2264
     48  O         14.9000    3.1110   17.5770 O.2    39  HIS39      -0.2867
     49  CB        13.7980    2.4100   20.4600 C.3    39  HIS39       0.0745
     50  CG        14.3220    2.0530   21.8230 C.ar   39  HIS39       0.0817
     51  ND1       15.4500    1.2810   22.0090 N.ar   39  HIS39      -0.2268
     52  CD2       13.8670    2.3590   23.0620 C.ar   39  HIS39       0.1154
     53  CE1       15.6760    1.1420   23.3040 C.ar   39  HIS39       0.1986
     54  NE2       14.7250    1.7790   23.9650 N.ar   39  HIS39      -0.2212
     55  N         21.5300    0.3700   21.9200 N.3   118  TYR118     -0.1241
     56  CA        20.1210    0.3660   22.3100 C.3   118  TYR118      0.1605
     57  C         19.6570   -0.6360   23.3750 C.2   118  TYR118      0.2264
     58  O         18.7090   -0.3360   24.0850 O.2   118  TYR118     -0.2867
     59  CB        19.1840    0.4160   21.1040 C.3   118  TYR118      0.0534
     60  CG        18.6750   -0.9030   20.5990 C.ar  118  TYR118     -0.0201
     61  CD1       17.5720   -1.5250   21.1780 C.ar  118  TYR118     -0.0009
     62  CD2       19.2610   -1.4990   19.5010 C.ar  118  TYR118     -0.0009
     63  CE1       17.0950   -2.7350   20.6810 C.ar  118  TYR118      0.0417
     64  CE2       18.7970   -2.7030   19.0030 C.ar  118  TYR118      0.0417
     65  CZ        17.7210   -3.3150   19.5900 C.ar  118  TYR118      0.1957
     66  OH        17.2810   -4.5030   19.0510 O.3   118  TYR118     -0.2866
     67  N         17.3710   -1.2370   28.6320 N.3   122  ALA122     -0.1245
     68  CA        17.5120   -1.6270   30.0360 C.3   122  ALA122      0.1562
     69  C         17.1130   -0.4650   30.9480 C.2   122  ALA122      0.2260
     70  O         16.5020   -0.6640   31.9940 O.2   122  ALA122     -0.2867
     71  CB        18.9130   -2.1010   30.3360 C.3   122  ALA122      0.0290
     72  N         14.8250    1.7880   30.1930 N.3   124  ASP124     -0.1225
     73  CA        13.3610    1.7850   30.1190 C.3   124  ASP124      0.1805
     74  C         12.7830    0.8460   31.1550 C.2   124  ASP124      0.2597
     75  O         11.8930    1.2080   31.9030 O.2   124  ASP124     -0.2718
     76  CB        12.8870    1.2950   28.7510 C.3   124  ASP124      0.1424
     77  CG        13.2150    2.2630   27.6280 C.2   124  ASP124      0.3668
     78  OD1       13.1270    3.4970   27.8390 O.co2 124  ASP124     -0.2456
     79  OD2       13.5610    1.7760   26.5280 O.co2 124  ASP124     -0.2456
     80  N         13.2990   -0.3740   31.1790 N.am  125  ILE125     -0.1980
     81  CA        12.8060   -1.4020   32.0790 C.3   125  ILE125      0.1595
     82  C         13.0900   -1.1000   33.5610 C.2   125  ILE125      0.2287
     83  O         12.1810   -1.1480   34.3970 O.2   125  ILE125     -0.2864
     84  CB        13.3940   -2.7540   31.6730 C.3   125  ILE125      0.0276
     85  CG1       12.9650   -3.0810   30.2310 C.3   125  ILE125      0.0022
     86  CG2       12.9800   -3.8410   32.6520 C.3   125  ILE125      0.0022
     87  CD1       13.7840   -4.1540   29.5740 C.3   125  ILE125      0.0001
     88  N          8.3370   -8.1580   31.5240 N.3   133  VAL133     -0.1231
     89  CA         8.4380   -7.4920   30.2370 C.3   133  VAL133      0.1678
     90  C          7.8940   -8.4460   29.1700 C.2   133  VAL133      0.2434
     91  O          8.5460   -9.4380   28.8350 O.2   133  VAL133     -0.2733
     92  CB         9.9050   -7.1000   29.9220 C.3   133  VAL133      0.0265
     93  CG1        9.9950   -6.2800   28.6540 C.3   133  VAL133      0.0020
     94  CG2       10.5230   -6.3210   31.0780 C.3   133  VAL133      0.0020
     95  N          6.6830   -8.1700   28.6520 N.am  134  PRO134     -0.2718
     96  CA         6.1270   -9.0230   27.5920 C.3   134  PRO134      0.1535
     97  C          6.8340   -8.7580   26.2740 C.2   134  PRO134      0.2598
     98  O          6.7530   -7.6380   25.7810 O.2   134  PRO134     -0.2715
     99  CB         4.6670   -8.5600   27.4790 C.3   134  PRO134      0.0310
    100  CG         4.4250   -7.6560   28.6390 C.3   134  PRO134      0.0237
    101  CD         5.7600   -7.0880   29.0260 C.3   134  PRO134      0.0939
    102  N          7.4940   -9.7740   25.7280 N.am  135  VAL135     -0.1978
    103  CA         8.3160   -9.6580   24.5550 C.3   135  VAL135      0.1596
    104  C          8.2500  -10.8490   23.6090 C.2   135  VAL135      0.2287
    105  O          7.9200  -11.9360   23.9880 O.2   135  VAL135     -0.2864
    106  CB         9.7510   -9.5860   24.9490 C.3   135  VAL135      0.0276
    107  CG1       10.0530   -8.2900   25.5650 C.3   135  VAL135      0.0022
    108  CG2       10.0450  -10.6660   25.8840 C.3   135  VAL135      0.0022
    109  N         13.2460  -10.5240   21.7030 N.3   139  GLN139     -0.1245
    110  CA        13.6550   -9.5660   22.6980 C.3   139  GLN139      0.1566
    111  C         14.0930  -10.2040   23.9870 C.2   139  GLN139      0.2260
    112  O         14.4160   -9.5250   24.9150 O.2   139  GLN139     -0.2867
    113  CB        12.5070   -8.5980   22.9910 C.3   139  GLN139      0.0367
    114  CG        12.0270   -7.7680   21.8260 C.3   139  GLN139      0.0905
    115  CD        13.1140   -6.9250   21.2150 C.2   139  GLN139      0.2608
    116  OE1       13.6290   -5.9980   21.8260 O.2   139  GLN139     -0.2717
    117  NE2       13.4620   -7.2340   20.0080 N.am  139  GLN139     -0.0878
@<TRIPOS>BOND
     1    23    22    2
     2    28    26   am
     3    22    21    1
     4    48    47    2
     5    25    26    1
     6    25    24    1
     7    26    27    2
     8    21    24    1
     9    21    20    1
    10    47    46    1
    11    64    62   ar
    12    64    65   ar
    13    66    65    1
    14    62    60   ar
    15    65    63   ar
    16    46    49    1
    17    46    45    1
    18   117   115   am
    19    43    42    2
    20    49    50    1
    21    60    59    1
    22    60    61   ar
    23    63    61   ar
    24    42    41    1
    25    59    56    1
    26   115   114    1
    27   115   116    2
    28   109   110    1
    29    50    51   ar
    30    50    52   ar
    31   114   113    1
    32    55    56    1
    33    51    53   ar
    34    40    41    1
    35    44    41    1
    36    56    57    1
    37   110   113    1
    38   110   111    1
    39    52    54   ar
    40    19    18    2
    41    53    54   ar
    42    57    58    2
    43    18    17    1
    44   104   105    2
    45   104   103    1
    46   111   112    2
    47    32    31    2
    48   103   106    1
    49   103   102    1
    50    31    30    1
    51    17    16    1
    52   106   107    1
    53   106   108    1
    54    15    13    1
    55   102    97   am
    56    16    11   am
    57    37    35   ar
    58    37    39   ar
    59    98    97    2
    60    35    34   ar
    61    30    29    1
    62    30    33    1
    63    97    96    1
    64    79    77   ar
    65    11    12    2
    66    11    10    1
    67    13    10    1
    68    13    14    1
    69    39    38   ar
    70    34    33    1
    71    34    36   ar
    72    10     9    1
    73    99    96    1
    74    99   100    1
    75    96    95    1
    76    77    78   ar
    77    77    76    1
    78    38    36   ar
    79    67    68    1
    80   100   101    1
    81    95   101    1
    82    95    90   am
    83    93    92    1
    84     9     3   am
    85    76    73    1
    86    91    90    2
    87    90    89    1
    88     4     3    2
    89    87    85    1
    90     3     2    1
    91    92    89    1
    92    92    94    1
    93    68    71    1
    94    68    69    1
    95    73    72    1
    96    73    74    1
    97    85    84    1
    98    89    88    1
    99     8     6    1
   100    69    70    2
   101     6     5    1
   102     6     7    1
   103     2     5    1
   104     2     1    1
   105    74    80   am
   106    74    75    2
   107    80    81    1
   108    84    81    1
   109    84    86    1
   110    81    82    1
   111    82    83    2
