@<TRIPOS>MOLECULE
tmp/3tzmA00.pdb
 212 200 0 0 0
SMALL
GASTEIGER

@<TRIPOS>ATOM
      1  N         -3.6630   12.5410    3.7530 N.3    12  ILE12      -0.1245
      2  CA        -3.6090   11.1030    4.0310 C.3    12  ILE12       0.1561
      3  C         -3.2570   10.7130    5.4580 C.2    12  ILE12       0.2260
      4  O         -3.1770    9.5300    5.7670 O.2    12  ILE12      -0.2867
      5  CB        -2.7890   10.3030    2.9820 C.3    12  ILE12       0.0252
      6  CG1       -1.3000   10.6610    3.0290 C.3    12  ILE12       0.0019
      7  CG2       -3.3930   10.4770    1.5790 C.3    12  ILE12       0.0019
      8  CD1       -0.4420    9.8990    1.9920 C.3    12  ILE12       0.0001
      9  N         -1.7100   12.0330    9.6990 N.3    14  LYS14      -0.1231
     10  CA        -0.8410   12.8610   10.5210 C.3    14  LYS14       0.1693
     11  C          0.4380   12.1060   10.8880 C.2    14  LYS14       0.2593
     12  O          0.4310   10.8830   11.0590 O.2    14  LYS14      -0.2718
     13  CB        -1.5780   13.2710   11.7980 C.3    14  LYS14       0.0285
     14  CG        -1.0190   14.5010   12.4890 C.3    14  LYS14       0.0035
     15  CD        -1.7860   14.8210   13.7710 C.3    14  LYS14       0.0206
     16  CE        -1.7180   16.3060   14.0920 C.3    14  LYS14       0.1093
     17  NZ        -2.2850   16.6170   15.4390 N.3    14  LYS14      -0.1314
     18  N          1.5350   12.8440   11.0110 N.am   15  GLY15      -0.1942
     19  CA         2.7360   12.3100   11.6340 C.3    15  GLY15       0.2014
     20  C          2.6940   12.5850   13.1280 C.2    15  GLY15       0.2638
     21  O          1.6630   13.0210   13.6590 O.2    15  GLY15      -0.2714
     22  N          3.8040   12.3210   13.8160 N.am   16  ARG16      -0.1977
     23  CA         3.9430   12.7230   15.2210 C.3    16  ARG16       0.1597
     24  C          3.7450   14.2430   15.3140 C.2    16  ARG16       0.2287
     25  O          2.9590   14.7530   16.1380 O.2    16  ARG16      -0.2864
     26  CB         5.3220   12.3060   15.7430 C.3    16  ARG16       0.0334
     27  CG         5.6160   12.6670   17.2090 C.3    16  ARG16       0.0492
     28  CD         7.0010   12.1510   17.6570 C.3    16  ARG16       0.2205
     29  NE         8.0910   12.8040   16.9170 N.pl3  16  ARG16      -0.0865
     30  CZ         8.6410   12.3160   15.8080 C.cat  16  ARG16       0.5346
     31  NH1        8.2250   11.1540   15.3140 N.pl3  16  ARG16       0.1354
     32  NH2        9.6070   12.9890   15.1930 N.pl3  16  ARG16       0.1354
     33  N          0.5560   14.6190    6.6130 N.3    20  VAL20      -0.1245
     34  CA         1.0000   13.8970    5.4290 C.3    20  VAL20       0.1561
     35  C         -0.0140   14.0110    4.2740 C.2    20  VAL20       0.2260
     36  O         -1.2220   13.8890    4.4710 O.2    20  VAL20      -0.2867
     37  CB         1.3220   12.4100    5.7340 C.3    20  VAL20       0.0252
     38  CG1        1.8770   11.7080    4.4870 C.3    20  VAL20       0.0019
     39  CG2        2.3190   12.3070    6.8930 C.3    20  VAL20       0.0019
     40  N          4.8540   11.2420   -1.4220 N.3    31  ALA31      -0.1245
     41  CA         4.3010   11.6100   -0.1190 C.3    31  ALA31       0.1562
     42  C          4.9990   12.8600    0.3850 C.2    31  ALA31       0.2260
     43  O          6.2120   13.0010    0.2460 O.2    31  ALA31      -0.2867
     44  CB         4.4330   10.4540    0.9060 C.3    31  ALA31       0.0290
     45  N          5.2670   15.3570    3.8260 N.3    33  LYS33      -0.1245
     46  CA         4.9580   15.6530    5.2170 C.3    33  LYS33       0.1561
     47  C          5.2550   17.1220    5.4840 C.2    33  LYS33       0.2260
     48  O          6.3740   17.5930    5.2690 O.2    33  LYS33      -0.2867
     49  CB         5.7360   14.7390    6.1750 C.3    33  LYS33       0.0271
     50  CG         5.2210   14.8240    7.6300 C.3    33  LYS33       0.0035
     51  CD         5.4990   13.5420    8.4220 C.3    33  LYS33       0.0206
     52  CE         6.9870   13.2120    8.4650 C.3    33  LYS33       0.1093
     53  NZ         7.1880   11.9210    9.1700 N.3    33  LYS33      -0.1314
     54  N         14.3560   15.2170   11.4710 N.3    46  GLU46      -0.1245
     55  CA        13.9860   14.1400   10.5620 C.3    46  GLU46       0.1567
     56  C         14.7300   14.2840    9.2270 C.2    46  GLU46       0.2260
     57  O         15.2460   13.3020    8.6920 O.2    46  GLU46      -0.2867
     58  CB        12.4690   14.0660   10.3740 C.3    46  GLU46       0.0388
     59  CG        12.0210   12.7960    9.6330 C.3    46  GLU46       0.1160
     60  CD        10.5200   12.5680    9.7330 C.2    46  GLU46       0.3649
     61  OE1        9.8460   13.3560   10.4180 O.co2  46  GLU46      -0.2457
     62  OE2       10.0030   11.6010    9.1250 O.co2  46  GLU46      -0.2457
     63  N         17.3430   11.4140    7.6130 N.3    50  TYR50      -0.1241
     64  CA        17.1640   10.9010    6.2660 C.3    50  TYR50       0.1605
     65  C         18.3140   11.2300    5.3380 C.2    50  TYR50       0.2264
     66  O         18.5040   10.5570    4.3280 O.2    50  TYR50      -0.2867
     67  CB        15.8480   11.3950    5.6690 C.3    50  TYR50       0.0534
     68  CG        14.6520   10.5110    5.9960 C.ar   50  TYR50      -0.0201
     69  CD1       14.5600    9.2060    5.4980 C.ar   50  TYR50      -0.0009
     70  CD2       13.6020   10.9920    6.7690 C.ar   50  TYR50      -0.0009
     71  CE1       13.4520    8.4000    5.7650 C.ar   50  TYR50       0.0417
     72  CE2       12.4980   10.1840    7.0660 C.ar   50  TYR50       0.0417
     73  CZ        12.4290    8.8900    6.5460 C.ar   50  TYR50       0.1957
     74  OH        11.3380    8.0920    6.8130 O.3    50  TYR50      -0.2866
     75  N         12.2410    3.8680    3.9810 N.3    61  LEU61      -0.1245
     76  CA        11.4770    4.7810    3.1230 C.3    61  LEU61       0.1561
     77  C         12.4200    5.6770    2.3290 C.2    61  LEU61       0.2260
     78  O         13.3150    6.2980    2.9030 O.2    61  LEU61      -0.2867
     79  CB        10.5350    5.6590    3.9630 C.3    61  LEU61       0.0270
     80  CG         9.7510    6.7100    3.1550 C.3    61  LEU61       0.0019
     81  CD1        8.8040    6.0260    2.1310 C.3    61  LEU61       0.0001
     82  CD2        8.9730    7.6220    4.0820 C.3    61  LEU61       0.0001
     83  N         13.8160    8.6740    0.6770 N.3    63  PHE63      -0.1241
     84  CA        13.7120   10.0990    0.9210 C.3    63  PHE63       0.1605
     85  C         14.0580   10.8680   -0.3460 C.2    63  PHE63       0.2264
     86  O         15.0600   10.5760   -1.0050 O.2    63  PHE63      -0.2867
     87  CB        14.6500   10.4750    2.0740 C.3    63  PHE63       0.0534
     88  CG        14.6250   11.9240    2.4390 C.ar   63  PHE63      -0.0203
     89  CD1       13.5980   12.4430    3.2260 C.ar   63  PHE63      -0.0042
     90  CD2       15.6630   12.7620    2.0560 C.ar   63  PHE63      -0.0042
     91  CE1       13.5900   13.7780    3.5890 C.ar   63  PHE63      -0.0003
     92  CE2       15.6670   14.1160    2.4290 C.ar   63  PHE63      -0.0003
     93  CZ        14.6360   14.6160    3.1950 C.ar   63  PHE63      -0.0000
     94  N          8.9360   17.6080    4.0060 N.3    79  LEU79      -0.1231
     95  CA         9.7140   16.4050    3.7140 C.3    79  LEU79       0.1693
     96  C          8.9910   15.6540    2.6170 C.2    79  LEU79       0.2592
     97  O          7.7710   15.4520    2.6960 O.2    79  LEU79      -0.2718
     98  CB         9.8500   15.4930    4.9300 C.3    79  LEU79       0.0284
     99  CG        10.4830   16.0940    6.1850 C.3    79  LEU79       0.0019
    100  CD1       10.4530   15.0700    7.3190 C.3    79  LEU79       0.0001
    101  CD2       11.8970   16.5910    5.9180 C.3    79  LEU79       0.0001
    102  N          9.7270   15.2710    1.5810 N.am   80  VAL80      -0.1966
    103  CA         9.1340   14.5990    0.4230 C.3    80  VAL80       0.1727
    104  C          9.7510   13.2100    0.3210 C.2    80  VAL80       0.2617
    105  O         10.9650   13.0650    0.4290 O.2    80  VAL80      -0.2715
    106  CB         9.4080   15.3800   -0.8900 C.3    80  VAL80       0.0290
    107  CG1        8.6320   14.7640   -2.0700 C.3    80  VAL80       0.0023
    108  CG2        9.0270   16.8540   -0.7260 C.3    80  VAL80       0.0023
    109  N          8.9180   12.1970    0.1230 N.am   81  SER81      -0.1936
    110  CA         9.3850   10.8080    0.0520 C.3    81  SER81       0.2055
    111  C          8.6690   10.0450   -1.0520 C.2    81  SER81       0.2643
    112  O          7.6860   10.5260   -1.6240 O.2    81  SER81      -0.2714
    113  CB         9.1040   10.0930    1.3720 C.3    81  SER81       0.2130
    114  OG         7.7290    9.7230    1.4620 O.3    81  SER81      -0.2179
    115  N          9.1510    8.8380   -1.3260 N.am   82  ASP82      -0.1957
    116  CA         8.4070    7.8850   -2.1520 C.3    82  ASP82       0.1840
    117  C          6.9870    7.7000   -1.6210 C.2    82  ASP82       0.2622
    118  O          6.7420    7.7810   -0.4120 O.2    82  ASP82      -0.2715
    119  CB         9.0830    6.5130   -2.1200 C.3    82  ASP82       0.1450
    120  CG        10.4530    6.4940   -2.7920 C.2    82  ASP82       0.3671
    121  OD1       10.8450    7.4840   -3.4520 O.co2  82  ASP82      -0.2456
    122  OD2       11.1360    5.4480   -2.6580 O.co2  82  ASP82      -0.2456
    123  N          6.0600    7.4120   -2.5280 N.am   83  TYR83      -0.1960
    124  CA         4.6910    7.1080   -2.1540 C.3    83  TYR83       0.1771
    125  C          4.3980    5.6130   -2.2980 C.2    83  TYR83       0.2620
    126  O          4.7770    4.9950   -3.2970 O.2    83  TYR83      -0.2715
    127  CB         3.7480    7.9340   -3.0290 C.3    83  TYR83       0.0574
    128  CG         2.2990    7.6040   -2.8420 C.ar   83  TYR83      -0.0198
    129  CD1        1.5640    8.1700   -1.8060 C.ar   83  TYR83      -0.0009
    130  CD2        1.6580    6.7330   -3.7190 C.ar   83  TYR83      -0.0009
    131  CE1        0.2070    7.8630   -1.6440 C.ar   83  TYR83       0.0417
    132  CE2        0.3290    6.4240   -3.5660 C.ar   83  TYR83       0.0417
    133  CZ        -0.3880    6.9910   -2.5300 C.ar   83  TYR83       0.1957
    134  OH        -1.7130    6.6750   -2.4060 O.3    83  TYR83      -0.2866
    135  N          3.7370    5.0400   -1.2890 N.am   84  HIS84      -0.1959
    136  CA         3.3680    3.6280   -1.2920 C.3    84  HIS84       0.1787
    137  C          1.8820    3.5100   -1.0370 C.2    84  HIS84       0.2620
    138  O          1.4230    3.7420    0.0790 O.2    84  HIS84      -0.2715
    139  CB         4.1810    2.8640   -0.2370 C.3    84  HIS84       0.0785
    140  CG         5.6450    2.8820   -0.5170 C.ar   84  HIS84       0.0821
    141  ND1        6.1840    2.3100   -1.6500 N.ar   84  HIS84      -0.2267
    142  CD2        6.6810    3.4420    0.1560 C.ar   84  HIS84       0.1154
    143  CE1        7.4920    2.5030   -1.6550 C.ar   84  HIS84       0.1986
    144  NE2        7.8200    3.1760   -0.5650 N.ar   84  HIS84      -0.2212
    145  N          1.1470    3.1330   -2.0890 N.am   85  GLU85      -0.1977
    146  CA        -0.3130    3.1550   -2.0660 C.3    85  GLU85       0.1602
    147  C         -0.9550    2.3330   -0.9390 C.2    85  GLU85       0.2287
    148  O         -2.0160    2.7200   -0.4240 O.2    85  GLU85      -0.2864
    149  CB        -0.8680    2.7160   -3.4180 C.3    85  GLU85       0.0415
    150  CG        -2.3610    2.8920   -3.5400 C.3    85  GLU85       0.1163
    151  CD        -2.9140    2.4640   -4.8990 C.2    85  GLU85       0.3649
    152  OE1       -4.0160    2.9280   -5.2480 O.co2  85  GLU85      -0.2457
    153  OE2       -2.2560    1.6690   -5.6100 O.co2  85  GLU85      -0.2457
    154  N         -0.0030    2.1640    2.0120 N.3    87  GLY87      -0.1225
    155  CA         0.1690    2.8500    3.2940 C.3    87  GLY87       0.1811
    156  C          0.8460    1.9650    4.3260 C.2    87  GLY87       0.2280
    157  O          1.6770    1.1220    3.9890 O.2    87  GLY87      -0.2866
    158  N         10.9520    4.3830   17.9880 N.3   134  ASP134     -0.1239
    159  CA         9.4900    4.3480   17.9590 C.3   134  ASP134      0.1674
    160  C          8.9500    3.4430   16.8520 C.2   134  ASP134      0.2266
    161  O          8.0160    3.8120   16.1420 O.2   134  ASP134     -0.2867
    162  CB         8.9380    5.7740   17.8090 C.3   134  ASP134      0.1410
    163  CG         7.4500    5.8710   18.1090 C.2   134  ASP134      0.3668
    164  OD1        6.8980    4.9520   18.7300 O.co2 134  ASP134     -0.2456
    165  OD2        6.8320    6.8790   17.7090 O.co2 134  ASP134     -0.2456
    166  N          6.8620    0.7190   15.0470 N.3   136  LYS136     -0.1245
    167  CA         5.5390    0.1160   15.2350 C.3   136  LYS136      0.1561
    168  C          4.8850   -0.1290   13.8730 C.2   136  LYS136      0.2260
    169  O          5.3960    0.3240   12.8440 O.2   136  LYS136     -0.2867
    170  CB         4.6690    1.0220   16.1200 C.3   136  LYS136      0.0271
    171  CG         4.4420    2.4330   15.5660 C.3   136  LYS136      0.0035
    172  CD         3.5680    3.2410   16.5320 C.3   136  LYS136      0.0206
    173  CE         3.3950    4.6780   16.0900 C.3   136  LYS136      0.1093
    174  NZ         2.5240    5.4130   17.0780 N.3   136  LYS136     -0.1314
    175  N          2.3370    1.1730   12.5580 N.3   138  LYS138     -0.1231
    176  CA         1.8580    2.4160   11.9310 C.3   138  LYS138      0.1693
    177  C          2.9230    3.1950   11.1770 C.2   138  LYS138      0.2592
    178  O          2.5820    4.0350   10.3440 O.2   138  LYS138     -0.2718
    179  CB         1.1610    3.3150   12.9620 C.3   138  LYS138      0.0285
    180  CG        -0.2200    2.7990   13.3240 C.3   138  LYS138      0.0035
    181  CD        -0.8830    3.6440   14.3970 C.3   138  LYS138      0.0206
    182  CE        -2.1250    2.9270   14.9100 C.3   138  LYS138      0.1093
    183  NZ        -2.6600    3.6360   16.1050 N.3   138  LYS138     -0.1314
    184  N          4.2030    2.9390   11.4650 N.am  139  ASN139     -0.1974
    185  CA         5.2740    3.6310   10.7270 C.3   139  ASN139      0.1688
    186  C          6.1730    2.7380    9.8760 C.2   139  ASN139      0.2292
    187  O          7.2670    3.1320    9.4670 O.2   139  ASN139     -0.2864
    188  CB         6.0610    4.6210   11.6090 C.3   139  ASN139      0.1181
    189  CG         6.7020    3.9820   12.8380 C.2   139  ASN139      0.2629
    190  OD1        6.9700    4.6710   13.8310 O.2   139  ASN139     -0.2716
    191  ND2        6.9660    2.7010   12.7790 N.am  139  ASN139     -0.0877
    192  N          5.7970    0.9340    6.2060 N.3   141  LEU141     -0.1245
    193  CA         4.9310    1.0220    5.0150 C.3   141  LEU141      0.1561
    194  C          5.0890   -0.2280    4.1810 C.2   141  LEU141      0.2260
    195  O          6.1570   -0.8570    4.2110 O.2   141  LEU141     -0.2867
    196  CB         5.3020    2.2520    4.1620 C.3   141  LEU141      0.0270
    197  CG         5.1680    3.6070    4.8770 C.3   141  LEU141      0.0019
    198  CD1        6.0110    4.6810    4.2380 C.3   141  LEU141      0.0001
    199  CD2        3.7090    4.0520    4.9100 C.3   141  LEU141      0.0001
    200  N          9.6840    3.8890    8.0930 N.3   151  ALA151     -0.1231
    201  CA         9.5740    5.3470    8.0330 C.3   151  ALA151      0.1694
    202  C          9.5900    5.9660    9.4270 C.2   151  ALA151      0.2592
    203  O          9.8970    5.2870   10.4000 O.2   151  ALA151     -0.2718
    204  CB         8.2980    5.7540    7.2930 C.3   151  ALA151      0.0304
    205  N          9.2850    7.2630    9.4980 N.am  152  ASP152     -0.1974
    206  CA         9.1540    8.0120   10.7600 C.3   152  ASP152      0.1709
    207  C         10.4590    7.9680   11.5650 C.2   152  ASP152      0.2293
    208  O         10.4940    7.5040   12.6950 O.2   152  ASP152     -0.2864
    209  CB         7.9390    7.4730   11.5550 C.3   152  ASP152      0.1436
    210  CG         7.5750    8.3160   12.7650 C.2   152  ASP152      0.3671
    211  OD1        7.7810    9.5510   12.7630 O.co2 152  ASP152     -0.2456
    212  OD2        7.0390    7.7200   13.7280 O.co2 152  ASP152     -0.2456
@<TRIPOS>BOND
     1   153   151   ar
     2   152   151   ar
     3   151   150    1
     4   130   132   ar
     5   130   128   ar
     6   132   133   ar
     7   150   149    1
     8   121   120   ar
     9   149   146    1
    10   126   125    2
    11   127   128    1
    12   127   124    1
    13   128   129   ar
    14   120   122   ar
    15   120   119    1
    16   133   134    1
    17   133   131   ar
    18   123   124    1
    19   123   117   am
    20   125   124    1
    21   125   135   am
    22   116   119    1
    23   116   117    1
    24   116   115    1
    25   145   146    1
    26   145   137   am
    27   107   106    1
    28   146   147    1
    29   129   131   ar
    30   143   141   ar
    31   143   144   ar
    32   141   140   ar
    33   112   111    2
    34   117   118    2
    35    40    41    1
    36   115   111   am
    37   136   135    1
    38   136   137    1
    39   136   139    1
    40   111   110    1
    41   137   138    2
    42    86    85    2
    43   147   148    2
    44   106   108    1
    45   106   103    1
    46   144   142   ar
    47   140   139    1
    48   140   142   ar
    49    85    84    1
    50    41    42    1
    51    41    44    1
    52   110   109    1
    53   110   113    1
    54   109   104   am
    55    43    42    2
    56   104   103    1
    57   104   105    2
    58   103   102    1
    59    83    84    1
    60    84    87    1
    61   113   114    1
    62     7     5    1
    63   102    96   am
    64     8     6    1
    65   154   155    1
    66    90    92   ar
    67    90    88   ar
    68    87    88    1
    69    81    80    1
    70    77    78    2
    71    77    76    1
    72    92    93   ar
    73    88    89   ar
    74    96    97    2
    75    96    95    1
    76     5     6    1
    77     5     2    1
    78    76    79    1
    79    76    75    1
    80    80    79    1
    81    80    82    1
    82    93    91   ar
    83    89    91   ar
    84   155   156    1
    85    95    94    1
    86    95    98    1
    87     1     2    1
    88    45    46    1
    89   157   156    2
    90     2     3    1
    91   196   197    1
    92   196   193    1
    93   194   195    2
    94   194   193    1
    95   198   197    1
    96    35    36    2
    97    35    34    1
    98    66    65    2
    99    38    37    1
   100   197   199    1
   101    98    99    1
   102   193   192    1
   103    46    47    1
   104    46    49    1
   105    48    47    2
   106    65    64    1
   107    34    37    1
   108    34    33    1
   109     3     4    2
   110    69    71   ar
   111    69    68   ar
   112    67    68    1
   113    67    64    1
   114    37    39    1
   115    71    73   ar
   116   101    99    1
   117    68    70   ar
   118    49    50    1
   119    99   100    1
   120    64    63    1
   121    73    74    1
   122    73    72   ar
   123    70    72   ar
   124   204   201    1
   125    50    51    1
   126   201   200    1
   127   201   202    1
   128    51    52    1
   129    52    53    1
   130    57    56    2
   131    62    60   ar
   132    56    55    1
   133   202   205   am
   134   202   203    2
   135   187   186    2
   136   205   206    1
   137    59    60    1
   138    59    58    1
   139     9    10    1
   140    60    61   ar
   141   186   185    1
   142   178   177    2
   143    58    55    1
   144    10    11    1
   145    10    13    1
   146    55    54    1
   147   185   184    1
   148   185   188    1
   149   206   209    1
   150   206   207    1
   151    11    18   am
   152    11    12    2
   153    18    19    1
   154   177   184   am
   155   177   176    1
   156   209   210    1
   157   207   208    2
   158   188   189    1
   159    19    20    1
   160    13    14    1
   161   176   175    1
   162   176   179    1
   163    14    15    1
   164   211   210   ar
   165   210   212   ar
   166   191   189   am
   167   189   190    2
   168   169   168    2
   169   179   180    1
   170    20    21    2
   171    20    22   am
   172   180   181    1
   173    15    16    1
   174    22    23    1
   175   168   167    1
   176    16    17    1
   177   181   182    1
   178   182   183    1
   179   166   167    1
   180    32    30    1
   181    23    24    1
   182    23    26    1
   183   167   170    1
   184    31    30    1
   185    24    25    2
   186   171   170    1
   187   171   172    1
   188    26    27    1
   189    30    29    2
   190   173   172    1
   191   173   174    1
   192   161   160    2
   193   160   159    1
   194    29    28    1
   195    27    28    1
   196   165   163   ar
   197   162   159    1
   198   162   163    1
   199   159   158    1
   200   163   164   ar
