@<TRIPOS>MOLECULE
tmp/3tzqE00.pdb
 112 107 0 0 0
SMALL
GASTEIGER

@<TRIPOS>ATOM
      1  N         35.3600    7.8630   66.0110 N.3   140  SER140     -0.1202
      2  CA        35.5450    8.8780   64.9740 C.3   140  SER140      0.2020
      3  C         36.8190    9.6840   65.3070 C.2   140  SER140      0.2619
      4  O         37.1520    9.9150   66.4930 O.2   140  SER140     -0.2717
      5  CB        34.3200    9.8200   64.9130 C.3   140  SER140      0.2103
      6  OG        34.5300   11.0110   64.1280 O.3   140  SER140     -0.2182
      7  N         37.5270   10.1230   64.2780 N.am  141  ALA141     -0.1965
      8  CA        38.5950   11.0740   64.4830 C.3   141  ALA141      0.1728
      9  C         38.0880   12.2850   65.2930 C.2   141  ALA141      0.2616
     10  O         38.8540   12.8770   66.0550 O.2   141  ALA141     -0.2715
     11  CB        39.1890   11.5150   63.1480 C.3   141  ALA141      0.0334
     12  N         36.8070   12.6370   65.1480 N.am  142  THR142     -0.1951
     13  CA        36.2330   13.8380   65.7780 C.3   142  THR142      0.1897
     14  C         36.1710   13.8160   67.3040 C.2   142  THR142      0.2313
     15  O         35.9470   14.8370   67.9130 O.2   142  THR142     -0.2863
     16  CB        34.8020   14.0870   65.2840 C.3   142  THR142      0.1794
     17  OG1       33.9690   12.9380   65.5710 O.3   142  THR142     -0.2208
     18  CG2       34.8020   14.4000   63.7620 C.3   142  THR142      0.0378
     19  N         35.8830   20.4830   65.6920 N.3   147  TYR147     -0.1241
     20  CA        35.6330   21.5680   64.7490 C.3   147  TYR147      0.1605
     21  C         34.2670   22.1490   65.0290 C.2   147  TYR147      0.2264
     22  O         33.7510   21.9600   66.1170 O.2   147  TYR147     -0.2867
     23  CB        35.8650   21.1450   63.2790 C.3   147  TYR147      0.0534
     24  CG        34.8920   20.1730   62.6530 C.ar  147  TYR147     -0.0201
     25  CD1       34.4610   20.3670   61.3530 C.ar  147  TYR147     -0.0009
     26  CD2       34.4460   19.0510   63.3260 C.ar  147  TYR147     -0.0009
     27  CE1       33.6010   19.4910   60.7430 C.ar  147  TYR147      0.0417
     28  CE2       33.5830   18.1580   62.7240 C.ar  147  TYR147      0.0417
     29  CZ        33.1610   18.3890   61.4250 C.ar  147  TYR147      0.1957
     30  OH        32.2750   17.5280   60.7900 O.3   147  TYR147     -0.2866
     31  N         29.1270   18.7000   64.7270 N.3   150  SER150     -0.1217
     32  CA        29.1030   17.3220   65.2250 C.3   150  SER150      0.1889
     33  C         29.6320   17.1650   66.6550 C.2   150  SER150      0.2288
     34  O         30.3570   16.2090   66.9630 O.2   150  SER150     -0.2866
     35  CB        29.8280   16.3890   64.2580 C.3   150  SER150      0.2089
     36  OG        29.1990   16.4650   62.9860 O.3   150  SER150     -0.2183
     37  N         27.7370   14.2370   68.4640 N.3   153  TYR153     -0.1241
     38  CA        28.2610   13.0370   67.8300 C.3   153  TYR153      0.1605
     39  C         29.6900   12.7290   68.3250 C.2   153  TYR153      0.2264
     40  O         29.9870   11.5890   68.6650 O.2   153  TYR153     -0.2867
     41  CB        28.1980   13.1760   66.2950 C.3   153  TYR153      0.0534
     42  CG        28.8100   12.0290   65.5290 C.ar  153  TYR153     -0.0201
     43  CD1       28.0540   10.9280   65.1410 C.ar  153  TYR153     -0.0009
     44  CD2       30.1450   12.0430   65.1820 C.ar  153  TYR153     -0.0009
     45  CE1       28.6300    9.8710   64.4300 C.ar  153  TYR153      0.0417
     46  CE2       30.7230   10.9990   64.4720 C.ar  153  TYR153      0.0417
     47  CZ        29.9690    9.9210   64.0950 C.ar  153  TYR153      0.1957
     48  OH        30.5810    8.8910   63.3900 O.3   153  TYR153     -0.2866
     49  N         37.8570    6.3700   62.4080 N.3   183  PRO183     -0.2102
     50  CA        38.1470    6.6910   61.0240 C.3   183  PRO183      0.1504
     51  C         38.3880    8.1830   60.8110 C.2   183  PRO183      0.2576
     52  O         37.9110    9.0060   61.6030 O.2   183  PRO183     -0.2718
     53  CB        36.8740    6.2390   60.2860 C.3   183  PRO183      0.0282
     54  CG        36.2100    5.2680   61.2030 C.3   183  PRO183      0.0208
     55  CD        36.4940    5.8320   62.5570 C.3   183  PRO183      0.0893
     56  N         39.1300    8.5200   59.7570 N.am  184  GLY184     -0.1943
     57  CA        39.1020    9.8770   59.2290 C.3   184  GLY184      0.2014
     58  C         37.8080   10.0290   58.4510 C.2   184  GLY184      0.2638
     59  O         36.8230    9.3770   58.7580 O.2   184  GLY184     -0.2714
     60  N         37.8330   10.8680   57.4240 N.am  185  LEU185     -0.1977
     61  CA        36.7460   10.9710   56.4700 C.3   185  LEU185      0.1596
     62  C         36.7380    9.7510   55.5520 C.2   185  LEU185      0.2287
     63  O         37.7760    9.3490   55.0150 O.2   185  LEU185     -0.2864
     64  CB        36.8710   12.2560   55.6280 C.3   185  LEU185      0.0297
     65  CG        35.6410   13.1550   55.6190 C.3   185  LEU185      0.0022
     66  CD1       35.1350   13.3930   57.0390 C.3   185  LEU185      0.0001
     67  CD2       35.9200   14.4890   54.9340 C.3   185  LEU185      0.0001
     68  N         27.8050   11.0890   53.8980 N.3   191  LEU191     -0.1245
     69  CA        28.7330   12.2090   53.7780 C.3   191  LEU191      0.1561
     70  C         28.3450   13.1760   52.6820 C.2   191  LEU191      0.2260
     71  O         28.3150   14.3820   52.9110 O.2   191  LEU191     -0.2867
     72  CB        30.1580   11.7210   53.5280 C.3   191  LEU191      0.0270
     73  CG        31.2260   12.8110   53.6280 C.3   191  LEU191      0.0019
     74  CD1       31.4540   13.1900   55.0930 C.3   191  LEU191      0.0001
     75  CD2       32.5100   12.3290   52.9740 C.3   191  LEU191      0.0001
     76  N         28.0630   16.8400   54.4150 N.3   195  LEU195     -0.1245
     77  CA        29.1760   17.7670   54.4150 C.3   195  LEU195      0.1561
     78  C         29.4370   18.3520   53.0250 C.2   195  LEU195      0.2260
     79  O         29.7890   17.6170   52.0960 O.2   195  LEU195     -0.2867
     80  CB        30.4120   17.0420   54.9330 C.3   195  LEU195      0.0270
     81  CG        31.4170   17.9130   55.6780 C.3   195  LEU195      0.0019
     82  CD1       30.7640   18.5870   56.8860 C.3   195  LEU195      0.0001
     83  CD2       32.6000   17.0420   56.0780 C.3   195  LEU195      0.0001
     84  N         39.3520   18.8450   53.9850 N.3   203  PHE203     -0.1241
     85  CA        39.7340   17.6790   54.7780 C.3   203  PHE203      0.1605
     86  C         40.6060   16.6900   53.9930 C.2   203  PHE203      0.2264
     87  O         41.5510   16.1240   54.5500 O.2   203  PHE203     -0.2867
     88  CB        38.5000   16.9580   55.3630 C.3   203  PHE203      0.0534
     89  CG        37.9510   17.5870   56.6290 C.ar  203  PHE203     -0.0203
     90  CD1       38.7800   17.9330   57.6830 C.ar  203  PHE203     -0.0042
     91  CD2       36.5930   17.7920   56.7780 C.ar  203  PHE203     -0.0042
     92  CE1       38.2620   18.5020   58.8380 C.ar  203  PHE203     -0.0003
     93  CE2       36.0670   18.3620   57.9260 C.ar  203  PHE203     -0.0003
     94  CZ        36.9020   18.7080   58.9590 C.ar  203  PHE203     -0.0000
     95  N         44.6070   14.4260   54.8280 N.3   207  HIS207     -0.1241
     96  CA        44.8570   13.0030   54.9740 C.3   207  HIS207      0.1621
     97  C         46.0610   12.8320   54.1620 C.2   207  HIS207      0.2264
     98  O         46.1490   13.4020   53.0870 O.2   207  HIS207     -0.2867
     99  CB        43.7020   12.1740   54.4480 C.3   207  HIS207      0.0745
    100  CG        42.4530   12.3420   55.2520 C.ar  207  HIS207      0.0817
    101  ND1       41.7350   13.4680   55.2250 N.ar  207  HIS207     -0.2268
    102  CD2       41.8260   11.5000   56.1540 C.ar  207  HIS207      0.1154
    103  CE1       40.6880   13.3550   56.0580 C.ar  207  HIS207      0.1986
    104  NE2       40.7490   12.1530   56.6330 N.ar  207  HIS207     -0.2212
    105  N         45.7800   11.6930   59.7350 N.3   244  LEU244     -0.1245
    106  CA        45.0650   12.9750   59.8050 C.3   244  LEU244      0.1561
    107  C         45.4620   13.8070   61.0030 C.2   244  LEU244      0.2260
    108  O         45.4020   15.0350   60.9340 O.2   244  LEU244     -0.2867
    109  CB        43.5350   12.7540   59.8490 C.3   244  LEU244      0.0270
    110  CG        42.5690   13.9650   59.9710 C.3   244  LEU244      0.0019
    111  CD1       42.6240   14.8710   58.7430 C.3   244  LEU244      0.0001
    112  CD2       41.1360   13.4900   60.2100 C.3   244  LEU244      0.0001
@<TRIPOS>BOND
     1    79    78    2
     2    70    71    2
     3    70    69    1
     4    75    73    1
     5    78    77    1
     6    98    97    2
     7    72    73    1
     8    72    69    1
     9    73    74    1
    10    69    68    1
    11    84    85    1
    12    86    87    2
    13    86    85    1
    14    97    96    1
    15    76    77    1
    16    77    80    1
    17    99    96    1
    18    99   100    1
    19    85    88    1
    20    95    96    1
    21    80    81    1
    22    67    65    1
    23    63    62    2
    24   101   100   ar
    25   101   103   ar
    26   100   102   ar
    27    88    89    1
    28    62    61    1
    29    65    64    1
    30    65    66    1
    31    64    61    1
    32    81    83    1
    33    81    82    1
    34   103   104   ar
    35   102   104   ar
    36    61    60    1
    37    89    91   ar
    38    89    90   ar
    39    91    93   ar
    40    60    58   am
    41    90    92   ar
    42    93    94   ar
    43    58    59    2
    44    58    57    1
    45   111   110    1
    46    92    94   ar
    47    57    56    1
    48   105   106    1
    49    56    51   am
    50   106   109    1
    51   106   107    1
    52   109   110    1
    53   110   112    1
    54    53    50    1
    55    53    54    1
    56    27    25   ar
    57    27    29   ar
    58    30    29    1
    59    51    50    1
    60    51    52    2
    61   108   107    2
    62    50    49    1
    63    54    55    1
    64    25    24   ar
    65    29    28   ar
    66    49    55    1
    67    24    23    1
    68    24    26   ar
    69    28    26   ar
    70    36    35    1
    71    11     8    1
    72    23    20    1
    73    48    47    1
    74    18    16    1
    75    47    45   ar
    76    47    46   ar
    77     6     5    1
    78    35    32    1
    79     7     8    1
    80     7     3   am
    81    45    43   ar
    82    46    44   ar
    83     8     9    1
    84    31    32    1
    85    20    21    1
    86    20    19    1
    87     5     2    1
    88     2     3    1
    89     2     1    1
    90    21    22    2
    91    43    42   ar
    92    12     9   am
    93    12    13    1
    94    44    42   ar
    95    32    33    1
    96    16    17    1
    97    16    13    1
    98     9    10    2
    99     3     4    2
   100    42    41    1
   101    13    14    1
   102    41    38    1
   103    33    34    2
   104    14    15    2
   105    38    39    1
   106    38    37    1
   107    39    40    2
