@<TRIPOS>MOLECULE
tmp/3tzxA00.pdb
 160 151 0 0 0
SMALL
GASTEIGER

@<TRIPOS>ATOM
      1  N         20.6050  -19.2340  -33.5220 N.3    30  LEU30      -0.1245
      2  CA        19.7110  -18.8570  -32.4640 C.3    30  LEU30       0.1561
      3  C         19.4820  -20.0950  -31.5550 C.2    30  LEU30       0.2260
      4  O         19.0900  -21.1870  -32.0140 O.2    30  LEU30      -0.2867
      5  CB        18.4170  -18.2870  -33.0240 C.3    30  LEU30       0.0270
      6  CG        17.4380  -17.6600  -31.9840 C.3    30  LEU30       0.0019
      7  CD1       17.9180  -16.3270  -31.3840 C.3    30  LEU30       0.0001
      8  CD2       16.0260  -17.5400  -32.5320 C.3    30  LEU30       0.0001
      9  N         15.3930  -16.8400  -26.4860 N.3    84  LEU84      -0.1245
     10  CA        16.0040  -17.2540  -27.7200 C.3    84  LEU84       0.1561
     11  C         17.2190  -16.3510  -27.8470 C.2    84  LEU84       0.2260
     12  O         17.0490  -15.1310  -27.9100 O.2    84  LEU84      -0.2867
     13  CB        15.0450  -17.0460  -28.9060 C.3    84  LEU84       0.0270
     14  CG        13.8050  -17.9280  -28.9780 C.3    84  LEU84       0.0019
     15  CD1       12.7930  -17.2850  -29.9120 C.3    84  LEU84       0.0001
     16  CD2       14.1150  -19.2990  -29.5160 C.3    84  LEU84       0.0001
     17  N         21.5230  -15.6780  -29.2820 N.3    86  HIS86      -0.1241
     18  CA        22.6840  -15.9530  -30.1340 C.3    86  HIS86       0.1621
     19  C         23.9850  -15.9400  -29.3580 C.2    86  HIS86       0.2264
     20  O         24.9380  -16.4910  -29.8500 O.2    86  HIS86      -0.2867
     21  CB        22.8750  -14.8860  -31.2190 C.3    86  HIS86       0.0745
     22  CG        21.7130  -14.7410  -32.1740 C.ar   86  HIS86       0.0817
     23  ND1       20.7370  -13.8060  -31.9910 N.ar   86  HIS86      -0.2268
     24  CD2       21.4330  -15.3770  -33.3700 C.ar   86  HIS86       0.1154
     25  CE1       19.8630  -13.8730  -33.0150 C.ar   86  HIS86       0.1986
     26  NE2       20.2930  -14.8230  -33.8660 N.ar   86  HIS86      -0.2212
     27  N         22.8770  -11.7830  -24.7880 N.3    90  GLU90      -0.1245
     28  CA        21.4820  -11.8540  -25.1540 C.3    90  GLU90       0.1567
     29  C         20.7910  -12.7160  -24.1080 C.2    90  GLU90       0.2260
     30  O         19.7800  -12.2990  -23.5190 O.2    90  GLU90      -0.2867
     31  CB        21.3050  -12.3890  -26.5930 C.3    90  GLU90       0.0388
     32  CG        21.6140  -11.3280  -27.6830 C.3    90  GLU90       0.1160
     33  CD        21.4810  -11.8090  -29.1470 C.2    90  GLU90       0.3649
     34  OE1       22.1280  -11.1740  -30.0320 O.co2  90  GLU90      -0.2457
     35  OE2       20.7840  -12.8240  -29.4310 O.co2  90  GLU90      -0.2457
     36  N         10.0550   -8.9450  -23.6940 N.3   104  ALA104     -0.1231
     37  CA        11.0530   -8.5840  -24.6800 C.3   104  ALA104      0.1679
     38  C         10.8170   -9.4310  -25.8810 C.2   104  ALA104      0.2434
     39  O         10.1800  -10.4950  -25.7980 O.2   104  ALA104     -0.2733
     40  CB        12.4680   -8.7790  -24.1500 C.3   104  ALA104      0.0304
     41  N         11.3490   -8.9800  -27.0120 N.am  105  PRO105     -0.2718
     42  CA        11.0290   -9.6850  -28.2460 C.3   105  PRO105      0.1535
     43  C         11.6150  -11.1030  -28.2530 C.2   105  PRO105      0.2599
     44  O         11.0460  -12.0040  -28.8600 O.2   105  PRO105     -0.2715
     45  CB        11.6430   -8.7930  -29.3490 C.3   105  PRO105      0.0310
     46  CG        11.8580   -7.4650  -28.7020 C.3   105  PRO105      0.0237
     47  CD        12.2050   -7.8080  -27.2620 C.3   105  PRO105      0.0939
     48  N         12.7250  -11.3350  -27.5690 N.am  106  ASN106     -0.1959
     49  CA        13.3120  -12.6880  -27.6650 C.3   106  ASN106      0.1819
     50  C         12.9090  -13.6200  -26.5520 C.2   106  ASN106      0.2621
     51  O         13.4950  -14.6830  -26.4160 O.2   106  ASN106     -0.2715
     52  CB        14.8340  -12.6290  -27.7820 C.3   106  ASN106      0.1195
     53  CG        15.4690  -11.9710  -26.6120 C.2   106  ASN106      0.2630
     54  OD1       14.8740  -11.1010  -25.9750 O.2   106  ASN106     -0.2716
     55  ND2       16.6780  -12.3970  -26.2880 N.am  106  ASN106     -0.0877
     56  N         11.8790  -13.2380  -25.8050 N.am  107  VAL107     -0.1963
     57  CA        11.4230  -13.9780  -24.6470 C.3   107  VAL107      0.1727
     58  C          9.9880  -14.3670  -24.8100 C.2   107  VAL107      0.2616
     59  O          9.1670  -13.5360  -25.1060 O.2   107  VAL107     -0.2715
     60  CB        11.4770  -13.0460  -23.4060 C.3   107  VAL107      0.0290
     61  CG1       10.6870  -13.5980  -22.2110 C.3   107  VAL107      0.0023
     62  CG2       12.9220  -12.7200  -23.0360 C.3   107  VAL107      0.0023
     63  N          9.6570  -15.6160  -24.5610 N.am  108  PHE108     -0.1974
     64  CA         8.2790  -15.9400  -24.3710 C.3   108  PHE108      0.1639
     65  C          8.0500  -16.5710  -22.9960 C.2   108  PHE108      0.2290
     66  O          8.8190  -17.4430  -22.5780 O.2   108  PHE108     -0.2864
     67  CB         7.8490  -16.8860  -25.4330 C.3   108  PHE108      0.0560
     68  CG         7.9140  -16.3220  -26.8010 C.ar  108  PHE108     -0.0200
     69  CD1        6.8520  -15.5920  -27.3080 C.ar  108  PHE108     -0.0042
     70  CD2        9.0130  -16.5930  -27.6230 C.ar  108  PHE108     -0.0042
     71  CE1        6.9020  -15.0940  -28.5890 C.ar  108  PHE108     -0.0003
     72  CE2        9.0660  -16.1010  -28.9250 C.ar  108  PHE108     -0.0003
     73  CZ         8.0110  -15.3420  -29.4020 C.ar  108  PHE108     -0.0000
     74  N          4.5940  -14.9360  -43.7740 N.3   397  PRO397     -0.2116
     75  CA         3.3560  -15.1550  -42.9910 C.3   397  PRO397      0.1372
     76  C          2.1220  -14.2150  -43.2800 C.2   397  PRO397      0.2244
     77  O          1.5000  -13.6860  -42.3370 O.2   397  PRO397     -0.2868
     78  CB         3.8470  -14.9090  -41.5560 C.3   397  PRO397      0.0268
     79  CG         4.9180  -13.8090  -41.7180 C.3   397  PRO397      0.0207
     80  CD         5.6310  -14.1730  -43.0210 C.3   397  PRO397      0.0892
     81  N         -1.5020  -14.8160  -41.3750 N.3   400  LEU400     -0.1231
     82  CA        -1.6380  -14.4430  -39.9400 C.3   400  LEU400      0.1693
     83  C         -2.0040  -13.0170  -39.7200 C.2   400  LEU400      0.2591
     84  O         -2.6380  -12.6940  -38.7140 O.2   400  LEU400     -0.2718
     85  CB        -0.3720  -14.6710  -39.1460 C.3   400  LEU400      0.0284
     86  CG         0.0120  -16.0440  -38.6180 C.3   400  LEU400      0.0019
     87  CD1        1.2200  -15.7960  -37.7270 C.3   400  LEU400      0.0001
     88  CD2       -1.0810  -16.8590  -37.9000 C.3   400  LEU400      0.0001
     89  N         -1.6290  -12.1030  -40.6080 N.am  401  MET401     -0.1979
     90  CA        -2.1960  -10.7860  -40.3560 C.3   401  MET401      0.1605
     91  C         -3.7110  -10.8240  -40.5720 C.2   401  MET401      0.2287
     92  O         -4.4260  -10.0910  -39.9130 O.2   401  MET401     -0.2864
     93  CB        -1.4920   -9.5960  -41.0450 C.3   401  MET401      0.0413
     94  CG        -1.2890   -8.3600  -40.0910 C.3   401  MET401      0.0598
     95  SD        -2.5620   -7.5970  -38.9330 S.3   401  MET401     -0.1393
     96  CE        -1.5310   -7.2980  -37.4660 C.3   401  MET401      0.0692
     97  N         -5.2670  -12.3320  -37.4270 N.3   404  ALA404     -0.1245
     98  CA        -5.3290  -11.3630  -36.3330 C.3   404  ALA404      0.1562
     99  C         -6.5410  -10.4760  -36.4440 C.2   404  ALA404      0.2260
    100  O         -7.1090  -10.0500  -35.4200 O.2   404  ALA404     -0.2867
    101  CB        -4.0730  -10.5070  -36.2780 C.3   404  ALA404      0.0290
    102  N         -0.2690  -16.2000  -32.2640 N.3   417  LEU417     -0.1245
    103  CA        -0.1540  -16.1710  -33.7480 C.3   417  LEU417      0.1561
    104  C          1.2850  -16.5580  -34.1190 C.2   417  LEU417      0.2260
    105  O          2.1890  -15.7810  -33.9330 O.2   417  LEU417     -0.2867
    106  CB        -0.5630  -14.7900  -34.2480 C.3   417  LEU417      0.0270
    107  CG        -2.0610  -14.5780  -33.9100 C.3   417  LEU417      0.0019
    108  CD1       -2.5510  -13.2380  -34.3890 C.3   417  LEU417      0.0001
    109  CD2       -2.9480  -15.7000  -34.4780 C.3   417  LEU417      0.0001
    110  N          4.1070  -17.6870  -36.7550 N.3   419  PRO419     -0.2116
    111  CA         4.6120  -17.8560  -38.1680 C.3   419  PRO419      0.1372
    112  C          5.6900  -18.8610  -38.3090 C.2   419  PRO419      0.2244
    113  O          6.1790  -19.3190  -37.2690 O.2   419  PRO419     -0.2868
    114  CB         5.3290  -16.5380  -38.4530 C.3   419  PRO419      0.0268
    115  CG         5.7530  -16.0560  -37.1340 C.3   419  PRO419      0.0207
    116  CD         4.6760  -16.4920  -36.1290 C.3   419  PRO419      0.0892
    117  N         14.4640  -13.2300  -43.1050 N.3   425  GLN425     -0.1231
    118  CA        14.7110  -13.7590  -41.7690 C.3   425  GLN425      0.1698
    119  C         15.3710  -15.0750  -42.0160 C.2   425  GLN425      0.2592
    120  O         14.9510  -15.8290  -42.9250 O.2   425  GLN425     -0.2718
    121  CB        13.4220  -13.9390  -40.9500 C.3   425  GLN425      0.0381
    122  CG        12.6600  -12.6540  -40.6160 C.3   425  GLN425      0.0905
    123  CD        13.4310  -11.7130  -39.6980 C.2   425  GLN425      0.2608
    124  OE1       14.4850  -12.0730  -39.1600 O.2   425  GLN425     -0.2717
    125  NE2       12.9100  -10.4840  -39.5180 N.am  425  GLN425     -0.0878
    126  N         16.4160  -15.3580  -41.2340 N.am  426  ASP426     -0.1974
    127  CA        17.0700  -16.6560  -41.3270 C.3   426  ASP426      0.1709
    128  C         16.0410  -17.7600  -41.0500 C.2   426  ASP426      0.2293
    129  O         15.3600  -17.7400  -40.0260 O.2   426  ASP426     -0.2864
    130  CB        18.1830  -16.7240  -40.3180 C.3   426  ASP426      0.1436
    131  CG        18.9420  -18.0080  -40.4080 C.2   426  ASP426      0.3671
    132  OD1       18.4630  -19.0530  -39.8930 O.co2 426  ASP426     -0.2456
    133  OD2       20.0090  -17.9900  -41.0310 O.co2 426  ASP426     -0.2456
    134  N         16.6530  -20.0990  -37.9710 N.3   429  SER429     -0.1202
    135  CA        16.2340  -19.4010  -36.7760 C.3   429  SER429      0.2020
    136  C         14.7120  -19.3720  -36.6110 C.2   429  SER429      0.2619
    137  O         14.1520  -19.4780  -35.5020 O.2   429  SER429     -0.2717
    138  CB        16.6540  -17.9590  -36.8530 C.3   429  SER429      0.2103
    139  OG        18.0130  -17.8950  -36.8020 O.3   429  SER429     -0.2182
    140  N         14.0470  -19.1420  -37.7230 N.am  430  SER430     -0.1951
    141  CA        12.6390  -18.9380  -37.6980 C.3   430  SER430      0.1924
    142  C         11.9990  -20.1930  -37.1710 C.2   430  SER430      0.2314
    143  O         11.1040  -20.1330  -36.3690 O.2   430  SER430     -0.2863
    144  CB        12.1630  -18.6310  -39.1400 C.3   430  SER430      0.2116
    145  OG        12.3180  -17.2280  -39.3360 O.3   430  SER430     -0.2180
    146  N         12.5130  -20.5860  -33.5330 N.3   433  SER433     -0.1217
    147  CA        11.7090  -19.7480  -32.7430 C.3   433  SER433      0.1889
    148  C         10.1980  -20.1760  -32.7760 C.2   433  SER433      0.2288
    149  O          9.4300  -19.8820  -31.8730 O.2   433  SER433     -0.2866
    150  CB        11.9930  -18.3150  -33.1590 C.3   433  SER433      0.2089
    151  OG        10.8280  -17.6000  -33.0910 O.3   433  SER433     -0.2183
    152  N          7.9600  -21.4880  -29.4710 N.3   437  GLN437     -0.1245
    153  CA         6.6760  -20.9530  -29.0880 C.3   437  GLN437      0.1566
    154  C          5.7350  -22.0790  -28.8330 C.2   437  GLN437      0.2260
    155  O          5.0080  -22.0500  -27.8680 O.2   437  GLN437     -0.2867
    156  CB         6.1480  -20.0950  -30.1700 C.3   437  GLN437      0.0367
    157  CG         6.5830  -18.6950  -29.9080 C.3   437  GLN437      0.0905
    158  CD         6.1450  -17.7850  -31.0280 C.2   437  GLN437      0.2608
    159  OE1        5.2420  -16.9590  -30.8510 O.2   437  GLN437     -0.2717
    160  NE2        6.8000  -17.9020  -32.1720 N.am  437  GLN437     -0.0878
@<TRIPOS>BOND
     1    74    80    1
     2    74    75    1
     3    76    75    1
     4    76    77    2
     5   117   118    1
     6    80    79    1
     7    75    78    1
     8   120   119    2
     9   119   118    1
    10   119   126   am
    11   118   121    1
    12    79    78    1
    13    81    82    1
    14   127   126    1
    15   127   128    1
    16   127   130    1
    17   128   129    2
    18    93    90    1
    19    93    94    1
    20   133   131   ar
    21   121   122    1
    22   122   123    1
    23    89    90    1
    24    89    83   am
    25    91    90    1
    26    91    92    2
    27   131   130    1
    28   131   132   ar
    29    94    95    1
    30    82    83    1
    31    82    85    1
    32    83    84    2
    33   123   125   am
    34   123   124    2
    35   145   144    1
    36    85    86    1
    37   144   141    1
    38    95    96    1
    39    86    88    1
    40    86    87    1
    41   114   111    1
    42   114   115    1
    43   112   111    1
    44   112   113    2
    45   111   110    1
    46   134   135    1
    47   140   141    1
    48   140   136   am
    49   141   142    1
    50    97    98    1
    51   142   143    2
    52   115   116    1
    53   138   139    1
    54   138   135    1
    55   135   136    1
    56   110   116    1
    57   136   137    2
    58    99    98    1
    59    99   100    2
    60    98   101    1
    61   109   107    1
    62   108   107    1
    63   106   107    1
    64   106   103    1
    65   104   105    2
    66   104   103    1
    67    26    24   ar
    68    26    25   ar
    69   103   102    1
    70   146   147    1
    71     1     2    1
    72    24    22   ar
    73   150   151    1
    74   150   147    1
    75     5     2    1
    76     5     6    1
    77    25    23   ar
    78   148   147    1
    79   148   149    2
    80     8     6    1
    81     2     3    1
    82    22    23   ar
    83    22    21    1
    84   160   158   am
    85     4     3    2
    86     6     7    1
    87    21    18    1
    88   158   159    2
    89   158   157    1
    90   156   157    1
    91   156   153    1
    92    18    19    1
    93    18    17    1
    94    34    33   ar
    95    15    14    1
    96    20    19    2
    97    16    14    1
    98   152   153    1
    99    35    33   ar
   100    73    72   ar
   101    73    71   ar
   102    45    46    1
   103    45    42    1
   104    33    32    1
   105   153   154    1
   106    14    13    1
   107    72    70   ar
   108    13    10    1
   109    44    43    2
   110   154   155    2
   111    46    47    1
   112    71    69   ar
   113    43    42    1
   114    43    48   am
   115    42    41    1
   116    12    11    2
   117    11    10    1
   118    52    49    1
   119    52    53    1
   120    10     9    1
   121    32    31    1
   122    49    48    1
   123    49    50    1
   124    70    68   ar
   125    69    68   ar
   126    47    41    1
   127    41    38   am
   128    68    67    1
   129    53    55   am
   130    53    54    2
   131    31    28    1
   132    50    51    2
   133    50    56   am
   134    38    39    2
   135    38    37    1
   136    56    57    1
   137    67    64    1
   138    28    27    1
   139    28    29    1
   140    59    58    2
   141    58    57    1
   142    58    63   am
   143    37    40    1
   144    37    36    1
   145    57    60    1
   146    63    64    1
   147    64    65    1
   148    29    30    2
   149    60    62    1
   150    60    61    1
   151    65    66    2
