@<TRIPOS>MOLECULE
tmp/3tzyB00.pdb
 173 163 0 0 0
SMALL
GASTEIGER

@<TRIPOS>ATOM
      1  N        -14.2810   36.2080  -47.9320 N.3    28  LEU28      -0.1245
      2  CA       -13.2910   36.0240  -49.0110 C.3    28  LEU28       0.1561
      3  C        -13.7540   34.7680  -49.7250 C.2    28  LEU28       0.2260
      4  O        -13.7760   33.7190  -49.1220 O.2    28  LEU28      -0.2867
      5  CB       -11.8650   35.8400  -48.4540 C.3    28  LEU28       0.0270
      6  CG       -10.7790   35.5700  -49.5240 C.3    28  LEU28       0.0019
      7  CD1      -10.5110   36.8060  -50.3770 C.3    28  LEU28       0.0001
      8  CD2       -9.4850   35.0090  -48.9260 C.3    28  LEU28       0.0001
      9  N         -8.9640   34.1200  -55.0880 N.3    82  LEU82      -0.1245
     10  CA        -9.5210   34.5680  -53.8000 C.3    82  LEU82       0.1561
     11  C        -10.1070   35.9650  -53.9140 C.2    82  LEU82       0.2260
     12  O         -9.3880   36.9360  -54.2310 O.2    82  LEU82      -0.2867
     13  CB        -8.4390   34.5340  -52.7100 C.3    82  LEU82       0.0270
     14  CG        -7.9230   33.1070  -52.4720 C.3    82  LEU82       0.0019
     15  CD1       -6.6400   33.0960  -51.6380 C.3    82  LEU82       0.0001
     16  CD2       -9.0250   32.2820  -51.8390 C.3    82  LEU82       0.0001
     17  N        -13.2500   39.1190  -52.7940 N.3    84  HIS84      -0.1241
     18  CA       -14.2260   39.7770  -51.9370 C.3    84  HIS84       0.1621
     19  C        -15.3920   40.2880  -52.7250 C.2    84  HIS84       0.2264
     20  O        -16.5130   40.2990  -52.2050 O.2    84  HIS84      -0.2867
     21  CB       -13.5770   40.9520  -51.1770 C.3    84  HIS84       0.0745
     22  CG       -12.5710   40.5180  -50.1390 C.ar   84  HIS84       0.0817
     23  ND1      -11.2530   40.7260  -50.2790 N.ar   84  HIS84      -0.2268
     24  CD2      -12.7370   39.8670  -48.9240 C.ar   84  HIS84       0.1154
     25  CE1      -10.6080   40.2360  -49.2080 C.ar   84  HIS84       0.1986
     26  NE2      -11.5180   39.7110  -48.3840 N.ar   84  HIS84      -0.2212
     27  N        -12.4500   42.0980  -58.0120 N.3    88  GLU88      -0.1245
     28  CA       -11.3110   41.2880  -57.6050 C.3    88  GLU88       0.1567
     29  C        -11.3790   39.9110  -58.2710 C.2    88  GLU88       0.2260
     30  O        -10.3540   39.3630  -58.6640 O.2    88  GLU88      -0.2867
     31  CB       -11.2860   41.1150  -56.0880 C.3    88  GLU88       0.0388
     32  CG       -11.1420   42.4190  -55.3250 C.3    88  GLU88       0.1160
     33  CD       -11.0430   42.2250  -53.8180 C.2    88  GLU88       0.3649
     34  OE1      -11.0420   41.0690  -53.3210 O.co2  88  GLU88      -0.2457
     35  OE2      -10.9700   43.2580  -53.1270 O.co2  88  GLU88      -0.2457
     36  N         -0.3440   36.7500  -59.1860 N.3   102  ALA102     -0.1231
     37  CA        -1.0410   37.7670  -58.3680 C.3   102  ALA102      0.1679
     38  C         -1.2480   37.2670  -56.9260 C.2   102  ALA102      0.2434
     39  O         -1.4110   36.0530  -56.6950 O.2   102  ALA102     -0.2733
     40  CB        -2.3740   38.1570  -59.0050 C.3   102  ALA102      0.0304
     41  N         -1.2370   38.1960  -55.9430 N.am  103  PRO103     -0.2718
     42  CA        -1.3590   37.7980  -54.5250 C.3   103  PRO103      0.1535
     43  C         -2.5980   36.9580  -54.1910 C.2   103  PRO103      0.2599
     44  O         -2.5240   36.0220  -53.3730 O.2   103  PRO103     -0.2715
     45  CB        -1.3960   39.1540  -53.7870 C.3   103  PRO103      0.0310
     46  CG        -0.6120   40.0760  -54.6780 C.3   103  PRO103      0.0237
     47  CD        -1.0150   39.6560  -56.0850 C.3   103  PRO103      0.0939
     48  N         -3.7380   37.2740  -54.8020 N.am  104  ASN104     -0.1959
     49  CA        -4.9450   36.5080  -54.5070 C.3   104  ASN104      0.1819
     50  C         -5.1680   35.3490  -55.5040 C.2   104  ASN104      0.2621
     51  O         -6.2680   34.8080  -55.5940 O.2   104  ASN104     -0.2715
     52  CB        -6.1570   37.4270  -54.4860 C.3   104  ASN104      0.1195
     53  CG        -6.3900   38.0890  -55.8210 C.2   104  ASN104      0.2630
     54  OD1       -5.4350   38.4110  -56.5320 O.2   104  ASN104     -0.2716
     55  ND2       -7.6600   38.3030  -56.1710 N.am  104  ASN104     -0.0877
     56  N         -4.1240   34.9790  -56.2480 N.am  105  VAL105     -0.1963
     57  CA        -4.2330   33.8930  -57.2330 C.3   105  VAL105      0.1727
     58  C         -3.2910   32.7480  -56.8900 C.2   105  VAL105      0.2616
     59  O         -2.1400   32.9840  -56.6650 O.2   105  VAL105     -0.2715
     60  CB        -3.9190   34.4180  -58.6350 C.3   105  VAL105      0.0290
     61  CG1       -3.8000   33.2670  -59.6390 C.3   105  VAL105      0.0023
     62  CG2       -5.0010   35.3830  -59.0730 C.3   105  VAL105      0.0023
     63  N         -3.8020   31.5210  -56.8480 N.am  106  PHE106     -0.1974
     64  CA        -2.9750   30.3270  -56.7270 C.3   106  PHE106      0.1639
     65  C         -3.2920   29.3880  -57.9160 C.2   106  PHE106      0.2290
     66  O         -4.4410   29.2300  -58.2730 O.2   106  PHE106     -0.2864
     67  CB        -3.2090   29.6070  -55.3920 C.3   106  PHE106      0.0560
     68  CG        -2.6160   30.3210  -54.2050 C.ar  106  PHE106     -0.0200
     69  CD1       -1.2300   30.2540  -53.9450 C.ar  106  PHE106     -0.0042
     70  CD2       -3.4280   31.0690  -53.3440 C.ar  106  PHE106     -0.0042
     71  CE1       -0.6760   30.9150  -52.8530 C.ar  106  PHE106     -0.0003
     72  CE2       -2.8730   31.7330  -52.2440 C.ar  106  PHE106     -0.0003
     73  CZ        -1.4990   31.6530  -52.0030 C.ar  106  PHE106     -0.0000
     74  N          2.6630   32.5550  -38.2420 N.3   395  PRO395     -0.2116
     75  CA         3.4530   31.4900  -38.8430 C.3   395  PRO395      0.1372
     76  C          4.9550   31.7070  -38.7860 C.2   395  PRO395      0.2244
     77  O          5.6110   31.5770  -39.8190 O.2   395  PRO395     -0.2868
     78  CB         2.9680   31.5100  -40.3010 C.3   395  PRO395      0.0268
     79  CG         2.5870   32.9490  -40.5340 C.3   395  PRO395      0.0207
     80  CD         2.4110   33.6400  -39.2080 C.3   395  PRO395      0.0892
     81  N          7.0940   28.9130  -40.2830 N.3   398  LEU398     -0.1231
     82  CA         7.0050   28.7560  -41.7530 C.3   398  LEU398      0.1693
     83  C          8.0450   29.6020  -42.4690 C.2   398  LEU398      0.2591
     84  O          8.6400   29.1730  -43.4790 O.2   398  LEU398     -0.2718
     85  CB         5.6060   29.0410  -42.3040 C.3   398  LEU398      0.0284
     86  CG         5.3330   28.5730  -43.7490 C.3   398  LEU398      0.0019
     87  CD1        5.5140   27.0640  -43.8710 C.3   398  LEU398      0.0001
     88  CD2        3.9170   28.9720  -44.1750 C.3   398  LEU398      0.0001
     89  N          8.2620   30.7960  -41.9280 N.am  399  MET399     -0.1979
     90  CA         9.2970   31.6980  -42.4050 C.3   399  MET399      0.1605
     91  C         10.6850   31.0430  -42.2970 C.2   399  MET399      0.2287
     92  O         11.5440   31.2420  -43.1460 O.2   399  MET399     -0.2864
     93  CB         9.2070   33.0080  -41.6200 C.3   399  MET399      0.0413
     94  CG         9.9700   34.1990  -42.1910 C.3   399  MET399      0.0598
     95  SD         9.6000   34.7510  -43.8860 S.3   399  MET399     -0.1393
     96  CE        10.9570   34.0260  -44.8070 C.3   399  MET399      0.0692
     97  N         10.8850   28.3810  -45.0920 N.3   402  ALA402     -0.1231
     98  CA        11.2620   29.1260  -46.3080 C.3   402  ALA402      0.1694
     99  C         12.7700   29.2900  -46.5120 C.2   402  ALA402      0.2591
    100  O         13.2630   29.2390  -47.6430 O.2   402  ALA402     -0.2718
    101  CB        10.5990   30.5140  -46.3180 C.3   402  ALA402      0.0304
    102  N         13.5060   29.5010  -45.4240 N.am  403  LEU403     -0.1980
    103  CA        14.9610   29.6510  -45.5040 C.3   403  LEU403      0.1596
    104  C         15.6580   28.3240  -45.7560 C.2   403  LEU403      0.2287
    105  O         16.6380   28.2700  -46.5140 O.2   403  LEU403     -0.2864
    106  CB        15.5240   30.3470  -44.2670 C.3   403  LEU403      0.0297
    107  CG        14.8980   31.7230  -44.0240 C.3   403  LEU403      0.0022
    108  CD1       15.3250   32.3090  -42.6920 C.3   403  LEU403      0.0001
    109  CD2       15.1920   32.7020  -45.1560 C.3   403  LEU403      0.0001
    110  N          4.4440   26.8690  -49.4280 N.3   415  LEU415     -0.1245
    111  CA         4.4790   27.2440  -48.0150 C.3   415  LEU415      0.1561
    112  C          3.1110   27.7600  -47.6210 C.2   415  LEU415      0.2260
    113  O          2.6860   28.8340  -48.0330 O.2   415  LEU415     -0.2867
    114  CB         5.5530   28.2880  -47.7450 C.3   415  LEU415      0.0270
    115  CG         6.9000   27.8880  -48.3550 C.3   415  LEU415      0.0019
    116  CD1        7.7930   29.1010  -48.3580 C.3   415  LEU415      0.0001
    117  CD2        7.5480   26.7080  -47.6420 C.3   415  LEU415      0.0001
    118  N          0.6830   28.9490  -44.7060 N.3   417  PRO417     -0.2116
    119  CA         0.3740   29.2900  -43.3070 C.3   417  PRO417      0.1372
    120  C         -1.0760   28.9650  -42.9550 C.2   417  PRO417      0.2244
    121  O         -1.8560   28.5950  -43.8160 O.2   417  PRO417     -0.2868
    122  CB         0.6200   30.7980  -43.2320 C.3   417  PRO417      0.0268
    123  CG         0.5430   31.2890  -44.6410 C.3   417  PRO417      0.0207
    124  CD         0.8520   30.1400  -45.5590 C.3   417  PRO417      0.0892
    125  N         -2.7170   34.1830  -38.8060 N.3   420  ALA420     -0.1245
    126  CA        -1.6620   35.1790  -38.6550 C.3   420  ALA420      0.1562
    127  C         -2.1720   36.3440  -37.8370 C.2   420  ALA420      0.2260
    128  O         -3.3490   36.6650  -37.8880 O.2   420  ALA420     -0.2867
    129  CB        -1.1830   35.6750  -39.9990 C.3   420  ALA420      0.0290
    130  N         -4.4000   39.5840  -39.3670 N.3   423  GLN423     -0.1231
    131  CA        -5.1440   39.1540  -40.5670 C.3   423  GLN423      0.1698
    132  C         -6.3780   38.4280  -40.0820 C.2   423  GLN423      0.2592
    133  O         -6.2880   37.6640  -39.1220 O.2   423  GLN423     -0.2718
    134  CB        -4.3430   38.1830  -41.4700 C.3   423  GLN423      0.0381
    135  CG        -2.9230   38.6150  -41.8210 C.3   423  GLN423      0.0905
    136  CD        -2.8420   39.6860  -42.8900 C.2   423  GLN423      0.2608
    137  OE1       -3.8360   40.3310  -43.2360 O.2   423  GLN423     -0.2717
    138  NE2       -1.6460   39.8780  -43.4290 N.am  423  GLN423     -0.0878
    139  N         -7.5090   38.6720  -40.7500 N.am  424  ASP424     -0.1974
    140  CA        -8.7590   37.9880  -40.4890 C.3   424  ASP424      0.1709
    141  C         -8.5660   36.4870  -40.5160 C.2   424  ASP424      0.2293
    142  O         -7.9860   35.9260  -41.4590 O.2   424  ASP424     -0.2864
    143  CB        -9.8230   38.3960  -41.5160 C.3   424  ASP424      0.1436
    144  CG       -11.1520   37.6900  -41.2900 C.2   424  ASP424      0.3671
    145  OD1      -12.0490   38.2980  -40.6900 O.co2 424  ASP424     -0.2456
    146  OD2      -11.3090   36.5240  -41.6980 O.co2 424  ASP424     -0.2456
    147  N        -10.7940   34.2970  -43.1630 N.3   427  SER427     -0.1202
    148  CA       -10.2840   34.4600  -44.4970 C.3   427  SER427      0.2020
    149  C         -8.9120   33.7790  -44.6620 C.2   427  SER427      0.2619
    150  O         -8.5970   33.2690  -45.7610 O.2   427  SER427     -0.2717
    151  CB       -10.3170   35.9260  -44.9200 C.3   427  SER427      0.2103
    152  OG        -9.2350   36.6610  -44.3990 O.3   427  SER427     -0.2182
    153  N         -8.1110   33.7520  -43.5830 N.am  428  SER428     -0.1951
    154  CA        -6.8490   32.9990  -43.5990 C.3   428  SER428      0.1924
    155  C         -7.1090   31.5370  -43.8170 C.2   428  SER428      0.2314
    156  O         -6.4260   30.9120  -44.5900 O.2   428  SER428     -0.2863
    157  CB        -6.0410   33.1700  -42.2950 C.3   428  SER428      0.2116
    158  OG        -5.4760   34.4580  -42.2680 O.3   428  SER428     -0.2180
    159  N         -7.8810   30.7080  -47.5460 N.3   431  SER431     -0.1217
    160  CA        -6.6270   30.6950  -48.3030 C.3   431  SER431      0.1889
    161  C         -5.8540   29.4030  -48.1330 C.2   431  SER431      0.2288
    162  O         -5.4390   28.7920  -49.1270 O.2   431  SER431     -0.2866
    163  CB        -5.7250   31.8460  -47.8890 C.3   431  SER431      0.2089
    164  OG        -6.3480   33.0630  -48.1640 O.3   431  SER431     -0.2183
    165  N         -5.1640   26.7160  -51.0940 N.3   435  GLN435     -0.1245
    166  CA        -3.8360   26.3310  -51.4870 C.3   435  GLN435      0.1566
    167  C         -3.7280   24.8300  -51.5260 C.2   435  GLN435      0.2260
    168  O         -3.1580   24.2930  -52.4500 O.2   435  GLN435     -0.2867
    169  CB        -2.8110   26.8910  -50.5320 C.3   435  GLN435      0.0367
    170  CG        -2.4010   28.3160  -50.8410 C.3   435  GLN435      0.0905
    171  CD        -0.9750   28.6140  -50.4000 C.2   435  GLN435      0.2608
    172  OE1       -0.7320   29.5090  -49.6060 O.2   435  GLN435     -0.2717
    173  NE2       -0.0230   27.8600  -50.9260 N.am  435  GLN435     -0.0878
@<TRIPOS>BOND
     1    61    60    1
     2    36    37    1
     3    62    60    1
     4    40    37    1
     5    30    29    2
     6    60    57    1
     7    37    38    1
     8    66    65    2
     9    29    28    1
    10    27    28    1
    11    65    64    1
    12    28    31    1
    13    57    58    1
    14    57    56    1
    15    38    39    2
    16    38    41   am
    17    58    63   am
    18    58    59    2
    19    63    64    1
    20    64    67    1
    21    54    53    2
    22    56    50   am
    23    55    53   am
    24    31    32    1
    25    47    41    1
    26    47    46    1
    27    41    42    1
    28    53    52    1
    29    51    50    2
    30    50    49    1
    31    67    68    1
    32    32    33    1
    33     9    10    1
    34    48    49    1
    35    48    43   am
    36    46    45    1
    37    42    43    1
    38    42    45    1
    39    49    52    1
    40    12    11    2
    41    68    69   ar
    42    68    70   ar
    43    43    44    2
    44    69    71   ar
    45    11    10    1
    46    33    34   ar
    47    33    35   ar
    48    10    13    1
    49    70    72   ar
    50    71    73   ar
    51    17    18    1
    52    19    20    2
    53    19    18    1
    54    13    14    1
    55    14    16    1
    56    14    15    1
    57   168   167    2
    58    72    73   ar
    59    18    21    1
    60   167   166    1
    61   166   165    1
    62   166   169    1
    63    21    22    1
    64   173   171   am
    65   170   169    1
    66   170   171    1
    67   171   172    2
    68     7     6    1
    69    23    22   ar
    70    23    25   ar
    71    22    24   ar
    72     3     4    2
    73     3     2    1
    74     6     8    1
    75     6     5    1
    76   110   111    1
    77    25    26   ar
    78   162   161    2
    79     2     5    1
    80     2     1    1
    81    24    26   ar
    82   116   115    1
    83   115   114    1
    84   115   117    1
    85   160   161    1
    86   160   163    1
    87   160   159    1
    88   164   163    1
    89   113   112    2
    90   111   114    1
    91   111   112    1
    92   100    99    2
    93   105   104    2
    94    99    98    1
    95    99   102   am
    96   101    98    1
    97    98    97    1
    98   150   149    2
    99   104   103    1
   100   124   118    1
   101   124   123    1
   102   103   102    1
   103   103   106    1
   104   109   107    1
   105   151   148    1
   106   151   152    1
   107    96    95    1
   108   118   119    1
   109   149   148    1
   110   149   153   am
   111   123   122    1
   112   156   155    2
   113   148   147    1
   114   106   107    1
   115    88    86    1
   116   107   108    1
   117    95    94    1
   118    87    86    1
   119   155   154    1
   120   121   120    2
   121    86    85    1
   122   154   153    1
   123   154   157    1
   124    84    83    2
   125   138   136   am
   126   119   122    1
   127   119   120    1
   128   137   136    2
   129    92    91    2
   130   136   135    1
   131    83    89   am
   132    83    82    1
   133    90    91    1
   134    90    89    1
   135    90    93    1
   136    85    82    1
   137   157   158    1
   138    94    93    1
   139   135   134    1
   140    82    81    1
   141   146   144   ar
   142   143   144    1
   143   143   140    1
   144   134   131    1
   145   142   141    2
   146   144   145   ar
   147   139   140    1
   148   139   132   am
   149   131   132    1
   150   131   130    1
   151    79    78    1
   152    79    80    1
   153   141   140    1
   154    78    75    1
   155   132   133    2
   156   129   126    1
   157    77    76    2
   158    80    74    1
   159    75    76    1
   160    75    74    1
   161   125   126    1
   162   126   127    1
   163   128   127    2
