@<TRIPOS>MOLECULE
tmp/3tzyB01.pdb
 169 159 0 0 0
SMALL
GASTEIGER

@<TRIPOS>ATOM
      1  N          7.0740   28.3130  -30.6840 N.3   123  PHE123     -0.1241
      2  CA         7.9670   29.2900  -30.0900 C.3   123  PHE123      0.1605
      3  C          7.8940   30.6540  -30.7870 C.2   123  PHE123      0.2264
      4  O          8.0230   30.7570  -32.0110 O.2   123  PHE123     -0.2867
      5  CB         9.3970   28.7450  -30.0390 C.3   123  PHE123      0.0534
      6  CG        10.3310   29.6530  -29.3300 C.ar  123  PHE123     -0.0203
      7  CD1       10.5070   29.5460  -27.9510 C.ar  123  PHE123     -0.0042
      8  CD2       11.0210   30.6340  -30.0290 C.ar  123  PHE123     -0.0042
      9  CE1       11.3700   30.4010  -27.2860 C.ar  123  PHE123     -0.0003
     10  CE2       11.8860   31.4900  -29.3670 C.ar  123  PHE123     -0.0003
     11  CZ        12.0590   31.3720  -27.9940 C.ar  123  PHE123     -0.0000
     12  N          4.7260   31.6670  -19.4930 N.3   173  ILE173     -0.1245
     13  CA         5.5280   30.5270  -19.8240 C.3   173  ILE173      0.1561
     14  C          4.6430   29.3110  -19.9950 C.2   173  ILE173      0.2260
     15  O          4.7620   28.5940  -20.9840 O.2   173  ILE173     -0.2867
     16  CB         6.5960   30.2520  -18.7330 C.3   173  ILE173      0.0252
     17  CG1        7.7690   31.2330  -18.9560 C.3   173  ILE173      0.0019
     18  CG2        7.1640   28.7850  -18.8090 C.3   173  ILE173      0.0019
     19  CD1        8.6500   30.8850  -20.1930 C.3   173  ILE173      0.0001
     20  N          1.0890   30.0050  -22.4160 N.3   176  THR176     -0.1203
     21  CA         1.3920   30.1630  -23.8390 C.3   176  THR176      0.1994
     22  C          1.3700   28.7880  -24.5070 C.2   176  THR176      0.2617
     23  O          0.7630   28.6170  -25.5660 O.2   176  THR176     -0.2717
     24  CB         2.7300   30.8870  -24.0890 C.3   176  THR176      0.1784
     25  OG1        2.5910   32.2700  -23.7550 O.3   176  THR176     -0.2211
     26  CG2        3.1470   30.8090  -25.5660 C.3   176  THR176      0.0376
     27  N          2.0210   27.8170  -23.8690 N.am  177  GLN177     -0.1979
     28  CA         2.1870   26.4980  -24.4220 C.3   177  GLN177      0.1601
     29  C          0.8910   25.6930  -24.5580 C.2   177  GLN177      0.2287
     30  O          0.6370   25.1180  -25.6170 O.2   177  GLN177     -0.2864
     31  CB         3.2050   25.7140  -23.5910 C.3   177  GLN177      0.0394
     32  CG         4.6070   26.3180  -23.6180 C.3   177  GLN177      0.0908
     33  CD         5.5810   25.5550  -22.7350 C.2   177  GLN177      0.2608
     34  OE1        5.7060   24.3390  -22.8450 O.2   177  GLN177     -0.2717
     35  NE2        6.2720   26.2720  -21.8490 N.am  177  GLN177     -0.0878
     36  N          9.7590   21.9030  -30.6450 N.3   205  SER205     -0.1202
     37  CA         9.7100   22.3050  -29.2400 C.3   205  SER205      0.2020
     38  C          8.3030   22.0990  -28.6930 C.2   205  SER205      0.2618
     39  O          7.8420   20.9460  -28.5980 O.2   205  SER205     -0.2717
     40  CB        10.1780   23.7700  -29.0420 C.3   205  SER205      0.2103
     41  OG        10.3090   24.0760  -27.6420 O.3   205  SER205     -0.2182
     42  N          7.6150   23.1850  -28.3400 N.am  206  LEU206     -0.1979
     43  CA         6.2920   22.9930  -27.7240 C.3   206  LEU206      0.1596
     44  C          5.3120   22.2620  -28.6730 C.2   206  LEU206      0.2287
     45  O          4.4650   21.5020  -28.2040 O.2   206  LEU206     -0.2864
     46  CB         5.7060   24.3060  -27.2060 C.3   206  LEU206      0.0297
     47  CG         5.0300   25.2560  -28.1800 C.3   206  LEU206      0.0022
     48  CD1        3.6050   24.7860  -28.5060 C.3   206  LEU206      0.0001
     49  CD2        5.0470   26.6500  -27.5600 C.3   206  LEU206      0.0001
     50  N          4.9940   19.2750  -19.2790 N.3   230  ARG230     -0.1245
     51  CA         6.2060   19.9940  -19.5430 C.3   230  ARG230      0.1563
     52  C          5.9460   21.4830  -19.3240 C.2   230  ARG230      0.2260
     53  O          6.8110   22.2140  -18.8780 O.2   230  ARG230     -0.2867
     54  CB         6.8040   19.6410  -20.9240 C.3   230  ARG230      0.0307
     55  CG         6.0210   20.0880  -22.1470 C.3   230  ARG230      0.0489
     56  CD         6.6440   21.3240  -22.7690 C.3   230  ARG230      0.2205
     57  NE         7.7260   21.0270  -23.7050 N.pl3 230  ARG230     -0.0865
     58  CZ         8.3600   21.9670  -24.3980 C.cat 230  ARG230      0.5346
     59  NH1        7.9970   23.2320  -24.2440 N.pl3 230  ARG230      0.1354
     60  NH2        9.3500   21.6590  -25.2500 N.pl3 230  ARG230      0.1354
     61  N          7.7610   23.6320  -16.5150 N.3   234  MET234     -0.1245
     62  CA         8.5320   24.7970  -16.9580 C.3   234  MET234      0.1570
     63  C          8.0590   26.0830  -16.2700 C.2   234  MET234      0.2261
     64  O          8.8700   26.9410  -15.8840 O.2   234  MET234     -0.2867
     65  CB         8.4650   24.9800  -18.4840 C.3   234  MET234      0.0387
     66  CG         9.1930   23.9100  -19.3030 C.3   234  MET234      0.0595
     67  SD         9.1450   24.2340  -21.0980 S.3   234  MET234     -0.1393
     68  CE        10.3420   25.5400  -21.1840 C.3   234  MET234      0.0692
     69  N          9.1560   25.7850  -12.3350 N.3   237  GLY237     -0.1210
     70  CA        10.6000   26.0200  -12.3550 C.3   237  GLY237      0.1956
     71  C         11.0570   27.4360  -12.7160 C.2   237  GLY237      0.2611
     72  O         12.0000   27.9410  -12.1200 O.2   237  GLY237     -0.2717
     73  N         10.4040   28.0750  -13.6900 N.am  238  GLU238     -0.1979
     74  CA        10.7990   29.4160  -14.1850 C.3   238  GLU238      0.1602
     75  C         10.4760   30.4850  -13.1650 C.2   238  GLU238      0.2287
     76  O         10.8530   31.6500  -13.3210 O.2   238  GLU238     -0.2864
     77  CB        10.1380   29.7440  -15.5430 C.3   238  GLU238      0.0415
     78  CG        10.7050   30.9480  -16.3150 C.3   238  GLU238      0.1163
     79  CD         9.9020   32.2400  -16.1330 C.2   238  GLU238      0.3649
     80  OE1        8.9510   32.2490  -15.3200 O.co2 238  GLU238     -0.2457
     81  OE2       10.2050   33.2670  -16.7950 O.co2 238  GLU238     -0.2457
     82  N         11.3260   29.7460   -9.8260 N.3   240  MET240     -0.1230
     83  CA        12.4840   29.5820   -8.9080 C.3   240  MET240      0.1702
     84  C         13.8950   29.9070   -9.4850 C.2   240  MET240      0.2592
     85  O         14.8830   29.2170   -9.1730 O.2   240  MET240     -0.2718
     86  CB        12.4690   28.1690   -8.3310 C.3   240  MET240      0.0401
     87  CG        11.0870   27.7280   -7.8390 C.3   240  MET240      0.0596
     88  SD        10.5830   28.5440   -6.3320 S.3   240  MET240     -0.1393
     89  CE        11.8300   28.1340   -5.1750 C.3   240  MET240      0.0692
     90  N         13.9910   30.9510  -10.3110 N.am  241  LEU241     -0.1980
     91  CA        15.2490   31.3430  -10.9680 C.3   241  LEU241      0.1596
     92  C         15.5270   32.8470  -10.8350 C.2   241  LEU241      0.2287
     93  O         14.5930   33.6640  -10.8880 O.2   241  LEU241     -0.2864
     94  CB        15.2440   30.9470  -12.4640 C.3   241  LEU241      0.0297
     95  CG        15.0270   29.4690  -12.8420 C.3   241  LEU241      0.0022
     96  CD1       14.9810   29.2890  -14.3530 C.3   241  LEU241      0.0001
     97  CD2       16.0720   28.5330  -12.2320 C.3   241  LEU241      0.0001
     98  N         15.5960   33.7100  -23.7920 N.3   249  MET249     -0.1245
     99  CA        15.6280   33.0250  -25.0650 C.3   249  MET249      0.1570
    100  C         15.3330   34.0490  -26.1580 C.2   249  MET249      0.2261
    101  O         14.5950   35.0250  -25.9270 O.2   249  MET249     -0.2867
    102  CB        14.6040   31.9160  -25.0720 C.3   249  MET249      0.0387
    103  CG        15.0010   30.7520  -24.2040 C.3   249  MET249      0.0595
    104  SD        13.7480   29.4690  -24.2850 S.3   249  MET249     -0.1393
    105  CE        14.3910   28.4750  -25.6490 C.3   249  MET249      0.0692
    106  N         11.3700   34.9990  -20.7830 N.3   308  THR308     -0.1218
    107  CA        11.6150   33.7970  -20.0190 C.3   308  THR308      0.1862
    108  C         12.8370   34.1110  -19.1710 C.2   308  THR308      0.2287
    109  O         13.7070   34.8830  -19.5890 O.2   308  THR308     -0.2866
    110  CB        11.8830   32.5360  -20.8990 C.3   308  THR308      0.1770
    111  OG1       13.2220   32.5550  -21.4210 O.3   308  THR308     -0.2211
    112  CG2       10.9140   32.4320  -22.0660 C.3   308  THR308      0.0375
    113  N         14.0840   31.2690  -17.9950 N.3   310  GLY310     -0.1210
    114  CA        14.5640   29.9160  -18.2580 C.3   310  GLY310      0.1956
    115  C         14.6850   29.6220  -19.7580 C.2   310  GLY310      0.2612
    116  O         14.0400   30.2760  -20.6110 O.2   310  GLY310     -0.2717
    117  N         15.5140   28.6290  -20.0750 N.am  311  ALA311     -0.1965
    118  CA        15.7800   28.2250  -21.4510 C.3   311  ALA311      0.1728
    119  C         15.5110   26.7340  -21.5860 C.2   311  ALA311      0.2617
    120  O         16.2490   25.9200  -21.0150 O.2   311  ALA311     -0.2715
    121  CB        17.2140   28.5390  -21.8190 C.3   311  ALA311      0.0334
    122  N         14.4520   26.3810  -22.3290 N.am  312  SER312     -0.1936
    123  CA        14.1840   24.9800  -22.6900 C.3   312  SER312      0.2055
    124  C         15.3240   24.5100  -23.5720 C.2   312  SER312      0.2643
    125  O         16.0460   25.3390  -24.1380 O.2   312  SER312     -0.2714
    126  CB        12.8440   24.8590  -23.4340 C.3   312  SER312      0.2130
    127  OG        12.6670   25.9420  -24.3520 O.3   312  SER312     -0.2179
    128  N         15.5000   23.1960  -23.6900 N.am  313  HIS313     -0.1973
    129  CA        16.5750   22.6240  -24.5380 C.3   313  HIS313      0.1656
    130  C         17.9810   22.9690  -24.0850 C.2   313  HIS313      0.2291
    131  O         18.9050   23.0170  -24.9070 O.2   313  HIS313     -0.2864
    132  CB        16.3450   22.9850  -26.0140 C.3   313  HIS313      0.0771
    133  CG        14.8890   22.9810  -26.3740 C.ar  313  HIS313      0.0820
    134  ND1       14.1720   21.8420  -26.4490 N.ar  313  HIS313     -0.2267
    135  CD2       14.0200   24.0170  -26.6440 C.ar  313  HIS313      0.1154
    136  CE1       12.9100   22.1380  -26.7630 C.ar  313  HIS313      0.1986
    137  NE2       12.8150   23.4710  -26.8840 N.ar  313  HIS313     -0.2212
    138  N         19.3950   23.7200  -17.8440 N.3   316  GLN316     -0.1231
    139  CA        18.4140   24.3490  -16.9750 C.3   316  GLN316      0.1698
    140  C         17.1390   23.5060  -16.7910 C.2   316  GLN316      0.2592
    141  O         16.3930   23.7060  -15.8160 O.2   316  GLN316     -0.2718
    142  CB        18.1050   25.7430  -17.5070 C.3   316  GLN316      0.0381
    143  CG        17.4810   26.7030  -16.5090 C.3   316  GLN316      0.0905
    144  CD        17.7390   28.1530  -16.8800 C.2   316  GLN316      0.2608
    145  OE1       18.2660   28.9390  -16.0900 O.2   316  GLN316     -0.2717
    146  NE2       17.3790   28.5060  -18.0830 N.am  316  GLN316     -0.0878
    147  N         16.8940   22.5610  -17.7160 N.am  317  MET317     -0.1979
    148  CA        15.7490   21.6180  -17.6270 C.3   317  MET317      0.1605
    149  C         15.9800   20.3700  -16.7670 C.2   317  MET317      0.2287
    150  O         15.0140   19.6580  -16.3900 O.2   317  MET317     -0.2864
    151  CB        15.3220   21.1540  -19.0400 C.3   317  MET317      0.0413
    152  CG        14.9240   22.2780  -20.0070 C.3   317  MET317      0.0598
    153  SD        13.4020   23.1130  -19.4910 S.3   317  MET317     -0.1393
    154  CE        14.0000   24.6780  -18.8600 C.3   317  MET317      0.0692
    155  N         16.5160   19.6950  -13.5940 N.3   319  PRO319     -0.2102
    156  CA        15.7880   19.4490  -12.3530 C.3   319  PRO319      0.1504
    157  C         14.3020   19.1220  -12.5630 C.2   319  PRO319      0.2575
    158  O         13.6210   18.8220  -11.5940 O.2   319  PRO319     -0.2718
    159  CB        15.9040   20.7850  -11.5780 C.3   319  PRO319      0.0282
    160  CG        16.8160   21.6610  -12.3590 C.3   319  PRO319      0.0208
    161  CD        16.8150   21.1280  -13.7640 C.3   319  PRO319      0.0893
    162  N         13.8090   19.1830  -13.8000 N.am  320  LEU320     -0.1980
    163  CA        12.3730   18.9960  -14.0650 C.3   320  LEU320      0.1596
    164  C         12.0830   17.5750  -14.5180 C.2   320  LEU320      0.2287
    165  O         10.9420   17.1100  -14.4360 O.2   320  LEU320     -0.2864
    166  CB        11.8600   19.9940  -15.1240 C.3   320  LEU320      0.0297
    167  CG        12.0430   21.5100  -14.9870 C.3   320  LEU320      0.0022
    168  CD1       11.3630   22.2530  -16.1350 C.3   320  LEU320      0.0001
    169  CD2       11.5060   22.0160  -13.6490 C.3   320  LEU320      0.0001
@<TRIPOS>BOND
     1     4     3    2
     2     3     2    1
     3     1     2    1
     4    36    37    1
     5     2     5    1
     6     5     6    1
     7     8    10   ar
     8     8     6   ar
     9    10    11   ar
    10     6     7   ar
    11    37    40    1
    12    37    38    1
    13    40    41    1
    14    38    39    2
    15    38    42   am
    16    44    45    2
    17    44    43    1
    18    48    47    1
    19    42    43    1
    20    47    49    1
    21    47    46    1
    22    11     9   ar
    23     7     9   ar
    24    43    46    1
    25   137   136   ar
    26   137   135   ar
    27   136   134   ar
    28   135   133   ar
    29   134   133   ar
    30   133   132    1
    31   100   101    2
    32   100    99    1
    33   132   129    1
    34   105   104    1
    35    30    29    2
    36    26    24    1
    37    23    22    2
    38    60    58    1
    39   102    99    1
    40   102   103    1
    41    99    98    1
    42   131   130    2
    43    29    28    1
    44   129   130    1
    45   129   128    1
    46    22    27   am
    47    22    21    1
    48    28    27    1
    49    28    31    1
    50    58    59    1
    51    58    57    2
    52   127   126    1
    53   104   103    1
    54   125   124    2
    55    24    21    1
    56    24    25    1
    57    21    20    1
    58    57    56    1
    59   128   124   am
    60    32    31    1
    61    32    33    1
    62   124   123    1
    63   126   123    1
    64    34    33    2
    65    56    55    1
    66    33    35   am
    67   123   122    1
    68   122   119   am
    69    55    54    1
    70   112   110    1
    71   121   118    1
    72   119   118    1
    73   119   120    2
    74   118   117    1
    75   111   110    1
    76    68    67    1
    77    67    66    1
    78    15    14    2
    79    54    51    1
    80   110   107    1
    81   106   107    1
    82   116   115    2
    83    19    17    1
    84   117   115   am
    85   107   108    1
    86   152   153    1
    87   152   151    1
    88    14    13    1
    89    13    12    1
    90    13    16    1
    91   115   114    1
    92   109   108    2
    93    51    52    1
    94    51    50    1
    95   153   154    1
    96    52    53    2
    97    66    65    1
    98   151   148    1
    99    17    16    1
   100    18    16    1
   101    65    62    1
   102   114   113    1
   103   146   144   am
   104   138   139    1
   105   147   148    1
   106   147   140   am
   107   148   149    1
   108   142   139    1
   109   142   143    1
   110   139   140    1
   111    62    61    1
   112    62    63    1
   113   144   143    1
   114   144   145    2
   115    81    79   ar
   116   140   141    2
   117   149   150    2
   118    78    79    1
   119    78    77    1
   120    63    64    2
   121   168   167    1
   122    79    80   ar
   123    77    74    1
   124   166   167    1
   125   166   163    1
   126   167   169    1
   127   164   165    2
   128   164   163    1
   129    96    95    1
   130    74    73    1
   131    74    75    1
   132   163   162    1
   133   162   157   am
   134   161   155    1
   135   161   160    1
   136    73    71   am
   137   155   156    1
   138    76    75    2
   139    95    94    1
   140    95    97    1
   141    71    70    1
   142    71    72    2
   143   157   156    1
   144   157   158    2
   145    94    91    1
   146   160   159    1
   147    70    69    1
   148   156   159    1
   149    91    92    1
   150    91    90    1
   151    93    92    2
   152    90    84   am
   153    82    83    1
   154    84    85    2
   155    84    83    1
   156    83    86    1
   157    86    87    1
   158    87    88    1
   159    88    89    1
