@<TRIPOS>MOLECULE
tmp/3tzzA00.pdb
 125 115 0 0 0
SMALL
GASTEIGER

@<TRIPOS>ATOM
      1  N          0.0500  -18.3110  -51.7890 N.3   123  PHE123     -0.1241
      2  CA        -0.0440  -17.1570  -52.6680 C.3   123  PHE123      0.1605
      3  C          0.7770  -16.0000  -52.1240 C.2   123  PHE123      0.2264
      4  O          0.6950  -15.6900  -50.9430 O.2   123  PHE123     -0.2867
      5  CB        -1.4870  -16.6940  -52.8310 C.3   123  PHE123      0.0534
      6  CG        -1.6670  -15.6990  -53.9410 C.ar  123  PHE123     -0.0203
      7  CD1       -1.6920  -16.1230  -55.2730 C.ar  123  PHE123     -0.0042
      8  CD2       -1.7800  -14.3340  -53.6670 C.ar  123  PHE123     -0.0042
      9  CE1       -1.8370  -15.2080  -56.3080 C.ar  123  PHE123     -0.0003
     10  CE2       -1.9290  -13.4150  -54.6990 C.ar  123  PHE123     -0.0003
     11  CZ        -1.9600  -13.8520  -56.0180 C.ar  123  PHE123     -0.0000
     12  N          3.3140  -19.3780  -62.6260 N.3   173  ILE173     -0.1245
     13  CA         2.0730  -19.8250  -62.0060 C.3   173  ILE173      0.1561
     14  C          2.1590  -21.3030  -61.6390 C.2   173  ILE173      0.2260
     15  O          1.9290  -21.6650  -60.4870 O.2   173  ILE173     -0.2867
     16  CB         0.8410  -19.5060  -62.8950 C.3   173  ILE173      0.0252
     17  CG1        0.5290  -18.0030  -62.8080 C.3   173  ILE173      0.0019
     18  CG2       -0.3710  -20.3460  -62.4940 C.3   173  ILE173      0.0019
     19  CD1       -0.4970  -17.4960  -63.7920 C.3   173  ILE173      0.0001
     20  N          3.3520  -23.1990  -57.4700 N.3   177  GLN177     -0.1245
     21  CA         2.4660  -24.0700  -56.7370 C.3   177  GLN177      0.1566
     22  C          3.1660  -25.3360  -56.3060 C.2   177  GLN177      0.2260
     23  O          3.2220  -25.6480  -55.1140 O.2   177  GLN177     -0.2867
     24  CB         1.2440  -24.3920  -57.5720 C.3   177  GLN177      0.0367
     25  CG         0.3490  -23.1870  -57.7660 C.3   177  GLN177      0.0905
     26  CD        -0.9710  -23.5570  -58.3930 C.2   177  GLN177      0.2608
     27  OE1       -1.5020  -24.6540  -58.1670 O.2   177  GLN177     -0.2717
     28  NE2       -1.5120  -22.6460  -59.1940 N.am  177  GLN177     -0.0878
     29  N         -6.2180  -21.8390  -50.7050 N.3   205  SER205     -0.1217
     30  CA        -6.0580  -21.8710  -52.1530 C.3   205  SER205      0.1889
     31  C         -5.0190  -22.9230  -52.5580 C.2   205  SER205      0.2288
     32  O         -5.2270  -24.1320  -52.3990 O.2   205  SER205     -0.2866
     33  CB        -5.7100  -20.4470  -52.6540 C.3   205  SER205      0.2089
     34  OG        -5.4180  -20.4230  -54.0360 O.3   205  SER205     -0.2183
     35  N         -3.8610  -24.8650  -64.7000 N.3   234  MET234     -0.1245
     36  CA        -3.9760  -23.4310  -64.4670 C.3   234  MET234      0.1570
     37  C         -2.9100  -22.6410  -65.2160 C.2   234  MET234      0.2261
     38  O         -3.2310  -21.6360  -65.8550 O.2   234  MET234     -0.2867
     39  CB        -3.8890  -23.1180  -62.9760 C.3   234  MET234      0.0387
     40  CG        -5.0280  -23.7170  -62.1730 C.3   234  MET234      0.0595
     41  SD        -4.7870  -23.5740  -60.3910 S.3   234  MET234     -0.1393
     42  CE        -4.7470  -21.7850  -60.1910 C.3   234  MET234      0.0692
     43  N         -3.3300  -22.9420  -68.9600 N.3   237  GLY237     -0.1210
     44  CA        -4.5780  -22.2920  -69.3420 C.3   237  GLY237      0.1956
     45  C         -4.4340  -20.7790  -69.3870 C.2   237  GLY237      0.2611
     46  O         -4.9190  -20.1320  -70.3100 O.2   237  GLY237     -0.2717
     47  N         -3.7490  -20.2070  -68.4030 N.am  238  GLU238     -0.1979
     48  CA        -3.6420  -18.7620  -68.3500 C.3   238  GLU238      0.1602
     49  C         -2.6680  -18.1980  -69.3800 C.2   238  GLU238      0.2287
     50  O         -2.8300  -17.0630  -69.8030 O.2   238  GLU238     -0.2864
     51  CB        -3.3370  -18.2730  -66.9350 C.3   238  GLU238      0.0415
     52  CG        -1.8800  -18.1020  -66.6110 C.3   238  GLU238      0.1163
     53  CD        -1.3830  -16.7090  -66.9110 C.2   238  GLU238      0.3649
     54  OE1       -2.0730  -15.7290  -66.5650 O.co2 238  GLU238     -0.2457
     55  OE2       -0.2870  -16.5970  -67.4880 O.co2 238  GLU238     -0.2457
     56  N         -4.4150  -17.1410  -72.5710 N.3   241  LEU241     -0.1245
     57  CA        -5.4920  -16.1490  -72.3990 C.3   241  LEU241      0.1561
     58  C         -5.1650  -14.7650  -72.9580 C.2   241  LEU241      0.2260
     59  O         -4.2050  -14.1330  -72.5300 O.2   241  LEU241     -0.2867
     60  CB        -5.8820  -16.0430  -70.9230 C.3   241  LEU241      0.0270
     61  CG        -6.6790  -17.2160  -70.3620 C.3   241  LEU241      0.0019
     62  CD1       -6.8800  -17.0400  -68.8690 C.3   241  LEU241      0.0001
     63  CD2       -8.0140  -17.3360  -71.0730 C.3   241  LEU241      0.0001
     64  N         -7.3380  -10.7680  -61.1690 N.3   249  MET249     -0.1245
     65  CA        -7.6170  -10.9610  -59.7330 C.3   249  MET249      0.1570
     66  C         -7.0800   -9.7610  -58.9600 C.2   249  MET249      0.2261
     67  O         -6.0220   -9.2430  -59.2830 O.2   249  MET249     -0.2867
     68  CB        -6.9520  -12.2350  -59.2100 C.3   249  MET249      0.0387
     69  CG        -7.3190  -13.4860  -59.9750 C.3   249  MET249      0.0595
     70  SD        -6.5370  -14.9790  -59.3350 S.3   249  MET249     -0.1393
     71  CE        -7.4660  -15.2120  -57.8170 C.3   249  MET249      0.0692
     72  N         -1.6360  -11.8000  -63.0550 N.3   308  THR308     -0.1218
     73  CA        -2.2100  -12.9610  -63.7030 C.3   308  THR308      0.1862
     74  C         -3.2400  -12.5550  -64.7330 C.2   308  THR308      0.2287
     75  O         -3.9140  -11.5380  -64.5620 O.2   308  THR308     -0.2866
     76  CB        -2.8390  -13.9260  -62.6930 C.3   308  THR308      0.1770
     77  OG1       -3.4600  -15.0090  -63.3930 O.3   308  THR308     -0.2211
     78  CG2       -3.8730  -13.2100  -61.8340 C.3   308  THR308      0.0375
     79  N         -5.6390  -14.7780  -65.6830 N.3   310  GLY310     -0.1210
     80  CA        -6.8140  -15.5880  -65.3490 C.3   310  GLY310      0.1956
     81  C         -7.1970  -15.5660  -63.8690 C.2   310  GLY310      0.2612
     82  O         -6.3460  -15.4280  -62.9770 O.2   310  GLY310     -0.2717
     83  N         -8.4900  -15.7200  -63.6120 N.am  311  ALA311     -0.1965
     84  CA        -9.0200  -15.7000  -62.2620 C.3   311  ALA311      0.1728
     85  C         -9.4080  -17.0950  -61.7910 C.2   311  ALA311      0.2616
     86  O        -10.4470  -17.6290  -62.1920 O.2   311  ALA311     -0.2715
     87  CB       -10.2210  -14.7640  -62.1750 C.3   311  ALA311      0.0334
     88  N         -8.5850  -17.6730  -60.9190 N.am  312  SER312     -0.1950
     89  CA        -8.9800  -18.8890  -60.2210 C.3   312  SER312      0.1924
     90  C        -10.1340  -18.5570  -59.2660 C.2   312  SER312      0.2314
     91  O        -10.3500  -17.3850  -58.9440 O.2   312  SER312     -0.2863
     92  CB        -7.8010  -19.4750  -59.4490 C.3   312  SER312      0.2116
     93  OG        -7.4570  -18.6230  -58.3730 O.3   312  SER312     -0.2180
     94  N        -14.6940  -18.8200  -64.8220 N.3   316  GLN316     -0.1231
     95  CA       -13.6430  -19.0360  -65.8370 C.3   316  GLN316      0.1698
     96  C        -13.0350  -20.4310  -65.7970 C.2   316  GLN316      0.2592
     97  O        -12.5280  -20.9390  -66.8060 O.2   316  GLN316     -0.2718
     98  CB       -12.5070  -18.0260  -65.6680 C.3   316  GLN316      0.0381
     99  CG       -11.4750  -18.0830  -66.7900 C.3   316  GLN316      0.0905
    100  CD       -10.4320  -16.9910  -66.6990 C.2   316  GLN316      0.2608
    101  OE1       -9.9430  -16.6680  -65.6230 O.2   316  GLN316     -0.2717
    102  NE2      -10.0890  -16.4160  -67.8330 N.am  316  GLN316     -0.0878
    103  N        -13.0910  -21.0450  -64.6240 N.am  317  MET317     -0.1979
    104  CA       -12.3820  -22.2750  -64.3520 C.3   317  MET317      0.1605
    105  C        -13.1020  -23.5120  -64.8990 C.2   317  MET317      0.2287
    106  O        -12.4940  -24.5850  -65.0360 O.2   317  MET317     -0.2864
    107  CB       -12.1440  -22.3850  -62.8490 C.3   317  MET317      0.0413
    108  CG       -10.7000  -22.6560  -62.5110 C.3   317  MET317      0.0598
    109  SD        -9.6430  -21.2030  -62.5850 S.3   317  MET317     -0.1393
    110  CE        -9.6540  -20.7490  -64.3120 C.3   317  MET317      0.0692
    111  N        -13.9140  -24.7850  -67.8360 N.3   319  PRO319     -0.2102
    112  CA       -13.2970  -25.6220  -68.8820 C.3   319  PRO319      0.1504
    113  C        -12.1810  -26.5480  -68.3810 C.2   319  PRO319      0.2575
    114  O        -11.8460  -27.5340  -69.0500 O.2   319  PRO319     -0.2718
    115  CB       -12.6950  -24.5960  -69.8480 C.3   319  PRO319      0.0282
    116  CG       -13.4560  -23.3430  -69.6090 C.3   319  PRO319      0.0208
    117  CD       -13.7780  -23.3500  -68.1410 C.3   319  PRO319      0.0893
    118  N        -11.6040  -26.2310  -67.2260 N.am  320  LEU320     -0.1980
    119  CA       -10.5320  -27.0540  -66.6870 C.3   320  LEU320      0.1596
    120  C        -11.0700  -28.2690  -65.9490 C.2   320  LEU320      0.2287
    121  O        -10.3780  -29.2820  -65.8430 O.2   320  LEU320     -0.2864
    122  CB        -9.6520  -26.2520  -65.7300 C.3   320  LEU320      0.0297
    123  CG        -9.0490  -24.9170  -66.1420 C.3   320  LEU320      0.0022
    124  CD1       -7.9070  -24.6210  -65.1830 C.3   320  LEU320      0.0001
    125  CD2       -8.5570  -24.9700  -67.5850 C.3   320  LEU320      0.0001
@<TRIPOS>BOND
     1    58    59    2
     2    58    57    1
     3    56    57    1
     4    57    60    1
     5    63    61    1
     6    60    61    1
     7    61    62    1
     8    46    45    2
     9   115   116    1
    10   115   112    1
    11    50    49    2
    12   116   117    1
    13    45    44    1
    14    45    47   am
    15    49    48    1
    16    44    43    1
    17   114   113    2
    18   112   113    1
    19   112   111    1
    20    47    48    1
    21   113   118   am
    22    48    51    1
    23   117   111    1
    24   102   100   am
    25   125   123    1
    26    55    53   ar
    27   118   119    1
    28    51    52    1
    29    53    52    1
    30    53    54   ar
    31    97    96    2
    32    99   100    1
    33    99    98    1
    34   100   101    2
    35   119   120    1
    36   119   122    1
    37   123   122    1
    38   123   124    1
    39   120   121    2
    40    38    37    2
    41    95    96    1
    42    95    98    1
    43    95    94    1
    44    96   103   am
    45    79    80    1
    46    80    81    1
    47    37    36    1
    48   106   105    2
    49   105   104    1
    50    74    75    2
    51    74    73    1
    52    35    36    1
    53   103   104    1
    54    36    39    1
    55   104   107    1
    56   110   109    1
    57    81    83   am
    58    81    82    2
    59    19    17    1
    60    73    72    1
    61    73    76    1
    62    83    84    1
    63    77    76    1
    64    39    40    1
    65    16    17    1
    66    16    18    1
    67    16    13    1
    68   107   108    1
    69    76    78    1
    70    12    13    1
    71   109   108    1
    72    84    87    1
    73    84    85    1
    74    86    85    2
    75    40    41    1
    76    13    14    1
    77    85    88   am
    78    14    15    2
    79    64    65    1
    80    88    89    1
    81    41    42    1
    82    89    92    1
    83    89    90    1
    84    69    70    1
    85    69    68    1
    86    65    68    1
    87    65    66    1
    88    92    93    1
    89    70    71    1
    90    67    66    2
    91    90    91    2
    92    28    26   am
    93    26    27    2
    94    26    25    1
    95    25    24    1
    96    24    21    1
    97    20    21    1
    98    21    22    1
    99     9    11   ar
   100     9     7   ar
   101    22    23    2
   102    11    10   ar
   103     7     6   ar
   104    10     8   ar
   105    34    33    1
   106     6     8   ar
   107     6     5    1
   108     5     2    1
   109     2     3    1
   110     2     1    1
   111    33    30    1
   112    31    32    2
   113    31    30    1
   114    30    29    1
   115     3     4    2
