@<TRIPOS>MOLECULE
tmp/3tzzB01.pdb
 173 161 0 0 0
SMALL
GASTEIGER

@<TRIPOS>ATOM
      1  N          7.2800   29.2260  -31.1970 N.3   122  PHE122     -0.1241
      2  CA         8.1750   30.1510  -30.5340 C.3   122  PHE122      0.1605
      3  C          8.2840   31.4720  -31.3020 C.2   122  PHE122      0.2264
      4  O          8.7490   31.4940  -32.4480 O.2   122  PHE122     -0.2867
      5  CB         9.5480   29.4960  -30.3750 C.3   122  PHE122      0.0534
      6  CG        10.4520   30.1920  -29.3930 C.ar  122  PHE122     -0.0203
      7  CD1        9.9260   30.9040  -28.3080 C.ar  122  PHE122     -0.0042
      8  CD2       11.8350   30.1180  -29.5390 C.ar  122  PHE122     -0.0042
      9  CE1       10.7680   31.5550  -27.4170 C.ar  122  PHE122     -0.0003
     10  CE2       12.6800   30.7590  -28.6440 C.ar  122  PHE122     -0.0003
     11  CZ        12.1480   31.4740  -27.5810 C.ar  122  PHE122     -0.0000
     12  N          5.2380   32.6610  -20.5210 N.3   172  ILE172     -0.1245
     13  CA         5.9560   31.4620  -20.9380 C.3   172  ILE172      0.1561
     14  C          5.0370   30.2470  -20.9660 C.2   172  ILE172      0.2260
     15  O          4.9610   29.5470  -21.9810 O.2   172  ILE172     -0.2867
     16  CB         7.1890   31.1880  -20.0560 C.3   172  ILE172      0.0252
     17  CG1        8.2550   32.2620  -20.3560 C.3   172  ILE172      0.0019
     18  CG2        7.7140   29.7880  -20.2630 C.3   172  ILE172      0.0019
     19  CD1        9.3990   32.2760  -19.3800 C.3   172  ILE172      0.0001
     20  N          2.5330   28.5560  -24.6500 N.3   176  GLN176     -0.1245
     21  CA         2.6790   27.1590  -25.0250 C.3   176  GLN176      0.1566
     22  C          1.3690   26.3690  -25.0570 C.2   176  GLN176      0.2260
     23  O          1.1970   25.4890  -25.9040 O.2   176  GLN176     -0.2867
     24  CB         3.6900   26.4860  -24.1080 C.3   176  GLN176      0.0367
     25  CG         5.0960   27.0100  -24.3290 C.3   176  GLN176      0.0905
     26  CD         6.1430   26.2310  -23.5690 C.2   176  GLN176      0.2608
     27  OE1        6.0890   25.0040  -23.4720 O.2   176  GLN176     -0.2717
     28  NE2        7.1070   26.9470  -23.0190 N.am  176  GLN176     -0.0878
     29  N          8.8080   21.7560  -34.1760 N.3   203  GLN203     -0.1231
     30  CA         9.9080   22.5930  -33.7240 C.3   203  GLN203      0.1698
     31  C          9.6270   23.1070  -32.3040 C.2   203  GLN203      0.2593
     32  O          8.6850   23.8760  -32.0870 O.2   203  GLN203     -0.2718
     33  CB        10.1390   23.7690  -34.6700 C.3   203  GLN203      0.0381
     34  CG        11.2560   24.6950  -34.1990 C.3   203  GLN203      0.0905
     35  CD        11.0940   26.1390  -34.6400 C.2   203  GLN203      0.2608
     36  OE1       10.8380   27.0230  -33.8170 O.2   203  GLN203     -0.2717
     37  NE2       11.2640   26.3930  -35.9370 N.am  203  GLN203     -0.0878
     38  N         10.4430   22.6650  -31.3450 N.am  204  SER204     -0.1938
     39  CA        10.4030   23.1730  -29.9630 C.3   204  SER204      0.2055
     40  C          8.9800   23.1200  -29.3320 C.2   204  SER204      0.2642
     41  O          8.4830   22.0300  -29.0320 O.2   204  SER204     -0.2714
     42  CB        11.0700   24.5710  -29.8970 C.3   204  SER204      0.2130
     43  OG        11.0480   25.0910  -28.5840 O.3   204  SER204     -0.2179
     44  N          8.3380   24.2730  -29.1470 N.am  205  LEU205     -0.1977
     45  CA         6.9720   24.3620  -28.6160 C.3   205  LEU205      0.1596
     46  C          5.9680   23.4480  -29.3610 C.2   205  LEU205      0.2287
     47  O          5.1810   22.7110  -28.7340 O.2   205  LEU205     -0.2864
     48  CB         6.5090   25.8310  -28.6680 C.3   205  LEU205      0.0297
     49  CG         5.0860   26.2580  -28.2600 C.3   205  LEU205      0.0022
     50  CD1        4.9660   27.7730  -28.1230 C.3   205  LEU205      0.0001
     51  CD2        4.0460   25.7560  -29.2530 C.3   205  LEU205      0.0001
     52  N          5.6760   20.2210  -19.6830 N.3   229  ARG229     -0.1245
     53  CA         6.7960   21.0990  -19.9860 C.3   229  ARG229      0.1563
     54  C          6.3940   22.5430  -19.7510 C.2   229  ARG229      0.2260
     55  O          7.1780   23.3240  -19.2470 O.2   229  ARG229     -0.2867
     56  CB         7.3440   20.9140  -21.4100 C.3   229  ARG229      0.0307
     57  CG         6.3170   20.5970  -22.4820 C.3   229  ARG229      0.0489
     58  CD         6.6480   21.1010  -23.8870 C.3   229  ARG229      0.2205
     59  NE         8.0670   21.2130  -24.2320 N.pl3 229  ARG229     -0.0865
     60  CZ         8.6380   22.3580  -24.6120 C.cat 229  ARG229      0.5346
     61  NH1        7.9150   23.4710  -24.6830 N.pl3 229  ARG229      0.1354
     62  NH2        9.9240   22.4060  -24.9250 N.pl3 229  ARG229      0.1354
     63  N          8.4080   24.8770  -17.0100 N.3   233  MET233     -0.1245
     64  CA         9.2580   25.8850  -17.6370 C.3   233  MET233      0.1570
     65  C          8.9150   27.2550  -17.1050 C.2   233  MET233      0.2261
     66  O          9.7970   28.0120  -16.7470 O.2   233  MET233     -0.2867
     67  CB         9.1260   25.8760  -19.1710 C.3   233  MET233      0.0387
     68  CG         9.8790   24.7510  -19.8770 C.3   233  MET233      0.0595
     69  SD         9.3500   24.4940  -21.5910 S.3   233  MET233     -0.1393
     70  CE        10.2440   25.8150  -22.4070 C.3   233  MET233      0.0692
     71  N          9.8510   27.5700  -13.3010 N.3   236  GLY236     -0.1210
     72  CA        11.3120   27.5860  -13.2000 C.3   236  GLY236      0.1956
     73  C         11.8830   28.9460  -13.5580 C.2   236  GLY236      0.2611
     74  O         12.6930   29.5160  -12.8210 O.2   236  GLY236     -0.2717
     75  N         11.4250   29.4730  -14.6850 N.am  237  GLU237     -0.1979
     76  CA        11.8370   30.7800  -15.2030 C.3   237  GLU237      0.1602
     77  C         11.5510   31.9290  -14.2240 C.2   237  GLU237      0.2287
     78  O         12.1860   32.9850  -14.2830 O.2   237  GLU237     -0.2864
     79  CB        11.1380   31.0170  -16.5510 C.3   237  GLU237      0.0415
     80  CG        11.6770   32.1650  -17.3810 C.3   237  GLU237      0.1163
     81  CD        11.0380   33.4790  -17.0150 C.2   237  GLU237      0.3649
     82  OE1        9.9220   33.4580  -16.4650 O.co2 237  GLU237     -0.2457
     83  OE2       11.6490   34.5320  -17.2730 O.co2 237  GLU237     -0.2457
     84  N         11.9110   31.5630  -10.9290 N.3   239  MET239     -0.1230
     85  CA        12.9090   31.3950   -9.8720 C.3   239  MET239      0.1702
     86  C         14.3130   31.8820  -10.2680 C.2   239  MET239      0.2592
     87  O         15.2000   31.9530   -9.4180 O.2   239  MET239     -0.2718
     88  CB        13.0210   29.9200   -9.4640 C.3   239  MET239      0.0401
     89  CG        11.8390   29.3490   -8.7680 C.3   239  MET239      0.0596
     90  SD        11.7170   27.6100   -9.2370 S.3   239  MET239     -0.1393
     91  CE        10.5060   27.2020   -8.0020 C.3   239  MET239      0.0692
     92  N         14.5240   32.1900  -11.5460 N.am  240  LEU240     -0.1980
     93  CA        15.8570   32.5590  -12.0370 C.3   240  LEU240      0.1596
     94  C         16.2120   34.0070  -11.7410 C.2   240  LEU240      0.2287
     95  O         15.3810   34.9020  -11.9090 O.2   240  LEU240     -0.2864
     96  CB        15.9830   32.3030  -13.5420 C.3   240  LEU240      0.0297
     97  CG        15.7870   30.8660  -14.0320 C.3   240  LEU240      0.0022
     98  CD1       15.7760   30.8420  -15.5500 C.3   240  LEU240      0.0001
     99  CD2       16.8530   29.9240  -13.4880 C.3   240  LEU240      0.0001
    100  N         17.3460   34.8020  -24.3110 N.3   248  MET248     -0.1245
    101  CA        17.0740   34.0570  -25.5470 C.3   248  MET248      0.1570
    102  C         16.8320   34.9870  -26.7130 C.2   248  MET248      0.2261
    103  O         16.0890   35.9600  -26.5830 O.2   248  MET248     -0.2867
    104  CB        15.8580   33.1550  -25.3700 C.3   248  MET248      0.0387
    105  CG        16.2350   31.7220  -25.0860 C.3   248  MET248      0.0595
    106  SD        14.7780   30.7640  -24.7120 S.3   248  MET248     -0.1393
    107  CE        15.1160   29.2650  -25.6390 C.3   248  MET248      0.0692
    108  N         18.1470   26.8050  -30.9930 N.3   272  VAL272     -0.1245
    109  CA        17.4220   26.4150  -32.1860 C.3   272  VAL272      0.1561
    110  C         18.2310   26.6860  -33.4500 C.2   272  VAL272      0.2260
    111  O         18.6200   27.8260  -33.7100 O.2   272  VAL272     -0.2867
    112  CB        16.0280   27.0990  -32.2570 C.3   272  VAL272      0.0252
    113  CG1       15.3420   26.7900  -33.5810 C.3   272  VAL272      0.0019
    114  CG2       15.1460   26.6610  -31.0950 C.3   272  VAL272      0.0019
    115  N         12.1460   36.1430  -21.9590 N.3   307  THR307     -0.1218
    116  CA        12.4730   35.1540  -20.9220 C.3   307  THR307      0.1862
    117  C         13.8220   35.4940  -20.3180 C.2   307  THR307      0.2287
    118  O         14.6550   36.1430  -20.9530 O.2   307  THR307     -0.2866
    119  CB        12.6030   33.7100  -21.4530 C.3   307  THR307      0.1770
    120  OG1       13.3940   33.7090  -22.6430 O.3   307  THR307     -0.2211
    121  CG2       11.2590   33.1060  -21.7430 C.3   307  THR307      0.0375
    122  N         15.1750   32.7020  -18.8720 N.3   309  GLY309     -0.1225
    123  CA        15.5750   31.2910  -18.9170 C.3   309  GLY309      0.1811
    124  C         15.7690   30.8380  -20.3580 C.2   309  GLY309      0.2280
    125  O         15.0870   31.3330  -21.2610 O.2   309  GLY309     -0.2866
    126  N         15.7140   27.5790  -22.6760 N.3   311  SER311     -0.1202
    127  CA        15.3900   26.1810  -22.9510 C.3   311  SER311      0.2020
    128  C         16.3830   25.5540  -23.9180 C.2   311  SER311      0.2618
    129  O         17.1360   26.2580  -24.5800 O.2   311  SER311     -0.2717
    130  CB        13.9770   26.0610  -23.5130 C.3   311  SER311      0.2103
    131  OG        13.6780   24.7090  -23.8020 O.3   311  SER311     -0.2182
    132  N         16.3610   24.2240  -23.9970 N.am  312  HIS312     -0.1975
    133  CA        17.2460   23.4490  -24.8820 C.3   312  HIS312      0.1656
    134  C         18.6950   23.6250  -24.5180 C.2   312  HIS312      0.2291
    135  O         19.5870   23.4680  -25.3520 O.2   312  HIS312     -0.2864
    136  CB        16.9480   23.7180  -26.3660 C.3   312  HIS312      0.0771
    137  CG        15.4790   23.6150  -26.6960 C.ar  312  HIS312      0.0820
    138  ND1       14.8310   22.4280  -26.7770 N.ar  312  HIS312     -0.2267
    139  CD2       14.5170   24.6050  -26.8860 C.ar  312  HIS312      0.1154
    140  CE1       13.5310   22.6520  -27.0190 C.ar  312  HIS312      0.1986
    141  NE2       13.3390   23.9850  -27.0920 N.ar  312  HIS312     -0.2212
    142  N         20.3720   24.0940  -18.4530 N.3   315  GLN315     -0.1231
    143  CA        19.5740   24.8030  -17.4750 C.3   315  GLN315      0.1698
    144  C         18.2280   24.1320  -17.2250 C.2   315  GLN315      0.2592
    145  O         17.5510   24.4500  -16.2560 O.2   315  GLN315     -0.2718
    146  CB        19.3750   26.2550  -17.8990 C.3   315  GLN315      0.0381
    147  CG        18.7290   27.0940  -16.8210 C.3   315  GLN315      0.0905
    148  CD        18.6310   28.5530  -17.1780 C.2   315  GLN315      0.2608
    149  OE1       18.9120   29.4230  -16.3490 O.2   315  GLN315     -0.2717
    150  NE2       18.2280   28.8400  -18.4140 N.am  315  GLN315     -0.0878
    151  N         17.8480   23.1930  -18.0820 N.am  316  MET316     -0.1979
    152  CA        16.5610   22.5070  -17.9240 C.3   316  MET316      0.1605
    153  C         16.6580   21.2920  -16.9990 C.2   316  MET316      0.2287
    154  O         15.6320   20.7850  -16.5420 O.2   316  MET316     -0.2864
    155  CB        15.9720   22.0890  -19.2920 C.3   316  MET316      0.0413
    156  CG        15.7730   23.2030  -20.3200 C.3   316  MET316      0.0598
    157  SD        14.5580   24.4500  -19.8580 S.3   316  MET316     -0.1393
    158  CE        15.6290   25.7730  -19.3000 C.3   316  MET316      0.0692
    159  N         17.2600   20.4780  -13.8460 N.3   318  PRO318     -0.2102
    160  CA        16.4180   20.3400  -12.6560 C.3   318  PRO318      0.1504
    161  C         14.9510   19.9750  -12.9400 C.2   318  PRO318      0.2575
    162  O         14.3050   19.3810  -12.0790 O.2   318  PRO318     -0.2718
    163  CB        16.5150   21.7220  -11.9780 C.3   318  PRO318      0.0282
    164  CG        17.3700   22.5780  -12.8630 C.3   318  PRO318      0.0208
    165  CD        18.1430   21.6540  -13.7450 C.3   318  PRO318      0.0893
    166  N         14.4420   20.3080  -14.1290 N.am  319  LEU319     -0.1980
    167  CA        13.0320   20.0640  -14.4750 C.3   319  LEU319      0.1596
    168  C         12.7500   18.6230  -14.8380 C.2   319  LEU319      0.2287
    169  O         11.6410   18.1320  -14.6290 O.2   319  LEU319     -0.2864
    170  CB        12.5890   20.9630  -15.6250 C.3   319  LEU319      0.0297
    171  CG        12.6830   22.4630  -15.3590 C.3   319  LEU319      0.0022
    172  CD1       12.4250   23.2320  -16.6430 C.3   319  LEU319      0.0001
    173  CD2       11.7180   22.8850  -14.2590 C.3   319  LEU319      0.0001
@<TRIPOS>BOND
     1    37    35   am
     2    33    34    1
     3    33    30    1
     4    35    34    1
     5    35    36    2
     6    29    30    1
     7    30    31    1
     8   111   110    2
     9   113   112    1
    10   110   109    1
    11     4     3    2
    12    31    32    2
    13    31    38   am
    14   112   109    1
    15   112   114    1
    16   109   108    1
    17    38    39    1
    18     3     2    1
    19     1     2    1
    20     2     5    1
    21     5     6    1
    22    39    42    1
    23    39    40    1
    24    42    43    1
    25     8     6   ar
    26     8    10   ar
    27     6     7   ar
    28    46    47    2
    29    46    45    1
    30    40    44   am
    31    40    41    2
    32    51    49    1
    33    44    45    1
    34    48    45    1
    35    48    49    1
    36    10    11   ar
    37     7     9   ar
    38    49    50    1
    39    11     9   ar
    40   141   140   ar
    41   141   139   ar
    42   140   138   ar
    43   139   137   ar
    44   138   137   ar
    45   102   103    2
    46   102   101    1
    47   137   136    1
    48   136   133    1
    49    23    22    2
    50   107   106    1
    51   101   104    1
    52   101   100    1
    53   104   105    1
    54   135   134    2
    55   105   106    1
    56    22    21    1
    57    21    20    1
    58    21    24    1
    59    62    60    1
    60   133   134    1
    61   133   132    1
    62    61    60    1
    63    60    59    2
    64   129   128    2
    65    25    24    1
    66    25    26    1
    67    59    58    1
    68   132   128   am
    69   128   127    1
    70    58    57    1
    71   131   130    1
    72    26    27    2
    73    26    28   am
    74   130   127    1
    75   127   126    1
    76   120   119    1
    77    57    56    1
    78    70    69    1
    79    15    14    2
    80   115   116    1
    81   121   119    1
    82    69    68    1
    83   119   116    1
    84    56    53    1
    85   125   124    2
    86    14    13    1
    87   118   117    2
    88    13    12    1
    89    13    16    1
    90   116   117    1
    91   124   123    1
    92    17    16    1
    93    17    19    1
    94   156   157    1
    95   156   155    1
    96    18    16    1
    97    53    54    1
    98    53    52    1
    99    68    67    1
   100   157   158    1
   101    54    55    2
   102   155   152    1
   103    67    64    1
   104   123   122    1
   105   142   143    1
   106   150   148   am
   107   151   152    1
   108   151   144   am
   109   152   153    1
   110   146   143    1
   111   146   147    1
   112    64    65    1
   113    64    63    1
   114   143   144    1
   115    80    81    1
   116    80    79    1
   117    83    81   ar
   118   144   145    2
   119   148   147    1
   120   148   149    2
   121    65    66    2
   122    81    82   ar
   123   153   154    2
   124   172   171    1
   125    79    76    1
   126   170   171    1
   127   170   167    1
   128    98    97    1
   129   171   173    1
   130    76    75    1
   131    76    77    1
   132   168   169    2
   133   168   167    1
   134    75    73   am
   135   167   166    1
   136    78    77    2
   137   166   161   am
   138    97    96    1
   139    97    99    1
   140   159   165    1
   141   159   160    1
   142   165   164    1
   143    73    72    1
   144    73    74    2
   145    96    93    1
   146    71    72    1
   147   161   160    1
   148   161   162    2
   149   164   163    1
   150   160   163    1
   151    93    94    1
   152    93    92    1
   153    95    94    2
   154    92    86   am
   155    84    85    1
   156    86    85    1
   157    86    87    2
   158    85    88    1
   159    88    89    1
   160    90    89    1
   161    90    91    1
