@<TRIPOS>MOLECULE
tmp/3u02B00.pdb
 114 104 0 0 0
SMALL
GASTEIGER

@<TRIPOS>ATOM
      1  N         23.7310   33.2750   16.5470 N.3    10  THR10      -0.1218
      2  CA        22.8680   32.2230   15.9850 C.3    10  THR10       0.1862
      3  C         21.7080   31.8590   16.9250 C.2    10  THR10       0.2287
      4  O         20.5730   31.6440   16.4820 O.2    10  THR10      -0.2866
      5  CB        23.6700   30.9730   15.5820 C.3    10  THR10       0.1770
      6  OG1       24.3750   30.4710   16.7190 O.3    10  THR10      -0.2211
      7  CG2       24.6690   31.3070   14.4750 C.3    10  THR10       0.0375
      8  N         23.0420   31.7210    7.7810 N.3    32  LEU32      -0.1245
      9  CA        24.1830   31.9600    8.6350 C.3    32  LEU32       0.1561
     10  C         25.3180   32.2740    7.6960 C.2    32  LEU32       0.2260
     11  O         25.6770   31.4550    6.8560 O.2    32  LEU32      -0.2867
     12  CB        24.4810   30.6910    9.4190 C.3    32  LEU32       0.0270
     13  CG        25.4150   30.6980   10.6200 C.3    32  LEU32       0.0019
     14  CD1       24.8760   29.6810   11.6020 C.3    32  LEU32       0.0001
     15  CD2       26.8040   30.3340   10.1950 C.3    32  LEU32       0.0001
     16  N         29.2210   33.5060    7.0960 N.3    34  ARG34      -0.1245
     17  CA        30.5710   33.7620    7.5920 C.3    34  ARG34       0.1563
     18  C         31.3950   34.5240    6.5390 C.2    34  ARG34       0.2260
     19  O         31.4570   34.1170    5.3830 O.2    34  ARG34      -0.2867
     20  CB        31.2550   32.4560    7.9990 C.3    34  ARG34       0.0307
     21  CG        32.5040   32.6590    8.8500 C.3    34  ARG34       0.0489
     22  CD        33.3970   31.4230    8.8610 C.3    34  ARG34       0.2205
     23  NE        33.5460   30.8510   10.1980 N.pl3  34  ARG34      -0.0865
     24  CZ        34.1030   29.6690   10.4450 C.cat  34  ARG34       0.5346
     25  NH1       34.5650   28.9290    9.4400 N.pl3  34  ARG34       0.1354
     26  NH2       34.1930   29.2270   11.6940 N.pl3  34  ARG34       0.1354
     27  N         34.0520   32.0310   13.2190 N.3    41  TYR41      -0.1227
     28  CA        32.6620   32.4730   13.2890 C.3    41  TYR41       0.1736
     29  C         32.2430   32.5900   14.7440 C.2    41  TYR41       0.2595
     30  O         31.4050   31.8300   15.2370 O.2    41  TYR41      -0.2718
     31  CB        31.6920   31.5470   12.5540 C.3    41  TYR41       0.0548
     32  CG        30.2810   32.1090   12.5080 C.ar   41  TYR41      -0.0200
     33  CD1       29.5750   32.3750   13.6790 C.ar   41  TYR41      -0.0009
     34  CD2       29.6580   32.3800   11.3000 C.ar   41  TYR41      -0.0009
     35  CE1       28.2950   32.8960   13.6520 C.ar   41  TYR41       0.0417
     36  CE2       28.3690   32.9000   11.2600 C.ar   41  TYR41       0.0417
     37  CZ        27.6920   33.1570   12.4390 C.ar   41  TYR41       0.1957
     38  OH        26.4120   33.6720   12.4070 O.3    41  TYR41      -0.2866
     39  N         32.8700   33.5180   15.4450 N.am   42  LYS42      -0.1980
     40  CA        32.2990   34.0240   16.6660 C.3    42  LYS42       0.1596
     41  C         31.8590   35.4020   16.2490 C.2    42  LYS42       0.2287
     42  O         31.4080   35.6190   15.1170 O.2    42  LYS42      -0.2864
     43  CB        33.3540   34.1500   17.7630 C.3    42  LYS42       0.0298
     44  CG        33.9910   32.8460   18.2170 C.3    42  LYS42       0.0038
     45  CD        34.8680   33.0980   19.4440 C.3    42  LYS42       0.0206
     46  CE        35.6140   31.8480   19.8900 C.3    42  LYS42       0.1093
     47  NZ        36.4130   32.0870   21.1320 N.3    42  LYS42      -0.1314
     48  N         22.9990   23.6580    8.0120 N.3   150  GLU150     -0.1245
     49  CA        23.6550   23.5710    9.3110 C.3   150  GLU150      0.1567
     50  C         22.5890   23.5350   10.3960 C.2   150  GLU150      0.2260
     51  O         21.8330   24.4950   10.5770 O.2   150  GLU150     -0.2867
     52  CB        24.6120   24.7370    9.5210 C.3   150  GLU150      0.0388
     53  CG        25.4850   24.5870   10.7480 C.3   150  GLU150      0.1160
     54  CD        26.6580   25.5490   10.7730 C.2   150  GLU150      0.3649
     55  OE1       27.4620   25.5430    9.8220 O.co2 150  GLU150     -0.2457
     56  OE2       26.7840   26.3100   11.7470 O.co2 150  GLU150     -0.2457
     57  N         21.8270   23.3530   14.2790 N.3   152  LEU152     -0.1245
     58  CA        22.4790   23.6490   15.5360 C.3   152  LEU152      0.1561
     59  C         21.4950   23.3970   16.6530 C.2   152  LEU152      0.2260
     60  O         20.3620   23.8840   16.6190 O.2   152  LEU152     -0.2867
     61  CB        22.9510   25.1120   15.5750 C.3   152  LEU152      0.0270
     62  CG        24.0170   25.5220   14.5610 C.3   152  LEU152      0.0019
     63  CD1       24.2540   27.0190   14.5970 C.3   152  LEU152      0.0001
     64  CD2       25.3230   24.7620   14.8150 C.3   152  LEU152      0.0001
     65  N         29.5400   19.3430   14.3090 N.3   195  ILE195     -0.1245
     66  CA        30.1360   20.4970   14.9350 C.3   195  ILE195      0.1561
     67  C         30.0930   20.2940   16.4400 C.2   195  ILE195      0.2260
     68  O         29.0290   20.1060   17.0170 O.2   195  ILE195     -0.2867
     69  CB        29.3880   21.7630   14.5570 C.3   195  ILE195      0.0252
     70  CG1       29.2440   21.8270   13.0380 C.3   195  ILE195      0.0019
     71  CG2       30.1070   22.9840   15.1260 C.3   195  ILE195      0.0019
     72  CD1       28.4350   23.0130   12.5490 C.3   195  ILE195      0.0001
     73  N         31.1890   22.1690   19.6260 N.3   197  PRO197     -0.2116
     74  CA        31.7490   23.3290   20.3200 C.3   197  PRO197      0.1372
     75  C         32.2950   22.9690   21.7030 C.2   197  PRO197      0.2244
     76  O         32.0610   21.8660   22.2190 O.2   197  PRO197     -0.2868
     77  CB        30.5630   24.3100   20.4030 C.3   197  PRO197      0.0268
     78  CG        29.3470   23.4980   20.0990 C.3   197  PRO197      0.0207
     79  CD        29.7880   22.3780   19.2200 C.3   197  PRO197      0.0892
     80  N         29.9810   28.4880   25.0330 N.3   201  ASP201     -0.1239
     81  CA        29.1770   28.5700   23.8150 C.3   201  ASP201      0.1674
     82  C         27.8520   27.8310   24.0000 C.2   201  ASP201      0.2266
     83  O         27.8490   26.6430   24.2840 O.2   201  ASP201     -0.2867
     84  CB        29.9660   27.9090   22.6810 C.3   201  ASP201      0.1410
     85  CG        29.2400   27.9380   21.3550 C.2   201  ASP201      0.3668
     86  OD1       29.8870   27.6420   20.3370 O.co2 201  ASP201     -0.2456
     87  OD2       28.0350   28.2510   21.3200 O.co2 201  ASP201     -0.2456
     88  N         25.8590   26.5830   21.9680 N.3   203  VAL203     -0.1245
     89  CA        25.5740   25.4640   21.0700 C.3   203  VAL203      0.1561
     90  C         25.9740   24.1340   21.7140 C.2   203  VAL203      0.2260
     91  O         27.1000   23.9790   22.1510 O.2   203  VAL203     -0.2867
     92  CB        26.2610   25.6280   19.7000 C.3   203  VAL203      0.0252
     93  CG1       26.1490   24.3410   18.8800 C.3   203  VAL203      0.0019
     94  CG2       25.6550   26.7990   18.9530 C.3   203  VAL203      0.0019
     95  N         26.6840   19.8700    9.8870 N.3   208  ARG208     -0.1245
     96  CA        26.7430   20.5430    8.6020 C.3   208  ARG208      0.1563
     97  C         26.7130   19.4960    7.5050 C.2   208  ARG208      0.2260
     98  O         27.4810   18.5310    7.5410 O.2   208  ARG208     -0.2867
     99  CB        28.0110   21.3910    8.4810 C.3   208  ARG208      0.0307
    100  CG        27.9110   22.4180    7.3490 C.3   208  ARG208      0.0489
    101  CD        29.0970   23.3760    7.3080 C.3   208  ARG208      0.2205
    102  NE        29.2030   24.1580    8.5340 N.pl3 208  ARG208     -0.0865
    103  CZ        30.3300   24.7030    8.9720 C.cat 208  ARG208      0.5346
    104  NH1       31.4480   24.5560    8.2750 N.pl3 208  ARG208      0.1354
    105  NH2       30.3410   25.3910   10.1060 N.pl3 208  ARG208      0.1354
    106  N         29.0880   28.4290    4.2850 N.3   237  GLN237     -0.1245
    107  CA        30.2190   27.5960    4.6340 C.3   237  GLN237      0.1566
    108  C         30.1000   26.2210    3.9820 C.2   237  GLN237      0.2260
    109  O         29.0440   25.8510    3.4700 O.2   237  GLN237     -0.2867
    110  CB        30.3140   27.4580    6.1490 C.3   237  GLN237      0.0367
    111  CG        30.3960   28.7840    6.8550 C.3   237  GLN237      0.0905
    112  CD        30.5450   28.6160    8.3430 C.2   237  GLN237      0.2608
    113  OE1       31.6540   28.5010    8.8620 O.2   237  GLN237     -0.2717
    114  NE2       29.4240   28.6000    9.0460 N.am  237  GLN237     -0.0878
@<TRIPOS>BOND
     1   109   108    2
     2   108   107    1
     3   106   107    1
     4   107   110    1
     5    19    18    2
     6   110   111    1
     7    18    17    1
     8   111   112    1
     9    11    10    2
    10    16    17    1
    11   101   100    1
    12   101   102    1
    13   100    99    1
    14    97    98    2
    15    97    96    1
    16    17    20    1
    17    10     9    1
    18     8     9    1
    19    20    21    1
    20    48    49    1
    21   104   103    1
    22   112   113    2
    23   112   114   am
    24    99    96    1
    25   102   103    2
    26    96    95    1
    27     9    12    1
    28    21    22    1
    29    22    23    1
    30   103   105    1
    31    49    52    1
    32    49    50    1
    33    12    13    1
    34    25    24    1
    35    52    53    1
    36    55    54   ar
    37    15    13    1
    38    23    24    2
    39    50    51    2
    40    24    26    1
    41    13    14    1
    42    53    54    1
    43    54    56   ar
    44    36    34   ar
    45    36    37   ar
    46    34    32   ar
    47    38    37    1
    48    37    35   ar
    49    32    31    1
    50    32    33   ar
    51    72    70    1
    52    31    28    1
    53    70    69    1
    54    27    28    1
    55    28    29    1
    56    35    33   ar
    57    57    58    1
    58    65    66    1
    59     7     5    1
    60    69    66    1
    61    69    71    1
    62    62    63    1
    63    62    64    1
    64    62    61    1
    65    29    30    2
    66    29    39   am
    67    66    67    1
    68    42    41    2
    69    39    40    1
    70    58    61    1
    71    58    59    1
    72     5     2    1
    73     5     6    1
    74     2     1    1
    75     2     3    1
    76    41    40    1
    77    67    68    2
    78     4     3    2
    79    60    59    2
    80    40    43    1
    81    43    44    1
    82    44    45    1
    83    93    92    1
    84    94    92    1
    85    79    73    1
    86    79    78    1
    87    45    46    1
    88    73    74    1
    89    92    89    1
    90    46    47    1
    91    78    77    1
    92    74    77    1
    93    74    75    1
    94    86    85   ar
    95    89    90    1
    96    89    88    1
    97    87    85   ar
    98    85    84    1
    99    75    76    2
   100    90    91    2
   101    84    81    1
   102    81    82    1
   103    81    80    1
   104    82    83    2
