@<TRIPOS>MOLECULE
tmp/3u03A00.pdb
 114 111 0 0 0
SMALL
GASTEIGER

@<TRIPOS>ATOM
      1  N         30.5330   86.7720   61.2600 N.3    36  ALA36      -0.1231
      2  CA        31.2500   86.7370   62.5490 C.3    36  ALA36       0.1694
      3  C         32.6400   86.0780   62.4670 C.2    36  ALA36       0.2591
      4  O         33.2570   85.8390   63.4940 O.2    36  ALA36      -0.2718
      5  CB        30.4070   86.0570   63.6150 C.3    36  ALA36       0.0304
      6  N         33.1320   85.8020   61.2610 N.am   37  ILE37      -0.1980
      7  CA        34.4740   85.2430   61.0770 C.3    37  ILE37       0.1595
      8  C         35.4510   86.3590   60.7160 C.2    37  ILE37       0.2287
      9  O         35.3080   86.9810   59.6730 O.2    37  ILE37      -0.2864
     10  CB        34.5000   84.1990   59.9420 C.3    37  ILE37       0.0276
     11  CG1       33.4980   83.0590   60.2170 C.3    37  ILE37       0.0022
     12  CG2       35.9170   83.6710   59.7520 C.3    37  ILE37       0.0022
     13  CD1       33.7780   82.2730   61.4800 C.3    37  ILE37       0.0001
     14  N         25.9640   68.2910   67.3790 N.3    77  ARG77      -0.1245
     15  CA        24.6530   68.8020   66.9930 C.3    77  ARG77       0.1563
     16  C         23.8980   67.7840   66.1340 C.2    77  ARG77       0.2260
     17  O         24.5080   66.8960   65.5300 O.2    77  ARG77      -0.2867
     18  CB        24.7660   70.1700   66.3060 C.3    77  ARG77       0.0307
     19  CG        25.8520   70.2980   65.2540 C.3    77  ARG77       0.0489
     20  CD        26.7110   71.5270   65.5080 C.3    77  ARG77       0.2205
     21  NE        27.5680   71.8540   64.3630 N.pl3  77  ARG77      -0.0865
     22  CZ        28.7080   71.2420   64.0510 C.cat  77  ARG77       0.5346
     23  NH1       29.1820   70.2270   64.7910 N.pl3  77  ARG77       0.1354
     24  NH2       29.3780   71.6480   62.9820 N.pl3  77  ARG77       0.1354
     25  N         18.0520   78.3000   63.2950 N.3   102  TYR102     -0.1241
     26  CA        19.2770   77.6820   62.7980 C.3   102  TYR102      0.1605
     27  C         18.9660   76.8910   61.5340 C.2   102  TYR102      0.2264
     28  O         18.1500   75.9770   61.5740 O.2   102  TYR102     -0.2867
     29  CB        19.8560   76.7550   63.8660 C.3   102  TYR102      0.0534
     30  CG        21.2490   76.2230   63.5830 C.ar  102  TYR102     -0.0201
     31  CD1       21.4480   75.1580   62.7110 C.ar  102  TYR102     -0.0009
     32  CD2       22.3620   76.7610   64.2220 C.ar  102  TYR102     -0.0009
     33  CE1       22.7170   74.6520   62.4710 C.ar  102  TYR102      0.0417
     34  CE2       23.6320   76.2630   63.9930 C.ar  102  TYR102      0.0417
     35  CZ        23.8040   75.2070   63.1090 C.ar  102  TYR102      0.1957
     36  OH        25.0640   74.7020   62.8650 O.3   102  TYR102     -0.2866
     37  N         25.3880   78.1110   56.5010 N.3   119  PHE119     -0.1227
     38  CA        24.6780   78.0970   57.7650 C.3   119  PHE119      0.1736
     39  C         24.0950   79.4800   58.0480 C.2   119  PHE119      0.2595
     40  O         24.7190   80.4920   57.7460 O.2   119  PHE119     -0.2718
     41  CB        25.6150   77.7140   58.9040 C.3   119  PHE119      0.0547
     42  CG        26.3040   76.3990   58.7190 C.ar  119  PHE119     -0.0202
     43  CD1       25.8460   75.2660   59.3780 C.ar  119  PHE119     -0.0042
     44  CD2       27.4250   76.2920   57.9020 C.ar  119  PHE119     -0.0042
     45  CE1       26.4800   74.0490   59.2170 C.ar  119  PHE119     -0.0003
     46  CE2       28.0610   75.0760   57.7420 C.ar  119  PHE119     -0.0003
     47  CZ        27.5920   73.9520   58.4020 C.ar  119  PHE119     -0.0000
     48  N         22.8920   79.5110   58.6110 N.am  120  LYS120     -0.1966
     49  CA        22.2630   80.7580   59.0560 C.3   120  LYS120      0.1728
     50  C         21.6250   80.5110   60.4160 C.2   120  LYS120      0.2616
     51  O         20.9300   79.5140   60.6090 O.2   120  LYS120     -0.2715
     52  CB        21.1980   81.2470   58.0550 C.3   120  LYS120      0.0311
     53  CG        20.7810   82.6920   58.2710 C.3   120  LYS120      0.0038
     54  CD        19.7210   83.2000   57.2910 C.3   120  LYS120      0.0206
     55  CE        18.2960   82.8000   57.6790 C.3   120  LYS120      0.1093
     56  NZ        17.8200   83.3370   58.9970 N.3   120  LYS120     -0.1314
     57  N         21.8680   81.4110   61.3590 N.am  121  LYS121     -0.1977
     58  CA        21.2450   81.2940   62.6720 C.3   121  LYS121      0.1596
     59  C         20.9440   82.6510   63.3050 C.2   121  LYS121      0.2287
     60  O         21.6280   83.6450   63.0280 O.2   121  LYS121     -0.2864
     61  CB        22.1310   80.4560   63.5960 C.3   121  LYS121      0.0298
     62  CG        23.3940   81.1480   64.0750 C.3   121  LYS121      0.0038
     63  CD        24.0890   80.2940   65.1210 C.3   121  LYS121      0.0206
     64  CE        25.2670   81.0340   65.7260 C.3   121  LYS121      0.1093
     65  NZ        26.2540   80.1280   66.3840 N.3   121  LYS121     -0.1314
     66  N         20.8110   84.2240   67.0430 N.3   123  SER123     -0.1217
     67  CA        21.2320   83.9600   68.4120 C.3   123  SER123      0.1889
     68  C         21.3590   85.2930   69.1560 C.2   123  SER123      0.2288
     69  O         22.0480   86.2030   68.6900 O.2   123  SER123     -0.2866
     70  CB        22.5560   83.1930   68.4010 C.3   123  SER123      0.2089
     71  OG        23.2170   83.2750   69.6440 O.3   123  SER123     -0.2183
     72  N         20.5280   88.2950   67.1310 N.3   126  ARG126     -0.1245
     73  CA        21.4930   88.7390   66.1460 C.3   126  ARG126      0.1563
     74  C         21.5620   87.6720   65.0650 C.2   126  ARG126      0.2260
     75  O         21.5610   86.4840   65.3700 O.2   126  ARG126     -0.2867
     76  CB        22.8520   88.9660   66.8060 C.3   126  ARG126      0.0307
     77  CG        22.8420   90.1000   67.8270 C.3   126  ARG126      0.0489
     78  CD        24.2460   90.4480   68.2960 C.3   126  ARG126      0.2205
     79  NE        24.9880   89.2500   68.6900 N.pl3 126  ARG126     -0.0865
     80  CZ        24.9880   88.7090   69.9140 C.cat 126  ARG126      0.5346
     81  NH1       24.3010   89.2590   70.9190 N.pl3 126  ARG126      0.1354
     82  NH2       25.7010   87.6070   70.1400 N.pl3 126  ARG126      0.1354
     83  N         23.3710   85.6470   62.2230 N.3   128  TYR128     -0.1227
     84  CA        24.6970   85.2270   61.7670 C.3   128  TYR128      0.1736
     85  C         24.5830   84.3070   60.5550 C.2   128  TYR128      0.2595
     86  O         23.6160   83.5430   60.4220 O.2   128  TYR128     -0.2718
     87  CB        25.4260   84.4960   62.8920 C.3   128  TYR128      0.0548
     88  CG        25.7060   85.3410   64.1250 C.ar  128  TYR128     -0.0200
     89  CD1       24.9210   85.2270   65.2680 C.ar  128  TYR128     -0.0009
     90  CD2       26.7640   86.2460   64.1480 C.ar  128  TYR128     -0.0009
     91  CE1       25.1790   85.9960   66.3970 C.ar  128  TYR128      0.0417
     92  CE2       27.0310   87.0180   65.2710 C.ar  128  TYR128      0.0417
     93  CZ        26.2370   86.8900   66.3900 C.ar  128  TYR128      0.1957
     94  OH        26.5160   87.6460   67.5110 O.3   128  TYR128     -0.2866
     95  N         25.5560   84.3960   59.6580 N.am  129  PHE129     -0.1962
     96  CA        25.7030   83.3890   58.6060 C.3   129  PHE129      0.1771
     97  C         27.1690   83.0370   58.4070 C.2   129  PHE129      0.2619
     98  O         28.0670   83.8110   58.7470 O.2   129  PHE129     -0.2715
     99  CB        25.0360   83.8180   57.2890 C.3   129  PHE129      0.0574
    100  CG        25.7670   84.8930   56.5280 C.ar  129  PHE129     -0.0200
    101  CD1       25.6690   86.2220   56.9050 C.ar  129  PHE129     -0.0042
    102  CD2       26.5010   84.5810   55.3830 C.ar  129  PHE129     -0.0042
    103  CE1       26.3160   87.2210   56.1870 C.ar  129  PHE129     -0.0003
    104  CE2       27.1470   85.5680   54.6610 C.ar  129  PHE129     -0.0003
    105  CZ        27.0590   86.8910   55.0640 C.ar  129  PHE129     -0.0000
    106  N         27.3990   81.8280   57.9100 N.am  130  LYS130     -0.1977
    107  CA        28.7310   81.4100   57.5420 C.3   130  LYS130      0.1596
    108  C         28.6970   80.3890   56.4150 C.2   130  LYS130      0.2287
    109  O         27.6700   79.7440   56.1530 O.2   130  LYS130     -0.2864
    110  CB        29.4990   80.8870   58.7720 C.3   130  LYS130      0.0298
    111  CG        29.0670   79.5450   59.3210 C.3   130  LYS130      0.0038
    112  CD        30.1280   78.9710   60.2570 C.3   130  LYS130      0.0206
    113  CE        29.7270   77.5820   60.7520 C.3   130  LYS130      0.1093
    114  NZ        30.0720   77.3870   62.1940 N.3   130  LYS130     -0.1314
@<TRIPOS>BOND
     1   104   105   ar
     2   104   102   ar
     3   105   103   ar
     4   102   100   ar
     5   109   108    2
     6   103   101   ar
     7   108   107    1
     8    37    38    1
     9   100   101   ar
    10   100    99    1
    11    99    96    1
    12    54    55    1
    13    54    53    1
    14   107   106    1
    15   107   110    1
    16    55    56    1
    17    46    44   ar
    18    46    47   ar
    19    40    39    2
    20    38    39    1
    21    38    41    1
    22    44    42   ar
    23   106    97   am
    24    39    48   am
    25    52    53    1
    26    52    49    1
    27    47    45   ar
    28    97    96    1
    29    97    98    2
    30    96    95    1
    31    48    49    1
    32    42    41    1
    33    42    43   ar
    34   110   111    1
    35    49    50    1
    36    45    43   ar
    37   111   112    1
    38    95    85   am
    39     9     8    2
    40    12    10    1
    41    10    11    1
    42    10     7    1
    43    11    13    1
    44   112   113    1
    45    50    51    2
    46    50    57   am
    47    86    85    2
    48    85    84    1
    49     8     7    1
    50   113   114    1
    51     7     6    1
    52     1     2    1
    53     6     3   am
    54    57    58    1
    55    27    28    2
    56    27    26    1
    57    84    83    1
    58    84    87    1
    59     3     2    1
    60     3     4    2
    61    33    31   ar
    62    33    35   ar
    63     2     5    1
    64    58    59    1
    65    58    61    1
    66    31    30   ar
    67    26    25    1
    68    26    29    1
    69    36    35    1
    70    87    88    1
    71    24    22    1
    72    60    59    2
    73    35    34   ar
    74    30    29    1
    75    30    32   ar
    76    61    62    1
    77    34    32   ar
    78    22    21    2
    79    22    23    1
    80    62    63    1
    81    88    90   ar
    82    88    89   ar
    83    90    92   ar
    84    21    20    1
    85    74    75    2
    86    74    73    1
    87    63    64    1
    88    19    20    1
    89    19    18    1
    90    89    91   ar
    91    92    93   ar
    92    17    16    2
    93    64    65    1
    94    16    15    1
    95    73    76    1
    96    73    72    1
    97    18    15    1
    98    93    91   ar
    99    93    94    1
   100    76    77    1
   101    15    14    1
   102    66    67    1
   103    77    78    1
   104    78    79    1
   105    70    67    1
   106    70    71    1
   107    67    68    1
   108    79    80    2
   109    69    68    2
   110    80    82    1
   111    80    81    1
