@<TRIPOS>MOLECULE
tmp/3u04A00.pdb
 149 146 0 0 0
SMALL
GASTEIGER

@<TRIPOS>ATOM
      1  N        -17.9690   -2.6380   12.2780 N.3    42  ASN42      -0.1225
      2  CA       -17.3320   -2.0060   11.1340 C.3    42  ASN42       0.1785
      3  C        -15.8960   -2.4780   10.8810 C.2    42  ASN42       0.2597
      4  O        -15.2170   -1.9380   10.0120 O.2    42  ASN42      -0.2718
      5  CB       -17.3680   -0.4850   11.2950 C.3    42  ASN42       0.1169
      6  CG       -18.6930    0.0940   10.8900 C.2    42  ASN42       0.2627
      7  OD1      -19.0070    0.1380    9.6870 O.2    42  ASN42      -0.2716
      8  ND2      -19.5220    0.4910   11.8740 N.am   42  ASN42      -0.0877
      9  N        -15.4670   -3.4980   11.6210 N.am   43  GLN43      -0.1965
     10  CA       -14.1310   -4.0630   11.4780 C.3    43  GLN43       0.1733
     11  C        -13.0300   -3.0400   11.7170 C.2    43  GLN43       0.2617
     12  O        -12.0220   -3.0690   11.0230 O.2    43  GLN43      -0.2715
     13  CB       -13.9610   -4.6960   10.0750 C.3    43  GLN43       0.0408
     14  CG       -14.9660   -5.7910    9.8070 C.3    43  GLN43       0.0908
     15  CD       -14.7090   -7.0070   10.6750 C.2    43  GLN43       0.2608
     16  OE1      -13.5680   -7.4670   10.7890 O.2    43  GLN43      -0.2717
     17  NE2      -15.7550   -7.5110   11.3260 N.am   43  GLN43      -0.0878
     18  N        -13.2660   -2.1330   12.6580 N.am   44  GLY44      -0.1940
     19  CA       -12.2880   -1.0740   12.9880 C.3    44  GLY44       0.2014
     20  C        -11.3270   -1.4240   14.1130 C.2    44  GLY44       0.2639
     21  O        -11.6120   -2.2610   14.9770 O.2    44  GLY44      -0.2714
     22  N        -10.2010   -0.7140   14.1390 N.am   45  LEU45      -0.1963
     23  CA        -9.2410   -0.7780   15.2260 C.3    45  LEU45       0.1728
     24  C         -9.5380    0.2420   16.3580 C.2    45  LEU45       0.2616
     25  O         -9.0050    0.1510   17.4620 O.2    45  LEU45      -0.2715
     26  CB        -7.8580   -0.4660   14.6560 C.3    45  LEU45       0.0311
     27  CG        -7.1760   -1.4710   13.7360 C.3    45  LEU45       0.0022
     28  CD1       -5.9310   -0.8040   13.1160 C.3    45  LEU45       0.0001
     29  CD2       -6.8260   -2.7010   14.5520 C.3    45  LEU45       0.0001
     30  N        -10.3400    1.2460   16.0380 N.am   46  GLY46      -0.1955
     31  CA       -10.7000    2.2820   16.9900 C.3    46  GLY46       0.1869
     32  C        -11.8950    3.0430   16.4760 C.2    46  GLY46       0.2309
     33  O        -12.3470    2.7890   15.3570 O.2    46  GLY46      -0.2863
     34  N        -17.4750   10.4560   15.2620 N.3    51  GLN51      -0.1245
     35  CA       -17.8070    9.5910   14.1520 C.3    51  GLN51       0.1566
     36  C        -19.1780    8.9500   14.3200 C.2    51  GLN51       0.2260
     37  O        -19.6990    8.4210   13.3340 O.2    51  GLN51      -0.2867
     38  CB       -16.7510    8.5000   13.9950 C.3    51  GLN51       0.0367
     39  CG       -15.3890    9.0320   13.6220 C.3    51  GLN51       0.0905
     40  CD       -14.4220    7.9110   13.4140 C.2    51  GLN51       0.2608
     41  OE1      -13.8530    7.4070   14.3730 O.2    51  GLN51      -0.2717
     42  NE2      -14.3000    7.4340   12.1580 N.am   51  GLN51      -0.0878
     43  N          0.1120    2.8980    6.2390 N.3    95  LYS95      -0.1231
     44  CA        -1.1060    3.0220    5.4730 C.3    95  LYS95       0.1693
     45  C         -2.2870    3.1210    6.4370 C.2    95  LYS95       0.2592
     46  O         -2.3740    2.3440    7.4080 O.2    95  LYS95      -0.2718
     47  CB        -1.2870    1.8030    4.5890 C.3    95  LYS95       0.0285
     48  CG        -2.4680    1.9590    3.6510 C.3    95  LYS95       0.0035
     49  CD        -2.5460    0.8730    2.5960 C.3    95  LYS95       0.0206
     50  CE        -3.3200   -0.3260    3.0720 C.3    95  LYS95       0.1093
     51  NZ        -3.5260   -1.2820    1.9340 N.3    95  LYS95      -0.1314
     52  N         -3.1720    4.0710    6.1680 N.am   96  GLU96      -0.1966
     53  CA        -4.3870    4.2540    6.9800 C.3    96  GLU96       0.1733
     54  C         -5.6210    4.2950    6.1340 C.2    96  GLU96       0.2617
     55  O         -5.6010    4.8160    5.0300 O.2    96  GLU96      -0.2715
     56  CB        -4.3400    5.5930    7.7290 C.3    96  GLU96       0.0429
     57  CG        -3.2360    5.7140    8.7040 C.3    96  GLU96       0.1163
     58  CD        -3.2900    6.9580    9.5550 C.2    96  GLU96       0.3649
     59  OE1       -4.4090    7.5350    9.8060 O.co2  96  GLU96      -0.2457
     60  OE2       -2.1890    7.3340    9.9750 O.co2  96  GLU96      -0.2457
     61  N         -6.7320    3.8130    6.6960 N.am   97  GLY97      -0.1940
     62  CA        -8.0400    4.1660    6.2270 C.3    97  GLY97       0.2014
     63  C         -8.8330    4.6630    7.4120 C.2    97  GLY97       0.2639
     64  O         -8.3160    4.7370    8.5440 O.2    97  GLY97      -0.2714
     65  N        -10.0700    5.0300    7.1280 N.am   98  CYS98      -0.1953
     66  CA       -10.9520    5.6160    8.1590 C.3    98  CYS98       0.1843
     67  C        -12.3680    5.2450    7.8770 C.2    98  CYS98       0.2625
     68  O        -12.8190    5.3200    6.7140 O.2    98  CYS98      -0.2714
     69  CB       -10.8550    7.1410    8.1000 C.3    98  CYS98       0.0997
     70  SG       -11.7830    8.0960    9.3220 S.3    98  CYS98      -0.0797
     71  N        -13.1320    4.9480    8.9330 N.am   99  LEU99      -0.1977
     72  CA       -14.5530    4.6380    8.7270 C.3    99  LEU99       0.1596
     73  C        -15.3790    5.8120    8.1790 C.2    99  LEU99       0.2287
     74  O        -16.4160    5.5950    7.5330 O.2    99  LEU99      -0.2864
     75  CB       -15.1770    4.1030   10.0410 C.3    99  LEU99       0.0297
     76  CG       -14.5120    2.7970   10.5290 C.3    99  LEU99       0.0022
     77  CD1      -15.1040    2.3920   11.8570 C.3    99  LEU99       0.0001
     78  CD2      -14.7040    1.6810    9.5310 C.3    99  LEU99       0.0001
     79  N         -7.7670    4.5590    1.0820 N.3   105  PHE105     -0.1241
     80  CA        -6.5650    4.3480    1.8980 C.3   105  PHE105      0.1605
     81  C         -5.4000    5.1950    1.4040 C.2   105  PHE105      0.2264
     82  O         -5.2540    5.4110    0.2080 O.2   105  PHE105     -0.2867
     83  CB        -6.1360    2.8930    1.8690 C.3   105  PHE105      0.0534
     84  CG        -7.1120    1.9590    2.4960 C.ar  105  PHE105     -0.0203
     85  CD1       -8.2330    1.5280    1.7840 C.ar  105  PHE105     -0.0042
     86  CD2       -6.9330    1.5230    3.8230 C.ar  105  PHE105     -0.0042
     87  CE1       -9.1580    0.6740    2.3780 C.ar  105  PHE105     -0.0003
     88  CE2       -7.8530    0.6730    4.4040 C.ar  105  PHE105     -0.0003
     89  CZ        -8.9620    0.2510    3.6800 C.ar  105  PHE105     -0.0000
     90  N          1.2010   -0.2780   15.8050 N.3   133  TRP133     -0.1241
     91  CA        -0.1490    0.0160   15.3800 C.3   133  TRP133      0.1605
     92  C         -1.0160    0.5860   16.4660 C.2   133  TRP133      0.2264
     93  O         -1.9790    1.2860   16.1800 O.2   133  TRP133     -0.2867
     94  CB        -0.8230   -1.2020   14.7670 C.3   133  TRP133      0.0550
     95  CG        -0.2920   -1.5310   13.3950 C.ar  133  TRP133      0.0003
     96  CD1        0.6130   -2.5370   13.0320 C.ar  133  TRP133      0.0946
     97  CD2       -0.5600   -0.8090   12.1690 C.ar  133  TRP133      0.0152
     98  NE1        0.8740   -2.5040   11.6790 N.ar  133  TRP133     -0.2442
     99  CE2        0.1850   -1.4920   11.1070 C.ar  133  TRP133      0.0810
    100  CE3       -1.3520    0.2620   11.8410 C.ar  133  TRP133      0.0012
    101  CZ2        0.1240   -1.0690    9.7840 C.ar  133  TRP133      0.0191
    102  CZ3       -1.4140    0.6680   10.5110 C.ar  133  TRP133      0.0001
    103  CH2       -0.6910    0.0150    9.5110 C.ar  133  TRP133      0.0015
    104  N         -0.2880    4.2400   16.3850 N.3   136  ARG136     -0.1231
    105  CA        -0.8670    4.7630   15.1500 C.3   136  ARG136      0.1694
    106  C         -2.3810    4.9880   15.2510 C.2   136  ARG136      0.2592
    107  O         -2.8790    6.0490   14.9410 O.2   136  ARG136     -0.2718
    108  CB        -0.5490    3.8010   13.9780 C.3   136  ARG136      0.0321
    109  CG        -1.2070    4.1760   12.6370 C.3   136  ARG136      0.0489
    110  CD        -0.9940    5.5950   12.2230 C.3   136  ARG136      0.2205
    111  NE         0.4670    5.8730   12.1120 N.pl3 136  ARG136     -0.0865
    112  CZ         1.1130    6.2810   11.0240 C.cat 136  ARG136      0.5346
    113  NH1        0.4550    6.5410    9.8790 N.pl3 136  ARG136      0.1354
    114  NH2        2.4510    6.4210   11.0970 N.pl3 136  ARG136      0.1354
    115  N         -3.0920    4.0010   15.7620 N.am  137  CYS137     -0.1970
    116  CA        -4.5190    4.1190   15.9710 C.3   137  CYS137      0.1712
    117  C         -4.8610    5.2560   16.9160 C.2   137  CYS137      0.2296
    118  O         -5.7790    6.0230   16.6630 O.2   137  CYS137     -0.2864
    119  CB        -5.0920    2.8060   16.4510 C.3   137  CYS137      0.0983
    120  SG        -6.8910    2.8430   16.7230 S.3   137  CYS137     -0.0798
    121  N         -4.6140    8.6280   15.2860 N.3   140  HIS140     -0.1226
    122  CA        -5.7030    8.7990   14.3250 C.3   140  HIS140      0.1752
    123  C         -6.9580    9.1550   15.0710 C.2   140  HIS140      0.2595
    124  O         -7.6600   10.1120   14.6970 O.2   140  HIS140     -0.2718
    125  CB        -5.8080    7.5320   13.5000 C.3   140  HIS140      0.0759
    126  CG        -6.9730    7.4840   12.5470 C.ar  140  HIS140      0.0818
    127  ND1       -6.7880    7.3460   11.2210 N.ar  140  HIS140     -0.2268
    128  CD2       -8.3440    7.4580   12.7650 C.ar  140  HIS140      0.1154
    129  CE1       -7.9990    7.2970   10.6080 C.ar  140  HIS140      0.1986
    130  NE2       -8.9470    7.3650   11.5420 N.ar  140  HIS140     -0.2212
    131  N         -7.2190    8.4960   16.1990 N.am  141  GLU141     -0.1979
    132  CA        -8.4630    8.7480   16.9810 C.3   141  GLU141      0.1602
    133  C         -8.3800   10.1480   17.6600 C.2   141  GLU141      0.2287
    134  O         -9.3600   10.9290   17.6440 O.2   141  GLU141     -0.2864
    135  CB        -8.7060    7.6660   18.0420 C.3   141  GLU141      0.0415
    136  CG        -8.8870    6.2310   17.5130 C.3   141  GLU141      0.1163
    137  CD        -9.8960    6.0670   16.3930 C.2   141  GLU141      0.3649
    138  OE1      -10.8030    6.9220   16.2520 O.co2 141  GLU141     -0.2457
    139  OE2       -9.7370    5.0810   15.6260 O.co2 141  GLU141     -0.2457
    140  N         -9.3710   12.8910   15.3860 N.3   144  HIS144     -0.1241
    141  CA       -10.8010   13.0720   15.1860 C.3   144  HIS144      0.1621
    142  C        -11.3980   13.9730   16.2590 C.2   144  HIS144      0.2264
    143  O        -12.3390   14.7340   15.9780 O.2   144  HIS144     -0.2867
    144  CB       -11.5420   11.7430   15.2510 C.3   144  HIS144      0.0745
    145  CG       -11.5460   10.9530   13.9950 C.ar  144  HIS144      0.0817
    146  ND1      -12.1050   11.4140   12.8330 N.ar  144  HIS144     -0.2268
    147  CD2      -11.1890    9.6370   13.7650 C.ar  144  HIS144      0.1154
    148  CE1      -12.0420   10.4400   11.8980 C.ar  144  HIS144      0.1986
    149  NE2      -11.4670    9.3590   12.4570 N.ar  144  HIS144     -0.2212
@<TRIPOS>BOND
     1    82    81    2
     2    79    80    1
     3    81    80    1
     4    85    87   ar
     5    85    84   ar
     6    83    80    1
     7    83    84    1
     8    51    50    1
     9    87    89   ar
    10    84    86   ar
    11    49    50    1
    12    49    48    1
    13    48    47    1
    14    89    88   ar
    15    86    88   ar
    16    47    44    1
    17    55    54    2
    18    44    43    1
    19    44    45    1
    20    54    61   am
    21    54    53    1
    22    52    45   am
    23    52    53    1
    24    62    61    1
    25    62    63    1
    26    45    46    2
    27    68    67    2
    28    53    56    1
    29    65    63   am
    30    65    66    1
    31    63    64    2
    32    74    73    2
    33    56    57    1
    34    67    66    1
    35    67    71   am
    36    69    66    1
    37    69    70    1
    38    73    72    1
    39    57    58    1
    40    72    71    1
    41    72    75    1
    42   103   101   ar
    43   103   102   ar
    44    78    76    1
    45    58    59   ar
    46    58    60   ar
    47     7     6    2
    48   101    99   ar
    49    14    13    1
    50    14    15    1
    51   113   112    1
    52     4     3    2
    53    75    76    1
    54    13    10    1
    55   102   100   ar
    56    76    77    1
    57   129   127   ar
    58   129   130   ar
    59    15    16    2
    60    15    17   am
    61     3     2    1
    62     3     9   am
    63     6     5    1
    64     6     8   am
    65    12    11    2
    66   112   114    1
    67   112   111    2
    68    99    98   ar
    69    99    97   ar
    70     2     5    1
    71     2     1    1
    72   127   126   ar
    73    10     9    1
    74    10    11    1
    75   130   128   ar
    76    98    96   ar
    77    11    18   am
    78   100    97   ar
    79   148   149   ar
    80   148   146   ar
    81   111   110    1
    82    42    40   am
    83    97    95   ar
    84   110   109    1
    85   149   147   ar
    86   126   128   ar
    87   126   125    1
    88   109   108    1
    89    18    19    1
    90   146   145   ar
    91    19    20    1
    92    96    95   ar
    93    28    27    1
    94    37    36    2
    95    95    94    1
    96    40    39    1
    97    40    41    2
    98   125   122    1
    99    39    38    1
   100    27    29    1
   101    27    26    1
   102   147   145   ar
   103   108   105    1
   104    38    35    1
   105   145   144    1
   106    20    22   am
   107    20    21    2
   108    22    23    1
   109    35    36    1
   110    35    34    1
   111   122   123    1
   112   122   121    1
   113    26    23    1
   114   124   123    2
   115    94    91    1
   116   107   106    2
   117   123   131   am
   118   105   106    1
   119   105   104    1
   120   141   144    1
   121   141   140    1
   122   141   142    1
   123    23    24    1
   124   106   115   am
   125    33    32    2
   126    91    90    1
   127    91    92    1
   128   139   137   ar
   129   115   116    1
   130   116   119    1
   131   116   117    1
   132   143   142    2
   133    30    24   am
   134    30    31    1
   135    93    92    2
   136   131   132    1
   137   138   137   ar
   138    24    25    2
   139   137   136    1
   140   119   120    1
   141    32    31    1
   142   118   117    2
   143   132   133    1
   144   132   135    1
   145   136   135    1
   146   134   133    2
