@<TRIPOS>MOLECULE
tmp/3u06B00.pdb
 113 109 0 0 0
SMALL
GASTEIGER

@<TRIPOS>ATOM
      1  N         19.9910  -30.3910   23.0050 N.3    65  ARG65      -0.1245
      2  CA        21.3810  -30.1780   22.6360 C.3    65  ARG65       0.1563
      3  C         21.9080  -31.3130   21.7720 C.2    65  ARG65       0.2260
      4  O         21.8580  -32.4790   22.1600 O.2    65  ARG65      -0.2867
      5  CB        22.2670  -30.0340   23.8720 C.3    65  ARG65       0.0307
      6  CG        23.6030  -29.3820   23.5520 C.3    65  ARG65       0.0489
      7  CD        24.5820  -29.4180   24.7140 C.3    65  ARG65       0.2205
      8  NE        25.7720  -28.6210   24.4240 N.pl3  65  ARG65      -0.0865
      9  CZ        26.7080  -28.3060   25.3140 C.cat  65  ARG65       0.5346
     10  NH1       26.6050  -28.7150   26.5710 N.pl3  65  ARG65       0.1354
     11  NH2       27.7490  -27.5720   24.9450 N.pl3  65  ARG65       0.1354
     12  N         25.2580  -32.7730   20.4080 N.3    67  ARG67      -0.1231
     13  CA        26.6940  -32.6790   20.6430 C.3    67  ARG67       0.1679
     14  C         27.4420  -32.8970   19.3370 C.2    67  ARG67       0.2434
     15  O         26.9660  -33.6130   18.4620 O.2    67  ARG67      -0.2733
     16  CB        27.1580  -33.6940   21.6880 C.3    67  ARG67       0.0321
     17  CG        27.4320  -35.0950   21.1540 C.3    67  ARG67       0.0489
     18  CD        28.2950  -35.8700   22.1370 C.3    67  ARG67       0.2205
     19  NE        28.3420  -37.3010   21.8490 N.pl3  67  ARG67      -0.0865
     20  CZ        29.2630  -37.8970   21.0950 C.cat  67  ARG67       0.5346
     21  NH1       30.2350  -37.1960   20.5260 N.pl3  67  ARG67       0.1354
     22  NH2       29.2080  -39.2080   20.9080 N.pl3  67  ARG67       0.1354
     23  N         28.6170  -32.2680   19.1970 N.am   68  PRO68      -0.2729
     24  CA        29.4390  -32.4570   17.9990 C.3    68  PRO68       0.1401
     25  C         30.1820  -33.7880   18.0140 C.2    68  PRO68       0.2269
     26  O         30.4440  -34.3280   19.0900 O.2    68  PRO68      -0.2865
     27  CB        30.4350  -31.2980   18.0740 C.3    68  PRO68       0.0296
     28  CG        30.5410  -30.9830   19.5260 C.3    68  PRO68       0.0237
     29  CD        29.1930  -31.2740   20.1190 C.3    68  PRO68       0.0939
     30  N         33.1890  -36.2380   18.1890 N.3    70  LEU70      -0.1245
     31  CA        34.4950  -36.1210   18.8200 C.3    70  LEU70       0.1561
     32  C         35.6000  -36.3410   17.8010 C.2    70  LEU70       0.2260
     33  O         35.3590  -36.8680   16.7160 O.2    70  LEU70      -0.2867
     34  CB        34.6250  -37.1290   19.9610 C.3    70  LEU70       0.0270
     35  CG        33.6760  -36.8690   21.1280 C.3    70  LEU70       0.0019
     36  CD1       33.8540  -37.9110   22.2240 C.3    70  LEU70       0.0001
     37  CD2       33.8970  -35.4660   21.6640 C.3    70  LEU70       0.0001
     38  N         25.6400  -28.2280   17.6210 N.3   112  PRO112     -0.2116
     39  CA        26.8810  -28.8810   18.0570 C.3   112  PRO112      0.1372
     40  C         27.9810  -27.9040   18.4670 C.2   112  PRO112      0.2244
     41  O         28.8340  -28.2510   19.2810 O.2   112  PRO112     -0.2868
     42  CB        27.3080  -29.6550   16.8100 C.3   112  PRO112      0.0268
     43  CG        26.0260  -30.0280   16.1640 C.3   112  PRO112      0.0207
     44  CD        25.0810  -28.8790   16.4210 C.3   112  PRO112      0.0892
     45  N         27.6540  -25.0610   20.0290 N.3   114  SER114     -0.1217
     46  CA        27.2360  -24.1880   21.1150 C.3   114  SER114      0.1889
     47  C         28.2050  -24.2570   22.2890 C.2   114  SER114      0.2288
     48  O         28.6130  -25.3380   22.7160 O.2   114  SER114     -0.2866
     49  CB        25.8280  -24.5520   21.5790 C.3   114  SER114      0.2089
     50  OG        24.8610  -24.0760   20.6590 O.3   114  SER114     -0.2183
     51  N         23.3530  -42.8780   26.4820 N.3   144  THR144     -0.1203
     52  CA        24.7440  -42.7940   26.9000 C.3   144  THR144      0.1994
     53  C         25.6110  -42.3560   25.7250 C.2   144  THR144      0.2618
     54  O         25.4800  -42.8740   24.6170 O.2   144  THR144     -0.2717
     55  CB        25.2440  -44.1450   27.4380 C.3   144  THR144      0.1784
     56  OG1       24.4040  -44.5700   28.5180 O.3   144  THR144     -0.2211
     57  CG2       26.6780  -44.0310   27.9300 C.3   144  THR144      0.0376
     58  N         26.4910  -41.3920   25.9750 N.am  145  GLY145     -0.1942
     59  CA        27.3490  -40.8500   24.9380 C.3   145  GLY145      0.2014
     60  C         26.7470  -39.6520   24.2260 C.2   145  GLY145      0.2640
     61  O         27.2800  -39.2030   23.2120 O.2   145  GLY145     -0.2714
     62  N         25.6440  -39.1250   24.7540 N.am  146  SER146     -0.1935
     63  CA        24.9380  -38.0230   24.1010 C.3   146  SER146      0.2055
     64  C         25.3170  -36.6500   24.6650 C.2   146  SER146      0.2644
     65  O         25.1060  -35.6290   24.0110 O.2   146  SER146     -0.2714
     66  CB        23.4230  -38.2300   24.1860 C.3   146  SER146      0.2130
     67  OG        22.9730  -38.2450   25.5290 O.3   146  SER146     -0.2179
     68  N         25.8690  -36.6250   25.8740 N.am  147  GLY147     -0.1939
     69  CA        26.3920  -35.3920   26.4370 C.3   147  GLY147      0.2014
     70  C         25.7090  -34.8940   27.6990 C.2   147  GLY147      0.2639
     71  O         25.7560  -33.7020   28.0000 O.2   147  GLY147     -0.2714
     72  N         25.0790  -35.7950   28.4450 N.am  148  LYS148     -0.1963
     73  CA        24.4660  -35.4210   29.7130 C.3   148  LYS148      0.1728
     74  C         25.5200  -34.8860   30.6750 C.2   148  LYS148      0.2617
     75  O         25.4540  -33.7350   31.1090 O.2   148  LYS148     -0.2715
     76  CB        23.7660  -36.6230   30.3450 C.3   148  LYS148      0.0311
     77  CG        22.4960  -37.0580   29.6390 C.3   148  LYS148      0.0038
     78  CD        21.8330  -38.2190   30.3660 C.3   148  LYS148      0.0206
     79  CE        22.7670  -39.4130   30.4980 C.3   148  LYS148      0.1093
     80  NZ        23.1970  -39.9460   29.1770 N.3   148  LYS148     -0.1314
     81  N         26.4950  -35.7280   31.0010 N.am  149  THR149     -0.1937
     82  CA        27.5250  -35.3730   31.9690 C.3   149  THR149      0.2028
     83  C         28.3210  -34.1540   31.5060 C.2   149  THR149      0.2642
     84  O         28.6480  -33.2780   32.3040 O.2   149  THR149     -0.2714
     85  CB        28.4880  -36.5500   32.2180 C.3   149  THR149      0.1808
     86  OG1       27.7390  -37.7210   32.5690 O.3   149  THR149     -0.2208
     87  CG2       29.4610  -36.2220   33.3410 C.3   149  THR149      0.0379
     88  N         28.6250  -34.0970   30.2140 N.am  150  TYR150     -0.1959
     89  CA        29.3740  -32.9740   29.6620 C.3   150  TYR150      0.1771
     90  C         28.5970  -31.6710   29.8220 C.2   150  TYR150      0.2620
     91  O         29.1870  -30.6020   29.9750 O.2   150  TYR150     -0.2715
     92  CB        29.6820  -33.2050   28.1810 C.3   150  TYR150      0.0574
     93  CG        30.4570  -32.0720   27.5430 C.ar  150  TYR150     -0.0198
     94  CD1       29.8120  -30.9210   27.1070 C.ar  150  TYR150     -0.0009
     95  CD2       31.8340  -32.1530   27.3780 C.ar  150  TYR150     -0.0009
     96  CE1       30.5160  -29.8830   26.5260 C.ar  150  TYR150      0.0417
     97  CE2       32.5470  -31.1190   26.7970 C.ar  150  TYR150      0.0417
     98  CZ        31.8830  -29.9880   26.3730 C.ar  150  TYR150      0.1957
     99  OH        32.5880  -28.9570   25.7940 O.3   150  TYR150     -0.2866
    100  N         27.2730  -31.7640   29.7840 N.am  151  THR151     -0.1951
    101  CA        26.4270  -30.5800   29.8490 C.3   151  THR151      0.1897
    102  C         26.2600  -30.0770   31.2820 C.2   151  THR151      0.2313
    103  O         26.2980  -28.8700   31.5280 O.2   151  THR151     -0.2863
    104  CB        25.0400  -30.8500   29.2320 C.3   151  THR151      0.1794
    105  OG1       25.1870  -31.1530   27.8380 O.3   151  THR151     -0.2208
    106  CG2       24.1330  -29.6360   29.3850 C.3   151  THR151      0.0378
    107  N         33.9990  -30.1540   31.4680 N.3   155  VAL155     -0.1245
    108  CA        35.3920  -30.5220   31.6710 C.3   155  VAL155      0.1561
    109  C         36.1630  -29.2760   32.0930 C.2   155  VAL155      0.2260
    110  O         35.7540  -28.1590   31.7790 O.2   155  VAL155     -0.2867
    111  CB        36.0060  -31.1300   30.3960 C.3   155  VAL155      0.0252
    112  CG1       35.3820  -32.4860   30.1050 C.3   155  VAL155      0.0019
    113  CG2       35.8170  -30.1960   29.2150 C.3   155  VAL155      0.0019
@<TRIPOS>BOND
     1    43    44    1
     2    43    42    1
     3    44    38    1
     4    33    32    2
     5    42    39    1
     6    38    39    1
     7    32    31    1
     8    24    25    1
     9    24    27    1
    10    24    23    1
    11    25    26    2
    12    39    40    1
    13    27    28    1
    14    30    31    1
    15    15    14    2
    16    40    41    2
    17    31    34    1
    18    23    14   am
    19    23    29    1
    20    14    13    1
    21    28    29    1
    22    34    35    1
    23    45    46    1
    24    12    13    1
    25    21    20    1
    26    13    16    1
    27    50    49    1
    28    22    20    1
    29    20    19    2
    30    46    49    1
    31    46    47    1
    32    35    37    1
    33    35    36    1
    34    17    16    1
    35    17    18    1
    36     3     4    2
    37     3     2    1
    38    19    18    1
    39    47    48    2
    40     2     1    1
    41     2     5    1
    42    61    60    2
    43     6     5    1
    44     6     7    1
    45    65    64    2
    46    63    66    1
    47    63    64    1
    48    63    62    1
    49    66    67    1
    50    60    62   am
    51    60    59    1
    52     8     7    1
    53     8     9    2
    54    54    53    2
    55    64    68   am
    56    59    58    1
    57    11     9    1
    58     9    10    1
    59    53    58   am
    60    53    52    1
    61    99    98    1
    62    68    69    1
    63    98    96   ar
    64    98    97   ar
    65    69    70    1
    66    51    52    1
    67    96    94   ar
    68    97    95   ar
    69    52    55    1
    70    94    93   ar
    71    95    93   ar
    72    55    57    1
    73    55    56    1
    74    93    92    1
    75    70    71    2
    76    70    72   am
    77   105   104    1
    78    92    89    1
    79    72    73    1
    80    80    79    1
    81   113   111    1
    82   104   106    1
    83   104   101    1
    84    77    76    1
    85    77    78    1
    86    89    90    1
    87    89    88    1
    88    73    76    1
    89    73    74    1
    90   100    90   am
    91   100   101    1
    92    90    91    2
    93   101   102    1
    94   112   111    1
    95    88    83   am
    96    78    79    1
    97   111   108    1
    98    74    81   am
    99    74    75    2
   100    81    82    1
   101   102   103    2
   102   107   108    1
   103    83    82    1
   104    83    84    2
   105   108   109    1
   106   110   109    2
   107    82    85    1
   108    85    86    1
   109    85    87    1
