@<TRIPOS>MOLECULE
tmp/3u0dB02.pdb
 110 104 0 0 0
SMALL
GASTEIGER

@<TRIPOS>ATOM
      1  N         15.7950   14.1450  -42.6130 N.3    50  TYR50      -0.1241
      2  CA        15.0000   15.1110  -41.8720 C.3    50  TYR50       0.1605
      3  C         15.9250   15.8300  -40.9110 C.2    50  TYR50       0.2264
      4  O         17.1170   15.4930  -40.8520 O.2    50  TYR50      -0.2867
      5  CB        13.8460   14.4380  -41.1290 C.3    50  TYR50       0.0534
      6  CG        14.2700   13.4170  -40.1040 C.ar   50  TYR50      -0.0201
      7  CD1       14.6170   12.1310  -40.4900 C.ar   50  TYR50      -0.0009
      8  CD2       14.2960   13.7270  -38.7550 C.ar   50  TYR50      -0.0009
      9  CE1       14.9870   11.1800  -39.5580 C.ar   50  TYR50       0.0417
     10  CE2       14.6730   12.7880  -37.8090 C.ar   50  TYR50       0.0417
     11  CZ        15.0210   11.5160  -38.2060 C.ar   50  TYR50       0.1957
     12  OH        15.3890   10.5740  -37.2700 O.3    50  TYR50      -0.2866
     13  N         16.5460   18.1450  -36.9570 N.3    52  THR52      -0.1218
     14  CA        16.1880   18.1880  -35.5490 C.3    52  THR52       0.1862
     15  C         17.0060   19.3100  -34.8880 C.2    52  THR52       0.2287
     16  O         18.2430   19.2870  -34.9170 O.2    52  THR52      -0.2866
     17  CB        16.4340   16.8130  -34.8690 C.3    52  THR52       0.1770
     18  OG1       15.6990   15.7940  -35.5770 O.3    52  THR52      -0.2211
     19  CG2       16.0220   16.8300  -33.3860 C.3    52  THR52       0.0375
     20  N         11.6890   18.3730  -34.5850 N.3    66  SER66      -0.1217
     21  CA        12.0930   17.5890  -35.7410 C.3    66  SER66       0.1889
     22  C         11.1940   17.9900  -36.8660 C.2    66  SER66       0.2288
     23  O          9.9850   18.0790  -36.6730 O.2    66  SER66      -0.2866
     24  CB        12.0220   16.0760  -35.4640 C.3    66  SER66       0.2089
     25  OG        13.1500   15.6260  -34.7070 O.3    66  SER66      -0.2183
     26  N         10.2430   17.2470  -40.9900 N.3    68  LEU68      -0.1245
     27  CA        10.2850   16.1410  -41.9560 C.3    68  LEU68       0.1561
     28  C          9.3780   16.4140  -43.1540 C.2    68  LEU68       0.2260
     29  O          8.4150   17.1730  -43.0470 O.2    68  LEU68      -0.2867
     30  CB         9.8420   14.8180  -41.2880 C.3    68  LEU68       0.0270
     31  CG        10.4380   14.3500  -39.9230 C.3    68  LEU68       0.0019
     32  CD1        9.4800   14.6150  -38.7560 C.3    68  LEU68       0.0001
     33  CD2       10.8100   12.8700  -39.9340 C.3    68  LEU68       0.0001
     34  N          6.7700   14.6710  -45.5060 N.3    70  ARG70      -0.1245
     35  CA         5.8640   13.5150  -45.5790 C.3    70  ARG70       0.1563
     36  C          4.6060   13.8800  -46.3190 C.2    70  ARG70       0.2260
     37  O          3.9590   14.8560  -45.9450 O.2    70  ARG70      -0.2867
     38  CB         5.4180   13.1090  -44.1850 C.3    70  ARG70       0.0307
     39  CG         6.2970   12.1060  -43.4850 C.3    70  ARG70       0.0489
     40  CD         5.8400   11.9780  -42.0550 C.3    70  ARG70       0.2205
     41  NE         6.6330   11.0310  -41.2990 N.pl3  70  ARG70      -0.0865
     42  CZ         6.8230   11.0860  -39.9820 C.cat  70  ARG70       0.5346
     43  NH1        6.2850   12.0640  -39.2480 N.pl3  70  ARG70       0.1354
     44  NH2        7.5720   10.1500  -39.3910 N.pl3  70  ARG70       0.1354
     45  N          7.5920   17.6240  -35.4150 N.3    77  TRP77      -0.1241
     46  CA         7.4850   16.8040  -34.1940 C.3    77  TRP77       0.1605
     47  C          8.1720   17.4990  -33.0150 C.2    77  TRP77       0.2264
     48  O          9.3920   17.6870  -33.0140 O.2    77  TRP77      -0.2867
     49  CB         8.0720   15.4330  -34.4740 C.3    77  TRP77       0.0550
     50  CG         8.0770   14.4910  -33.3000 C.ar   77  TRP77       0.0003
     51  CD1        9.1800   13.8390  -32.7350 C.ar   77  TRP77       0.0946
     52  CD2        6.9200   14.0160  -32.5220 C.ar   77  TRP77       0.0152
     53  NE1        8.7970   13.0560  -31.6850 N.ar   77  TRP77      -0.2442
     54  CE2        7.4700   13.1030  -31.5000 C.ar   77  TRP77       0.0810
     55  CE3        5.5310   14.2540  -32.5580 C.ar   77  TRP77       0.0012
     56  CZ2        6.6600   12.4660  -30.5730 C.ar   77  TRP77       0.0191
     57  CZ3        4.7150   13.6110  -31.5970 C.ar   77  TRP77       0.0001
     58  CH2        5.2700   12.7300  -30.6330 C.ar   77  TRP77       0.0015
     59  N          8.8270   18.4640  -28.7580 N.3    79  ARG79      -0.1245
     60  CA         8.8770   17.9230  -27.3990 C.3    79  ARG79       0.1563
     61  C          9.9350   18.6180  -26.5400 C.2    79  ARG79       0.2260
     62  O         10.7770   19.3700  -27.0860 O.2    79  ARG79      -0.2867
     63  CB         9.1510   16.4220  -27.4540 C.3    79  ARG79       0.0307
     64  CG        10.4690   16.0120  -28.1300 C.3    79  ARG79       0.0489
     65  CD        10.2660   15.4290  -29.5340 C.3    79  ARG79       0.2205
     66  NE        11.4890   14.7830  -30.0570 N.pl3  79  ARG79      -0.0865
     67  CZ        12.0860   15.0850  -31.2100 C.cat  79  ARG79       0.5346
     68  NH1       11.6040   16.0350  -32.0080 N.pl3  79  ARG79       0.1354
     69  NH2       13.1960   14.4460  -31.5730 N.pl3  79  ARG79       0.1354
     70  N         11.2310    6.7390  -21.1640 N.3   104  TYR104     -0.1241
     71  CA        11.9000    7.4220  -22.2710 C.3   104  TYR104      0.1605
     72  C         13.2410    7.9820  -21.8170 C.2   104  TYR104      0.2264
     73  O         13.3200    8.6980  -20.7980 O.2   104  TYR104     -0.2867
     74  CB        11.0320    8.5750  -22.8380 C.3   104  TYR104      0.0534
     75  CG        11.4220    8.9410  -24.2330 C.ar  104  TYR104     -0.0201
     76  CD1       12.4780    9.8130  -24.4860 C.ar  104  TYR104     -0.0009
     77  CD2       10.7800    8.3720  -25.3140 C.ar  104  TYR104     -0.0009
     78  CE1       12.8660   10.1070  -25.7830 C.ar  104  TYR104      0.0417
     79  CE2       11.1570    8.6760  -26.6110 C.ar  104  TYR104      0.0417
     80  CZ        12.2090    9.5300  -26.8400 C.ar  104  TYR104      0.1957
     81  OH        12.5840    9.7930  -28.1590 O.3   104  TYR104     -0.2866
     82  N         18.6210    6.7310  -28.1090 N.3   121  PHE121     -0.1241
     83  CA        17.2720    6.9450  -27.5820 C.3   121  PHE121      0.1605
     84  C         16.6430    5.5870  -27.2540 C.2   121  PHE121      0.2264
     85  O         16.7900    4.6610  -28.0350 O.2   121  PHE121     -0.2867
     86  CB        16.4060    7.5870  -28.6620 C.3   121  PHE121      0.0534
     87  CG        16.9730    8.8690  -29.2260 C.ar  121  PHE121     -0.0203
     88  CD1       16.4270   10.0990  -28.8690 C.ar  121  PHE121     -0.0042
     89  CD2       18.0470    8.8510  -30.1140 C.ar  121  PHE121     -0.0042
     90  CE1       16.9520   11.2720  -29.3600 C.ar  121  PHE121     -0.0003
     91  CE2       18.5580   10.0310  -30.6220 C.ar  121  PHE121     -0.0003
     92  CZ        18.0040   11.2440  -30.2370 C.ar  121  PHE121     -0.0000
     93  N         12.8390    3.7950  -25.6140 N.3   123  LYS123     -0.1245
     94  CA        11.4800    4.0350  -25.1040 C.3   123  LYS123      0.1561
     95  C         10.7320    2.7120  -24.8150 C.2   123  LYS123      0.2260
     96  O         11.1130    1.6790  -25.3340 O.2   123  LYS123     -0.2867
     97  CB        10.7070    4.9330  -26.0880 C.3   123  LYS123      0.0271
     98  CG         9.8840    4.1760  -27.1320 C.3   123  LYS123      0.0035
     99  CD         9.1500    5.0880  -28.1110 C.3   123  LYS123      0.0206
    100  CE         9.0270    4.4280  -29.4790 C.3   123  LYS123      0.1093
    101  NZ         7.9200    5.0650  -30.2630 N.3   123  LYS123     -0.1314
    102  N         16.9510    3.2530  -30.6400 N.3   132  LYS132     -0.1245
    103  CA        17.5850    3.6850  -31.8820 C.3   132  LYS132      0.1561
    104  C         18.8530    4.4600  -31.5870 C.2   132  LYS132      0.2260
    105  O         19.1050    4.8780  -30.4310 O.2   132  LYS132     -0.2867
    106  CB        16.6470    4.5500  -32.7450 C.3   132  LYS132      0.0271
    107  CG        16.1060    5.8190  -32.0830 C.3   132  LYS132      0.0035
    108  CD        15.4660    6.7710  -33.1050 C.3   132  LYS132      0.0206
    109  CE        15.0110    8.0890  -32.4680 C.3   132  LYS132      0.1093
    110  NZ        14.0700    8.9140  -33.2910 N.3   132  LYS132     -0.1314
@<TRIPOS>BOND
     1    36    37    2
     2    36    35    1
     3    35    34    1
     4    35    38    1
     5    38    39    1
     6    39    40    1
     7    28    29    2
     8    28    27    1
     9     1     2    1
    10    40    41    1
    11    27    30    1
    12    27    26    1
    13     2     5    1
    14     2     3    1
    15    41    42    2
    16    30    31    1
    17     5     6    1
    18     3     4    2
    19     7     6   ar
    20     7     9   ar
    21     6     8   ar
    22    42    44    1
    23    42    43    1
    24    33    31    1
    25    31    32    1
    26     9    11   ar
    27     8    10   ar
    28    11    10   ar
    29    11    12    1
    30    13    14    1
    31    22    23    2
    32    22    21    1
    33    21    24    1
    34    21    20    1
    35    18    17    1
    36    14    15    1
    37    14    17    1
    38    24    25    1
    39    45    46    1
    40    16    15    2
    41    17    19    1
    42    49    46    1
    43    49    50    1
    44    46    47    1
    45    50    51   ar
    46    50    52   ar
    47   110   109    1
    48   108   109    1
    49   108   107    1
    50    47    48    2
    51   106   107    1
    52   106   103    1
    53    51    53   ar
    54    55    52   ar
    55    55    57   ar
    56    52    54   ar
    57    68    67    1
    58   103   104    1
    59   103   102    1
    60    53    54   ar
    61    57    58   ar
    62   104   105    2
    63    69    67    1
    64    54    56   ar
    65    67    66    2
    66    58    56   ar
    67    91    92   ar
    68    91    89   ar
    69   101   100    1
    70    92    90   ar
    71    89    87   ar
    72    66    65    1
    73    65    64    1
    74   100    99    1
    75    90    88   ar
    76    87    88   ar
    77    87    86    1
    78    59    60    1
    79    86    83    1
    80    81    80    1
    81    64    63    1
    82    99    98    1
    83    82    83    1
    84    85    84    2
    85    83    84    1
    86    63    60    1
    87    60    61    1
    88    98    97    1
    89    62    61    2
    90    80    79   ar
    91    80    78   ar
    92    79    77   ar
    93    97    94    1
    94    78    76   ar
    95    93    94    1
    96    96    95    2
    97    77    75   ar
    98    94    95    1
    99    76    75   ar
   100    75    74    1
   101    74    71    1
   102    71    72    1
   103    71    70    1
   104    72    73    2
