@<TRIPOS>MOLECULE
tmp/3u0eA00.pdb
 79 76 0 0 0
SMALL
GASTEIGER

@<TRIPOS>ATOM
      1  N         11.9160   16.1130   14.1360 N.3   280  LYS280     -0.1245
      2  CA        11.6700   17.5800   14.2180 C.3   280  LYS280      0.1561
      3  C         12.3600   18.1510   15.4560 C.2   280  LYS280      0.2260
      4  O         12.9010   19.2780   15.4330 O.2   280  LYS280     -0.2867
      5  CB        10.1650   17.8540   14.2700 C.3   280  LYS280      0.0271
      6  CG         9.5030   17.6340   12.9330 C.3   280  LYS280      0.0035
      7  CD         8.0260   17.9840   13.0230 C.3   280  LYS280      0.0206
      8  CE         7.2650   17.9080   11.7030 C.3   280  LYS280      0.1093
      9  NZ         5.7880   18.0910   11.9600 N.3   280  LYS280     -0.1314
     10  N         15.9840   18.5250   14.7280 N.3   283  LEU283     -0.1231
     11  CA        16.2030   19.5560   13.7190 C.3   283  LEU283      0.1693
     12  C         15.8650   20.9560   14.2090 C.2   283  LEU283      0.2592
     13  O         16.2610   21.9650   13.5990 O.2   283  LEU283     -0.2718
     14  CB        15.3990   19.2100   12.4860 C.3   283  LEU283      0.0284
     15  CG        15.8780   18.0280   11.6600 C.3   283  LEU283      0.0019
     16  CD1       14.8050   17.5800   10.6610 C.3   283  LEU283      0.0001
     17  CD2       17.2020   18.3530   10.9610 C.3   283  LEU283      0.0001
     18  N         15.1910   21.0530   15.3550 N.am  284  SER284     -0.1952
     19  CA        14.7220   22.3610   15.8250 C.3   284  SER284      0.1924
     20  C         15.8540   23.3340   16.1620 C.2   284  SER284      0.2314
     21  O         15.6260   24.5310   16.1890 O.2   284  SER284     -0.2863
     22  CB        13.8330   22.2050   17.0410 C.3   284  SER284      0.2116
     23  OG        14.5340   21.7170   18.1650 O.3   284  SER284     -0.2180
     24  N         18.8690   23.1430   14.4530 N.3   286  VAL286     -0.1231
     25  CA        19.8140   22.9890   13.3280 C.3   286  VAL286      0.1692
     26  C         19.4440   24.0540   12.2840 C.2   286  VAL286      0.2593
     27  O         18.3070   24.1500   11.8830 O.2   286  VAL286     -0.2718
     28  CB        19.7160   21.5870   12.7480 C.3   286  VAL286      0.0266
     29  CG1       20.6290   21.3920   11.5230 C.3   286  VAL286      0.0020
     30  CG2       20.0580   20.5430   13.8180 C.3   286  VAL286      0.0020
     31  N         20.4310   24.8060   11.7980 N.am  287  THR287     -0.1939
     32  CA        20.1300   25.8420   10.8200 C.3   287  THR287      0.2028
     33  C         20.5170   25.4530    9.3900 C.2   287  THR287      0.2643
     34  O         19.9730   26.0270    8.4150 O.2   287  THR287     -0.2714
     35  CB        20.7880   27.2070   11.1930 C.3   287  THR287      0.1808
     36  OG1       22.0500   26.9560   11.8220 O.3   287  THR287     -0.2208
     37  CG2       19.8690   27.9470   12.1740 C.3   287  THR287      0.0379
     38  N         21.4150   24.4850    9.2590 N.am  288  SER288     -0.1935
     39  CA        21.9130   24.0960    7.9390 C.3   288  SER288      0.2055
     40  C         21.0920   22.9630    7.3240 C.2   288  SER288      0.2643
     41  O         20.3770   22.2550    8.0150 O.2   288  SER288     -0.2714
     42  CB        23.3730   23.6740    8.0430 C.3   288  SER288      0.2130
     43  OG        24.1570   24.7400    8.5440 O.3   288  SER288     -0.2179
     44  N         21.2120   22.7770    6.0220 N.am  289  LYS289     -0.1963
     45  CA        20.5550   21.6400    5.4150 C.3   289  LYS289      0.1728
     46  C         21.2050   20.3370    5.8580 C.2   289  LYS289      0.2616
     47  O         22.3450   20.2950    6.2770 O.2   289  LYS289     -0.2715
     48  CB        20.5430   21.7160    3.8860 C.3   289  LYS289      0.0311
     49  CG        21.8700   21.4140    3.2610 C.3   289  LYS289      0.0038
     50  CD        21.7970   21.3060    1.7450 C.3   289  LYS289      0.0206
     51  CE        21.5450   22.6320    1.0660 C.3   289  LYS289      0.1093
     52  NZ        21.6480   22.4420   -0.4270 N.3   289  LYS289     -0.1314
     53  N         20.4340   19.2680    5.7880 N.am  290  ILE290     -0.1977
     54  CA        20.9690   17.9420    6.0620 C.3   290  ILE290      0.1596
     55  C         21.5340   17.3450    4.7500 C.2   290  ILE290      0.2287
     56  O         20.8380   17.3170    3.7490 O.2   290  ILE290     -0.2864
     57  CB        19.8520   17.0460    6.6090 C.3   290  ILE290      0.0276
     58  CG1       19.3290   17.5900    7.9310 C.3   290  ILE290      0.0022
     59  CG2       20.3070   15.5970    6.7770 C.3   290  ILE290      0.0022
     60  CD1       20.3670   17.7880    9.0440 C.3   290  ILE290      0.0001
     61  N          8.8770   15.2180    6.5040 N.3   314  ILE314     -0.1231
     62  CA         9.7690   16.3030    6.9140 C.3   314  ILE314      0.1692
     63  C         10.5470   16.9040    5.7650 C.2   314  ILE314      0.2592
     64  O         10.6120   18.1060    5.6680 O.2   314  ILE314     -0.2718
     65  CB        10.7540   15.8340    7.9780 C.3   314  ILE314      0.0266
     66  CG1        9.9580   15.5120    9.2520 C.3   314  ILE314      0.0019
     67  CG2       11.8180   16.8950    8.2790 C.3   314  ILE314      0.0020
     68  CD1       10.7950   14.7990   10.2450 C.3   314  ILE314      0.0001
     69  N         11.1390   16.0690    4.9180 N.am  315  PHE315     -0.1976
     70  CA        12.1180   16.5230    3.9440 C.3   315  PHE315      0.1639
     71  C         11.5960   16.6010    2.5110 C.2   315  PHE315      0.2290
     72  O         12.2690   17.1720    1.6430 O.2   315  PHE315     -0.2864
     73  CB        13.3090   15.5640    3.9500 C.3   315  PHE315      0.0560
     74  CG        14.1410   15.6380    5.1900 C.ar  315  PHE315     -0.0200
     75  CD1       15.0800   16.6590    5.3550 C.ar  315  PHE315     -0.0042
     76  CD2       13.9970   14.6960    6.1960 C.ar  315  PHE315     -0.0042
     77  CE1       15.8660   16.7090    6.4850 C.ar  315  PHE315     -0.0003
     78  CE2       14.7780   14.7670    7.3440 C.ar  315  PHE315     -0.0003
     79  CZ        15.7040   15.7630    7.4920 C.ar  315  PHE315     -0.0000
@<TRIPOS>BOND
     1    52    51    1
     2    51    50    1
     3    72    71    2
     4    50    49    1
     5    71    70    1
     6    49    48    1
     7    56    55    2
     8    48    45    1
     9    70    73    1
    10    70    69    1
    11    73    74    1
    12    55    54    1
    13    69    63   am
    14    74    75   ar
    15    74    76   ar
    16    75    77   ar
    17    45    46    1
    18    45    44    1
    19    64    63    2
    20    63    62    1
    21    53    46   am
    22    53    54    1
    23    46    47    2
    24    44    40   am
    25    54    57    1
    26    76    78   ar
    27    77    79   ar
    28    61    62    1
    29    57    59    1
    30    57    58    1
    31    62    65    1
    32    40    39    1
    33    40    41    2
    34    78    79   ar
    35    58    60    1
    36    39    42    1
    37    39    38    1
    38    65    67    1
    39    65    66    1
    40    42    43    1
    41    34    33    2
    42    66    68    1
    43    38    33   am
    44    33    32    1
    45    16    15    1
    46    32    35    1
    47    32    31    1
    48    17    15    1
    49    35    36    1
    50    35    37    1
    51    29    28    1
    52    15    14    1
    53     8     9    1
    54     8     7    1
    55    31    26   am
    56    27    26    2
    57    26    25    1
    58    14    11    1
    59    28    25    1
    60    28    30    1
    61     6     7    1
    62     6     5    1
    63    25    24    1
    64    13    12    2
    65    11    12    1
    66    11    10    1
    67     1     2    1
    68    12    18   am
    69     2     5    1
    70     2     3    1
    71    18    19    1
    72     4     3    2
    73    19    20    1
    74    19    22    1
    75    20    21    2
    76    22    23    1
