@<TRIPOS>MOLECULE
tmp/3u0fA00.pdb
 88 83 0 0 0
SMALL
GASTEIGER

@<TRIPOS>ATOM
      1  N         22.1320   -2.9230   25.2380 N.3   105  GLY105     -0.1210
      2  CA        20.7250   -3.2880   25.1560 C.3   105  GLY105      0.1956
      3  C         20.3300   -4.3360   26.1780 C.2   105  GLY105      0.2612
      4  O         19.1930   -4.3690   26.6350 O.2   105  GLY105     -0.2717
      5  N         21.2800   -5.2000   26.5190 N.am  106  GLY106     -0.1942
      6  CA        21.1430   -6.1440   27.6250 C.3   106  GLY106      0.1998
      7  C         22.5080   -6.3540   28.2400 C.2   106  GLY106      0.2480
      8  O         23.4970   -5.8760   27.7280 O.2   106  GLY106     -0.2729
      9  N         22.5820   -7.0960   29.3440 N.am  107  PRO107     -0.2726
     10  CA        23.9020   -7.4050   29.9000 C.3   107  PRO107      0.1402
     11  C         24.4360   -8.6620   29.2440 C.2   107  PRO107      0.2269
     12  O         23.9900   -9.0360   28.1560 O.2   107  PRO107     -0.2865
     13  CB        23.6030   -7.6320   31.3660 C.3   107  PRO107      0.0296
     14  CG        22.2800   -8.3290   31.3070 C.3   107  PRO107      0.0237
     15  CD        21.5080   -7.6680   30.1570 C.3   107  PRO107      0.0939
     16  N         24.0670  -11.9500   28.6650 N.3   109  THR109     -0.1218
     17  CA        23.1480  -13.0640   28.7540 C.3   109  THR109      0.1862
     18  C         23.9200  -14.3790   28.8780 C.2   109  THR109      0.2287
     19  O         23.4690  -15.3020   29.5670 O.2   109  THR109     -0.2866
     20  CB        22.1600  -13.1270   27.5650 C.3   109  THR109      0.1770
     21  OG1       22.8750  -13.2110   26.3300 O.3   109  THR109     -0.2211
     22  CG2       21.2710  -11.9010   27.5310 C.3   109  THR109      0.0375
     23  N         17.0540   -0.2900   24.1630 N.3   160  ALA160     -0.1231
     24  CA        17.0580   -1.2460   23.0590 C.3   160  ALA160      0.1694
     25  C         17.9540   -0.7030   21.9330 C.2   160  ALA160      0.2592
     26  O         19.0850   -0.2960   22.2120 O.2   160  ALA160     -0.2718
     27  CB        15.6200   -1.5550   22.6050 C.3   160  ALA160      0.0304
     28  N         17.4550   -0.6550   20.6990 N.am  161  CYS161     -0.1970
     29  CA        18.2240   -0.1750   19.5300 C.3   161  CYS161      0.1712
     30  C         18.7250    1.2530   19.6850 C.2   161  CYS161      0.2296
     31  O         19.6370    1.6460   18.9860 O.2   161  CYS161     -0.2864
     32  CB        17.3570   -0.2500   18.2380 C.3   161  CYS161      0.0983
     33  SG        16.2370   -1.6510   18.1970 S.3   161  CYS161     -0.0798
     34  N         27.3700   -4.4390   22.6980 N.3   189  GLU189     -0.1245
     35  CA        26.5480   -5.6360   22.8530 C.3   189  GLU189      0.1567
     36  C         27.4090   -6.8540   22.5750 C.2   189  GLU189      0.2260
     37  O         28.1640   -6.8690   21.6030 O.2   189  GLU189     -0.2867
     38  CB        25.3600   -5.6550   21.8920 C.3   189  GLU189      0.0388
     39  CG        24.1740   -6.4530   22.4290 C.3   189  GLU189      0.1160
     40  CD        23.4320   -5.6870   23.5090 C.2   189  GLU189      0.3649
     41  OE1       23.3120   -6.1680   24.6550 O.co2 189  GLU189     -0.2457
     42  OE2       22.9650   -4.5690   23.2060 O.co2 189  GLU189     -0.2457
     43  N         21.2090  -14.5960   23.4500 N.3   195  LEU195     -0.1245
     44  CA        20.5000  -13.3740   23.0790 C.3   195  LEU195      0.1561
     45  C         19.8090  -13.5360   21.7230 C.2   195  LEU195      0.2260
     46  O         18.6180  -13.2420   21.5710 O.2   195  LEU195     -0.2867
     47  CB        21.4760  -12.1890   23.0650 C.3   195  LEU195      0.0270
     48  CG        20.9010  -10.8610   22.5710 C.3   195  LEU195      0.0019
     49  CD1       19.6170  -10.5160   23.2970 C.3   195  LEU195      0.0001
     50  CD2       21.9530   -9.7650   22.7220 C.3   195  LEU195      0.0001
     51  N         16.3320  -15.1960   21.2730 N.3   198  LEU198     -0.1231
     52  CA        15.1430  -14.4400   21.6500 C.3   198  LEU198      0.1693
     53  C         14.5320  -13.7610   20.4190 C.2   198  LEU198      0.2592
     54  O         13.3040  -13.7130   20.2640 O.2   198  LEU198     -0.2718
     55  CB        15.4700  -13.4150   22.7420 C.3   198  LEU198      0.0284
     56  CG        16.1940  -13.9510   23.9850 C.3   198  LEU198      0.0019
     57  CD1       16.4730  -12.8360   24.9860 C.3   198  LEU198      0.0001
     58  CD2       15.4260  -15.0930   24.6490 C.3   198  LEU198      0.0001
     59  N         15.3900  -13.2420   19.5450 N.am  199  PHE199     -0.1976
     60  CA        14.9420  -12.6280   18.2990 C.3   199  PHE199      0.1639
     61  C         14.5090  -13.6660   17.2660 C.2   199  PHE199      0.2290
     62  O         13.5600  -13.4230   16.5210 O.2   199  PHE199     -0.2864
     63  CB        16.0300  -11.7230   17.7320 C.3   199  PHE199      0.0560
     64  CG        16.2950  -10.5100   18.5670 C.ar  199  PHE199     -0.0200
     65  CD1       15.4470   -9.4150   18.5020 C.ar  199  PHE199     -0.0042
     66  CD2       17.3790  -10.4620   19.4310 C.ar  199  PHE199     -0.0042
     67  CE1       15.6980   -8.2800   19.2550 C.ar  199  PHE199     -0.0003
     68  CE2       17.6250   -9.3290   20.1890 C.ar  199  PHE199     -0.0003
     69  CZ        16.7770   -8.2440   20.1000 C.ar  199  PHE199     -0.0000
     70  N         22.4840   -3.6140   18.1860 N.3   335  LEU335     -0.1245
     71  CA        21.6540   -3.3870   19.3680 C.3   335  LEU335      0.1561
     72  C         22.2340   -2.2310   20.2090 C.2   335  LEU335      0.2260
     73  O         22.2550   -1.1010   19.7180 O.2   335  LEU335     -0.2867
     74  CB        21.4450   -4.7100   20.1290 C.3   335  LEU335      0.0270
     75  CG        20.8350   -5.8420   19.2810 C.3   335  LEU335      0.0019
     76  CD1       20.7560   -7.1360   20.0760 C.3   335  LEU335      0.0001
     77  CD2       19.4680   -5.4670   18.7150 C.3   335  LEU335      0.0001
     78  N         12.7740   -1.0440   20.3110 N.3   393  PHE393     -0.1241
     79  CA        11.6030   -1.7180   20.8800 C.3   393  PHE393      0.1605
     80  C         11.1270   -0.9150   22.0690 C.2   393  PHE393      0.2264
     81  O         11.9230   -0.2920   22.7780 O.2   393  PHE393     -0.2867
     82  CB        11.8670   -3.1490   21.3940 C.3   393  PHE393      0.0534
     83  CG        11.9400   -4.2060   20.3170 C.ar  393  PHE393     -0.0203
     84  CD1       12.2080   -5.5260   20.6530 C.ar  393  PHE393     -0.0042
     85  CD2       11.7730   -3.8900   18.9770 C.ar  393  PHE393     -0.0042
     86  CE1       12.2870   -6.5060   19.6780 C.ar  393  PHE393     -0.0003
     87  CE2       11.8520   -4.8670   18.0010 C.ar  393  PHE393     -0.0003
     88  CZ        12.1130   -6.1720   18.3530 C.ar  393  PHE393     -0.0000
@<TRIPOS>BOND
     1    62    61    2
     2    61    60    1
     3    63    60    1
     4    63    64    1
     5    87    88   ar
     6    87    85   ar
     7    70    71    1
     8    33    32    1
     9    32    29    1
    10    60    59    1
    11    88    86   ar
    12    65    64   ar
    13    65    67   ar
    14    64    66   ar
    15    77    75    1
    16    85    83   ar
    17    31    30    2
    18    67    69   ar
    19    75    76    1
    20    75    74    1
    21    71    74    1
    22    71    72    1
    23    66    68   ar
    24    29    30    1
    25    29    28    1
    26    59    53   am
    27    86    84   ar
    28    73    72    2
    29    69    68   ar
    30    54    53    2
    31    78    79    1
    32    83    84   ar
    33    83    82    1
    34    53    52    1
    35    28    25   am
    36    79    82    1
    37    79    80    1
    38    51    52    1
    39    46    45    2
    40    37    36    2
    41    52    55    1
    42    45    44    1
    43    38    39    1
    44    38    35    1
    45    25    26    2
    46    25    24    1
    47    80    81    2
    48    39    40    1
    49    48    50    1
    50    48    47    1
    51    48    49    1
    52    36    35    1
    53    27    24    1
    54    34    35    1
    55    55    56    1
    56    24    23    1
    57    47    44    1
    58    44    43    1
    59    42    40   ar
    60    40    41   ar
    61    56    58    1
    62    56    57    1
    63     2     1    1
    64     2     3    1
    65     3     5   am
    66     3     4    2
    67    21    20    1
    68     5     6    1
    69    22    20    1
    70    20    17    1
    71     6     7    1
    72     8     7    2
    73    12    11    2
    74     7     9   am
    75    16    17    1
    76    17    18    1
    77    18    19    2
    78    11    10    1
    79     9    10    1
    80     9    15    1
    81    10    13    1
    82    15    14    1
    83    14    13    1
