@<TRIPOS>MOLECULE
tmp/3u0iA00.pdb
 78 76 0 0 0
SMALL
GASTEIGER

@<TRIPOS>ATOM
      1  N         -5.9120   59.1910    6.6920 N.3    19  VAL19      -0.1245
      2  CA        -4.9970   60.3080    6.4310 C.3    19  VAL19       0.1561
      3  C         -4.1700   60.6060    7.6900 C.2    19  VAL19       0.2260
      4  O         -4.6990   60.8260    8.7650 O.2    19  VAL19      -0.2867
      5  CB        -5.7670   61.6040    5.9940 C.3    19  VAL19       0.0252
      6  CG1       -4.8340   62.7970    5.8440 C.3    19  VAL19       0.0019
      7  CG2       -6.5540   61.3690    4.7030 C.3    19  VAL19       0.0019
      8  N          3.4640   66.9860    5.1500 N.3    33  VAL33      -0.1231
      9  CA         2.5030   66.8620    4.0500 C.3    33  VAL33       0.1678
     10  C          1.4510   65.7860    4.3880 C.2    33  VAL33       0.2434
     11  O          1.8000   64.6880    4.8970 O.2    33  VAL33      -0.2733
     12  CB         3.2520   66.5670    2.7140 C.3    33  VAL33       0.0265
     13  CG1        3.9560   65.2150    2.7970 C.3    33  VAL33       0.0020
     14  CG2        2.2850   66.6310    1.5080 C.3    33  VAL33       0.0020
     15  N          0.1600   66.0820    4.1370 N.am   34  PRO34      -0.2718
     16  CA        -0.8330   65.0250    4.3510 C.3    34  PRO34       0.1535
     17  C         -0.6810   63.8690    3.3330 C.2    34  PRO34       0.2598
     18  O         -0.4750   64.1170    2.1480 O.2    34  PRO34      -0.2715
     19  CB        -2.1790   65.7350    4.1030 C.3    34  PRO34       0.0310
     20  CG        -1.8570   67.1800    3.8810 C.3    34  PRO34       0.0237
     21  CD        -0.4300   67.2700    3.4950 C.3    34  PRO34       0.0939
     22  N         -0.8190   62.6380    3.8030 N.am   35  MET35      -0.1964
     23  CA        -0.7780   61.4370    2.9400 C.3    35  MET35       0.1736
     24  C         -1.7630   60.4010    3.4690 C.2    35  MET35       0.2617
     25  O         -2.0420   60.3720    4.6740 O.2    35  MET35      -0.2715
     26  CB         0.6130   60.8270    2.9510 C.3    35  MET35       0.0427
     27  CG         1.7120   61.7110    2.3930 C.3    35  MET35       0.0599
     28  SD         1.6470   61.8270    0.6110 S.3    35  MET35      -0.1393
     29  CE         2.5000   60.3080    0.1620 C.3    35  MET35       0.0692
     30  N         -2.2930   59.5650    2.5690 N.am   36  THR36      -0.1951
     31  CA        -3.0310   58.3710    2.9670 C.3    36  THR36       0.1897
     32  C         -2.0540   57.2200    3.2280 C.2    36  THR36       0.2313
     33  O         -1.0560   57.0230    2.5090 O.2    36  THR36      -0.2863
     34  CB        -4.0750   57.9490    1.9070 C.3    36  THR36       0.1794
     35  OG1       -3.4560   57.9170    0.6160 O.3    36  THR36      -0.2208
     36  CG2       -5.2400   58.9240    1.8730 C.3    36  THR36       0.0378
     37  N          2.2010   55.6250   -1.2020 N.3    47  PHE47      -0.1227
     38  CA         2.9080   55.9430   -2.4350 C.3    47  PHE47       0.1736
     39  C          2.7450   57.4240   -2.7790 C.2    47  PHE47       0.2596
     40  O          1.8300   58.1080   -2.2980 O.2    47  PHE47      -0.2718
     41  CB         2.4160   55.0960   -3.6030 C.3    47  PHE47       0.0547
     42  CG         0.9530   55.2320   -3.8720 C.ar   47  PHE47      -0.0202
     43  CD1        0.4760   56.1990   -4.7580 C.ar   47  PHE47      -0.0042
     44  CD2        0.0410   54.3920   -3.2350 C.ar   47  PHE47      -0.0042
     45  CE1       -0.8830   56.3300   -5.0170 C.ar   47  PHE47      -0.0003
     46  CE2       -1.3200   54.5210   -3.4820 C.ar   47  PHE47      -0.0003
     47  CZ        -1.7800   55.4860   -4.3780 C.ar   47  PHE47      -0.0000
     48  N          3.6330   57.8870   -3.6480 N.am   48  THR48      -0.1939
     49  CA         3.5860   59.2360   -4.1730 C.3    48  THR48       0.2028
     50  C          4.0550   59.3020   -5.6350 C.2    48  THR48       0.2643
     51  O          4.9380   58.5430   -6.0670 O.2    48  THR48      -0.2714
     52  CB         4.4280   60.1640   -3.3000 C.3    48  THR48       0.1808
     53  OG1        4.2290   61.5210   -3.7220 O.3    48  THR48      -0.2208
     54  CG2        5.8920   59.7570   -3.3610 C.3    48  THR48       0.0379
     55  N          3.4310   60.1950   -6.4000 N.am   49  THR49      -0.1936
     56  CA         3.9200   60.5640   -7.7160 C.3    49  THR49       0.2028
     57  C          4.7860   61.8240   -7.6400 C.2    49  THR49       0.2642
     58  O          5.2990   62.2880   -8.6610 O.2    49  THR49      -0.2714
     59  CB         2.7430   60.7690   -8.6900 C.3    49  THR49       0.1808
     60  OG1        1.8910   61.8060   -8.1890 O.3    49  THR49      -0.2208
     61  CG2        1.9190   59.4510   -8.8340 C.3    49  THR49       0.0379
     62  N          4.9720   62.3740   -6.4370 N.am   50  ASP50      -0.1971
     63  CA         5.8050   63.5630   -6.2540 C.3    50  ASP50       0.1709
     64  C          7.3000   63.2300   -6.0350 C.2    50  ASP50       0.2293
     65  O          7.7280   62.8710   -4.9300 O.2    50  ASP50      -0.2864
     66  CB         5.2710   64.3760   -5.0960 C.3    50  ASP50       0.1436
     67  CG         6.0400   65.6820   -4.8780 C.2    50  ASP50       0.3671
     68  OD1        7.0500   65.9900   -5.5510 O.co2  50  ASP50      -0.2456
     69  OD2        5.5990   66.4140   -3.9990 O.co2  50  ASP50      -0.2456
     70  N          9.2740   64.5630   -3.0320 N.3    53  LYS53      -0.1245
     71  CA         9.1390   63.8410   -1.7460 C.3    53  LYS53       0.1561
     72  C         10.0360   62.6020   -1.7580 C.2    53  LYS53       0.2260
     73  O         10.7730   62.3380   -0.8180 O.2    53  LYS53      -0.2867
     74  CB         7.7020   63.3610   -1.4660 C.3    53  LYS53       0.0271
     75  CG         6.6600   64.4580   -1.3550 C.3    53  LYS53       0.0035
     76  CD         5.2390   63.9240   -1.1180 C.3    53  LYS53       0.0206
     77  CE         4.2190   65.0650   -1.2160 C.3    53  LYS53       0.1093
     78  NZ         2.8640   64.6800   -1.7520 N.3    53  LYS53      -0.1314
@<TRIPOS>BOND
     1    61    59    1
     2    59    60    1
     3    59    56    1
     4    58    57    2
     5    56    57    1
     6    56    55    1
     7    57    62   am
     8    62    63    1
     9    55    50   am
    10    63    64    1
    11    63    66    1
    12    51    50    2
    13    64    65    2
    14    50    49    1
    15    68    67   ar
    16    66    67    1
    17    45    43   ar
    18    45    47   ar
    19    67    69   ar
    20    43    42   ar
    21    47    46   ar
    22    49    48    1
    23    49    52    1
    24    42    41    1
    25    42    44   ar
    26    53    52    1
    27    48    39   am
    28    41    38    1
    29    46    44   ar
    30    54    52    1
    31    70    71    1
    32    39    38    1
    33    39    40    2
    34    38    37    1
    35    72    71    1
    36    72    73    2
    37    78    77    1
    38    71    74    1
    39    74    75    1
    40    75    76    1
    41    77    76    1
    42    29    28    1
    43    28    27    1
    44    35    34    1
    45    14    12    1
    46    36    34    1
    47    34    31    1
    48    18    17    2
    49    27    26    1
    50    33    32    2
    51    30    31    1
    52    30    24   am
    53    12    13    1
    54    12     9    1
    55    23    26    1
    56    23    24    1
    57    23    22    1
    58    31    32    1
    59    17    22   am
    60    17    16    1
    61    24    25    2
    62    21    20    1
    63    21    15    1
    64    20    19    1
    65     9    10    1
    66     9     8    1
    67    19    16    1
    68    15    16    1
    69    15    10   am
    70    10    11    2
    71     7     5    1
    72     6     5    1
    73     5     2    1
    74     2     1    1
    75     2     3    1
    76     3     4    2
