@<TRIPOS>MOLECULE
tmp/3u0pA02.pdb
 172 167 0 0 0
SMALL
GASTEIGER

@<TRIPOS>ATOM
      1  N          0.3210   40.9330   69.8790 N.3     5  LEU5       -0.1245
      2  CA        -0.4840   41.9080   70.5990 C.3     5  LEU5        0.1561
      3  C         -1.7720   42.1520   69.8270 C.2     5  LEU5        0.2260
      4  O         -1.7490   42.6720   68.7140 O.2     5  LEU5       -0.2867
      5  CB         0.2670   43.2280   70.7740 C.3     5  LEU5        0.0270
      6  CG        -0.5090   44.2750   71.5840 C.3     5  LEU5        0.0019
      7  CD1       -0.6310   43.8520   73.0490 C.3     5  LEU5        0.0001
      8  CD2        0.1200   45.6590   71.4630 C.3     5  LEU5        0.0001
      9  N         -5.1060   44.2340   69.9190 N.3     7  CYS7       -0.1221
     10  CA        -5.8830   45.3180   70.5060 C.3     7  CYS7        0.1808
     11  C         -7.3180   45.2820   69.9830 C.2     7  CYS7        0.2601
     12  O         -7.5620   45.4490   68.7910 O.2     7  CYS7       -0.2717
     13  CB        -5.2190   46.6720   70.2310 C.3     7  CYS7        0.0970
     14  SG        -3.5860   46.8570   71.0160 S.3     7  CYS7       -0.0800
     15  N         -8.2630   45.0450   70.8830 N.am    8  LEU8       -0.1965
     16  CA        -9.6620   44.9120   70.5080 C.3     8  LEU8        0.1728
     17  C        -10.4610   46.1400   70.8950 C.2     8  LEU8        0.2616
     18  O        -10.2420   46.7240   71.9550 O.2     8  LEU8       -0.2715
     19  CB       -10.2750   43.6800   71.1710 C.3     8  LEU8        0.0311
     20  CG       -10.0980   42.3570   70.4170 C.3     8  LEU8        0.0022
     21  CD1       -8.7410   42.2850   69.7310 C.3     8  LEU8        0.0001
     22  CD2      -10.2900   41.1760   71.3620 C.3     8  LEU8        0.0001
     23  N        -11.3890   46.5260   70.0280 N.am    9  GLN9       -0.1977
     24  CA       -12.2930   47.6330   70.3080 C.3     9  GLN9        0.1601
     25  C        -13.7160   47.2650   69.9210 C.2     9  GLN9        0.2287
     26  O        -13.9570   46.7350   68.8370 O.2     9  GLN9       -0.2864
     27  CB       -11.8620   48.8930   69.5580 C.3     9  GLN9        0.0394
     28  CG       -12.9280   49.9800   69.5260 C.3     9  GLN9        0.0908
     29  CD       -12.5080   51.1950   68.7200 C.2     9  GLN9        0.2608
     30  OE1      -11.3210   51.4240   68.4880 O.2     9  GLN9       -0.2717
     31  NE2      -13.4860   51.9830   68.2870 N.am    9  GLN9       -0.0878
     32  N        -12.5810   48.6060   75.0540 N.3    23  GLY23      -0.1210
     33  CA       -11.4480   47.9470   74.4440 C.3    23  GLY23       0.1956
     34  C        -10.6870   47.0770   75.4210 C.2    23  GLY23       0.2612
     35  O        -10.7770   47.2530   76.6350 O.2    23  GLY23      -0.2717
     36  N         -9.9440   46.1220   74.8790 N.am   24  LEU24      -0.1965
     37  CA        -9.0250   45.3220   75.6670 C.3    24  LEU24       0.1728
     38  C         -7.8040   45.0330   74.8200 C.2    24  LEU24       0.2616
     39  O         -7.8290   45.2000   73.6010 O.2    24  LEU24      -0.2715
     40  CB        -9.6540   43.9980   76.0980 C.3    24  LEU24       0.0311
     41  CG       -11.1120   43.6570   75.7930 C.3    24  LEU24       0.0022
     42  CD1      -11.5200   44.1010   74.4000 C.3    24  LEU24       0.0001
     43  CD2      -11.3110   42.1500   75.9650 C.3    24  LEU24       0.0001
     44  N         -6.7320   44.6010   75.4700 N.am   25  ALA25      -0.1977
     45  CA        -5.5440   44.1580   74.7610 C.3    25  ALA25       0.1597
     46  C         -5.1700   42.7570   75.2250 C.2    25  ALA25       0.2287
     47  O         -5.1630   42.4680   76.4220 O.2    25  ALA25      -0.2864
     48  CB        -4.3900   45.1220   74.9930 C.3    25  ALA25       0.0319
     49  N         -4.7660   44.3520   79.1050 N.3    33  HIS33      -0.1226
     50  CA        -5.3120   45.7010   79.2020 C.3    33  HIS33       0.1752
     51  C         -6.8340   45.7680   79.1100 C.2    33  HIS33       0.2597
     52  O         -7.4610   44.9940   78.3860 O.2    33  HIS33      -0.2718
     53  CB        -4.6900   46.5960   78.1290 C.3    33  HIS33       0.0759
     54  CG        -3.2170   46.7980   78.2900 C.ar   33  HIS33       0.0818
     55  ND1       -2.2860   45.8880   77.8420 N.ar   33  HIS33      -0.2268
     56  CD2       -2.5130   47.8110   78.8540 C.ar   33  HIS33       0.1154
     57  CE1       -1.0710   46.3310   78.1180 C.ar   33  HIS33       0.1986
     58  NE2       -1.1830   47.4960   78.7330 N.ar   33  HIS33      -0.2212
     59  N         -7.4160   46.7090   79.8480 N.am   34  SER34      -0.1938
     60  CA        -8.8540   46.9380   79.8120 C.3    34  SER34       0.2055
     61  C         -9.1560   48.4220   79.6540 C.2    34  SER34       0.2643
     62  O         -8.5570   49.2640   80.3210 O.2    34  SER34      -0.2714
     63  CB        -9.5240   46.3970   81.0740 C.3    34  SER34       0.2130
     64  OG       -10.9300   46.5630   81.0140 O.3    34  SER34      -0.2179
     65  N        -10.0930   48.7290   78.7650 N.am   35  TRP35      -0.1973
     66  CA       -10.4760   50.1020   78.4710 C.3    35  TRP35       0.1640
     67  C        -11.9960   50.2140   78.4940 C.2    35  TRP35       0.2290
     68  O        -12.6700   49.8130   77.5470 O.2    35  TRP35      -0.2864
     69  CB        -9.9390   50.5010   77.0940 C.3    35  TRP35       0.0576
     70  CG       -10.0530   51.9640   76.7650 C.ar   35  TRP35       0.0006
     71  CD1      -10.1730   53.0020   77.6460 C.ar   35  TRP35       0.0946
     72  CD2      -10.0550   52.5480   75.4560 C.ar   35  TRP35       0.0152
     73  NE1      -10.2480   54.1960   76.9650 N.ar   35  TRP35      -0.2442
     74  CE2      -10.1790   53.9430   75.6190 C.ar   35  TRP35       0.0810
     75  CE3       -9.9630   52.0260   74.1600 C.ar   35  TRP35       0.0012
     76  CZ2      -10.2140   54.8200   74.5370 C.ar   35  TRP35       0.0191
     77  CZ3       -9.9980   52.9010   73.0870 C.ar   35  TRP35       0.0001
     78  CH2      -10.1220   54.2800   73.2830 C.ar   35  TRP35       0.0015
     79  N         -7.0260   53.6010   80.7710 N.3    42  VAL42      -0.1245
     80  CA        -6.7400   52.2560   80.3030 C.3    42  VAL42       0.1561
     81  C         -6.1260   51.4540   81.4380 C.2    42  VAL42       0.2260
     82  O         -4.9870   51.6950   81.8350 O.2    42  VAL42      -0.2867
     83  CB        -5.7700   52.2770   79.1090 C.3    42  VAL42       0.0252
     84  CG1       -5.1860   50.8940   78.8640 C.3    42  VAL42       0.0019
     85  CG2       -6.4760   52.8010   77.8670 C.3    42  VAL42       0.0019
     86  N          3.2300   56.8540   78.9910 N.3    58  TRP58      -0.1241
     87  CA         1.9830   56.1360   79.2190 C.3    58  TRP58       0.1605
     88  C          0.8100   57.0960   79.3940 C.2    58  TRP58       0.2264
     89  O         -0.2750   56.8640   78.8600 O.2    58  TRP58      -0.2867
     90  CB         2.1150   55.2230   80.4440 C.3    58  TRP58       0.0550
     91  CG         0.9360   54.3220   80.6720 C.ar   58  TRP58       0.0003
     92  CD1        0.0220   54.4030   81.6830 C.ar   58  TRP58       0.0946
     93  CD2        0.5440   53.2050   79.8670 C.ar   58  TRP58       0.0152
     94  NE1       -0.9120   53.4060   81.5580 N.ar   58  TRP58      -0.2442
     95  CE2       -0.6150   52.6560   80.4500 C.ar   58  TRP58       0.0810
     96  CE3        1.0600   52.6180   78.7080 C.ar   58  TRP58       0.0012
     97  CZ2       -1.2670   51.5490   79.9130 C.ar   58  TRP58       0.0191
     98  CZ3        0.4120   51.5190   78.1760 C.ar   58  TRP58       0.0001
     99  CH2       -0.7390   50.9960   78.7780 C.ar   58  TRP58       0.0015
    100  N         -0.5090   58.4520   76.0410 N.3    61  LEU61      -0.1245
    101  CA        -1.3100   57.4010   75.4280 C.3    61  LEU61       0.1561
    102  C         -2.7150   57.4320   76.0160 C.2    61  LEU61       0.2260
    103  O         -3.7040   57.2340   75.3090 O.2    61  LEU61      -0.2867
    104  CB        -0.6550   56.0390   75.6690 C.3    61  LEU61       0.0270
    105  CG        -1.3440   54.7730   75.1620 C.3    61  LEU61       0.0019
    106  CD1       -0.3580   53.6180   75.1490 C.3    61  LEU61       0.0001
    107  CD2       -2.5550   54.4270   76.0170 C.3    61  LEU61       0.0001
    108  N         -5.9020   58.2600   73.4810 N.3    65  PHE65      -0.1241
    109  CA        -6.9920   57.3030   73.3180 C.3    65  PHE65       0.1605
    110  C         -8.3600   57.9650   73.4640 C.2    65  PHE65       0.2264
    111  O         -9.2890   57.6500   72.7210 O.2    65  PHE65      -0.2867
    112  CB        -6.8540   56.1420   74.3080 C.3    65  PHE65       0.0534
    113  CG        -6.0620   54.9840   73.7760 C.ar   65  PHE65      -0.0203
    114  CD1       -5.9820   54.7520   72.4120 C.ar   65  PHE65      -0.0042
    115  CD2       -5.3950   54.1270   74.6350 C.ar   65  PHE65      -0.0042
    116  CE1       -5.2530   53.6880   71.9160 C.ar   65  PHE65      -0.0003
    117  CE2       -4.6640   53.0600   74.1440 C.ar   65  PHE65      -0.0003
    118  CZ        -4.5940   52.8410   72.7830 C.ar   65  PHE65      -0.0000
    119  N         -9.0330   59.7500   70.4090 N.3    68  TYR68      -0.1241
    120  CA        -9.3670   58.7320   69.4190 C.3    68  TYR68       0.1605
    121  C        -10.8060   58.2450   69.5750 C.2    68  TYR68       0.2264
    122  O        -11.5670   58.2170   68.6100 O.2    68  TYR68      -0.2867
    123  CB        -8.4080   57.5420   69.4990 C.3    68  TYR68       0.0534
    124  CG        -8.8840   56.3470   68.7010 C.ar   68  TYR68      -0.0201
    125  CD1       -8.7410   56.3090   67.3200 C.ar   68  TYR68      -0.0009
    126  CD2       -9.4870   55.2630   69.3290 C.ar   68  TYR68      -0.0009
    127  CE1       -9.1810   55.2220   66.5860 C.ar   68  TYR68       0.0417
    128  CE2       -9.9290   54.1700   68.6020 C.ar   68  TYR68       0.0417
    129  CZ        -9.7740   54.1570   67.2310 C.ar   68  TYR68       0.1957
    130  OH       -10.2110   53.0780   66.5000 O.3    68  TYR68      -0.2866
    131  N        -12.7850   46.6560   65.9310 N.3    93  VAL93      -0.1245
    132  CA       -11.4520   46.8410   65.3810 C.3    93  VAL93       0.1561
    133  C        -10.4860   45.8780   66.0460 C.2    93  VAL93       0.2260
    134  O        -10.4360   45.7780   67.2700 O.2    93  VAL93      -0.2867
    135  CB       -10.9470   48.2780   65.5750 C.3    93  VAL93       0.0252
    136  CG1       -9.5570   48.4330   64.9730 C.3    93  VAL93       0.0019
    137  CG2      -11.9270   49.2740   64.9670 C.3    93  VAL93       0.0019
    138  N         -6.5240   45.3010   65.9830 N.3    95  ALA95      -0.1245
    139  CA        -5.2610   45.8560   65.5160 C.3    95  ALA95       0.1562
    140  C         -4.1390   45.5140   66.4750 C.2    95  ALA95       0.2260
    141  O         -4.3600   45.3950   67.6800 O.2    95  ALA95      -0.2867
    142  CB        -5.3750   47.3700   65.3450 C.3    95  ALA95       0.0290
    143  N         -4.3770   45.6860   61.0800 N.3   109  PHE109     -0.1241
    144  CA        -5.4220   46.5760   61.5620 C.3   109  PHE109      0.1605
    145  C         -6.7080   46.2620   60.8050 C.2   109  PHE109      0.2264
    146  O         -6.9010   46.7120   59.6780 O.2   109  PHE109     -0.2867
    147  CB        -5.0080   48.0360   61.3590 C.3   109  PHE109      0.0534
    148  CG        -5.9070   49.0310   62.0420 C.ar  109  PHE109     -0.0203
    149  CD1       -7.2820   48.9730   61.8870 C.ar  109  PHE109     -0.0042
    150  CD2       -5.3710   50.0300   62.8370 C.ar  109  PHE109     -0.0042
    151  CE1       -8.1040   49.8950   62.5110 C.ar  109  PHE109     -0.0003
    152  CE2       -6.1860   50.9540   63.4660 C.ar  109  PHE109     -0.0003
    153  CZ        -7.5540   50.8860   63.3030 C.ar  109  PHE109     -0.0000
    154  N          2.1290   53.9250   64.2710 N.3   156  LEU156     -0.1245
    155  CA         1.7560   53.0950   65.4070 C.3   156  LEU156      0.1561
    156  C          2.0490   51.6220   65.1270 C.2   156  LEU156      0.2260
    157  O          2.6720   50.9360   65.9390 O.2   156  LEU156     -0.2867
    158  CB         0.2750   53.2800   65.7300 C.3   156  LEU156      0.0270
    159  CG        -0.1660   54.6680   66.1940 C.3   156  LEU156      0.0019
    160  CD1       -1.6860   54.7510   66.2530 C.3   156  LEU156      0.0001
    161  CD2        0.4410   54.9870   67.5470 C.3   156  LEU156      0.0001
    162  N          6.6450   48.6710   71.7500 N.3   164  PHE164     -0.1241
    163  CA         5.8470   48.3810   72.9370 C.3   164  PHE164      0.1605
    164  C          5.8980   46.8980   73.2890 C.2   164  PHE164      0.2264
    165  O          6.3290   46.5260   74.3810 O.2   164  PHE164     -0.2867
    166  CB         4.3980   48.8290   72.7190 C.3   164  PHE164      0.0534
    167  CG         3.5040   48.6190   73.9100 C.ar  164  PHE164     -0.0203
    168  CD1        3.9150   48.9890   75.1790 C.ar  164  PHE164     -0.0042
    169  CD2        2.2400   48.0740   73.7530 C.ar  164  PHE164     -0.0042
    170  CE1        3.0880   48.8020   76.2730 C.ar  164  PHE164     -0.0003
    171  CE2        1.4100   47.8860   74.8410 C.ar  164  PHE164     -0.0003
    172  CZ         1.8330   48.2500   76.1030 C.ar  164  PHE164     -0.0000
@<TRIPOS>BOND
     1   146   145    2
     2   145   144    1
     3   143   144    1
     4   147   144    1
     5   147   148    1
     6   149   148   ar
     7   149   151   ar
     8   148   150   ar
     9   151   153   ar
    10   150   152   ar
    11   153   152   ar
    12   154   155    1
    13   137   135    1
    14   136   135    1
    15   156   155    1
    16   156   157    2
    17   142   139    1
    18   132   135    1
    19   132   131    1
    20   132   133    1
    21   155   158    1
    22   139   138    1
    23   139   140    1
    24   158   159    1
    25   133   134    2
    26   159   160    1
    27   159   161    1
    28   140   141    2
    29   130   129    1
    30   127   129   ar
    31   127   125   ar
    32   129   128   ar
    33   125   124   ar
    34    31    29   am
    35    30    29    2
    36   128   126   ar
    37   122   121    2
    38   124   126   ar
    39   124   123    1
    40     4     3    2
    41    29    28    1
    42    12    11    2
    43    26    25    2
    44   120   123    1
    45   120   121    1
    46   120   119    1
    47    28    27    1
    48    27    24    1
    49    21    20    1
    50     3     2    1
    51     1     2    1
    52     9    10    1
    53    25    24    1
    54    11    10    1
    55    11    15   am
    56    23    24    1
    57    23    17   am
    58    13    10    1
    59    13    14    1
    60    20    19    1
    61    20    22    1
    62    16    15    1
    63    16    17    1
    64    16    19    1
    65     2     5    1
    66     5     6    1
    67    17    18    2
    68     8     6    1
    69     6     7    1
    70   162   163    1
    71   116   114   ar
    72   116   118   ar
    73   114   113   ar
    74   166   163    1
    75   166   167    1
    76   111   110    2
    77   118   117   ar
    78   163   164    1
    79    77    78   ar
    80    77    75   ar
    81    78    76   ar
    82   164   165    2
    83   109   110    1
    84   109   108    1
    85   109   112    1
    86    39    38    2
    87   169   167   ar
    88   169   171   ar
    89   113   112    1
    90   113   115   ar
    91   167   168   ar
    92   117   115   ar
    93    75    72   ar
    94    42    41    1
    95    33    32    1
    96    33    34    1
    97    76    74   ar
    98    45    48    1
    99    45    46    1
   100    45    44    1
   101    38    44   am
   102    38    37    1
   103   171   172   ar
   104    36    34   am
   105    36    37    1
   106   106   105    1
   107   105   104    1
   108   105   107    1
   109   168   170   ar
   110    46    47    2
   111   103   102    2
   112    34    35    2
   113   101   104    1
   114   101   102    1
   115   101   100    1
   116    72    74   ar
   117    72    70   ar
   118    74    73   ar
   119    37    40    1
   120    41    43    1
   121    41    40    1
   122   172   170   ar
   123    70    69    1
   124    70    71   ar
   125    73    71   ar
   126    69    66    1
   127    68    67    2
   128    55    57   ar
   129    55    54   ar
   130    85    83    1
   131    57    58   ar
   132    53    54    1
   133    53    50    1
   134    98    96   ar
   135    98    99   ar
   136    54    56   ar
   137    52    51    2
   138    66    67    1
   139    66    65    1
   140    96    93   ar
   141    58    56   ar
   142    65    61   am
   143    99    97   ar
   144    89    88    2
   145    84    83    1
   146    86    87    1
   147    49    50    1
   148    83    80    1
   149    51    50    1
   150    51    59   am
   151    87    88    1
   152    87    90    1
   153    61    60    1
   154    61    62    2
   155    60    59    1
   156    60    63    1
   157    93    95   ar
   158    93    91   ar
   159    97    95   ar
   160    80    79    1
   161    80    81    1
   162    90    91    1
   163    95    94   ar
   164    91    92   ar
   165    64    63    1
   166    81    82    2
   167    94    92   ar
