@<TRIPOS>MOLECULE
tmp/3u0pA01.pdb
 254 244 0 0 0
SMALL
GASTEIGER

@<TRIPOS>ATOM
      1  N         -9.1290   61.1160   72.8400 N.3    67  VAL67      -0.1231
      2  CA        -9.3460   61.8440   71.5980 C.3    67  VAL67       0.1692
      3  C         -9.7280   60.8790   70.4810 C.2    67  VAL67       0.2592
      4  O        -10.6430   61.1480   69.7030 O.2    67  VAL67      -0.2718
      5  CB        -8.1070   62.6590   71.1820 C.3    67  VAL67       0.0266
      6  CG1       -8.2770   63.1860   69.7670 C.3    67  VAL67       0.0020
      7  CG2       -7.8700   63.8010   72.1570 C.3    67  VAL67       0.0020
      8  N         -9.0330   59.7500   70.4090 N.am   68  TYR68      -0.1976
      9  CA        -9.3670   58.7320   69.4190 C.3    68  TYR68       0.1639
     10  C        -10.8060   58.2450   69.5750 C.2    68  TYR68       0.2290
     11  O        -11.5670   58.2170   68.6100 O.2    68  TYR68      -0.2864
     12  CB        -8.4080   57.5420   69.4990 C.3    68  TYR68       0.0560
     13  CG        -8.8840   56.3470   68.7010 C.ar   68  TYR68      -0.0198
     14  CD1       -8.7410   56.3090   67.3200 C.ar   68  TYR68      -0.0009
     15  CD2       -9.4870   55.2630   69.3290 C.ar   68  TYR68      -0.0009
     16  CE1       -9.1810   55.2220   66.5860 C.ar   68  TYR68       0.0417
     17  CE2       -9.9290   54.1700   68.6020 C.ar   68  TYR68       0.0417
     18  CZ        -9.7740   54.1570   67.2310 C.ar   68  TYR68       0.1957
     19  OH       -10.2110   53.0780   66.5000 O.3    68  TYR68      -0.2866
     20  N        -13.2380   60.9510   68.3840 N.3    71  SER71      -0.1202
     21  CA       -13.1010   61.1840   66.9490 C.3    71  SER71       0.2020
     22  C        -13.7550   60.0550   66.1700 C.2    71  SER71       0.2618
     23  O        -14.6160   60.2870   65.3180 O.2    71  SER71      -0.2717
     24  CB       -11.6290   61.2960   66.5570 C.3    71  SER71       0.2103
     25  OG       -11.0070   62.3650   67.2410 O.3    71  SER71      -0.2182
     26  N        -13.3290   58.8330   66.4730 N.am   72  PHE72      -0.1975
     27  CA       -13.9040   57.6260   65.8950 C.3    72  PHE72       0.1639
     28  C        -15.4250   57.6710   65.9680 C.2    72  PHE72       0.2290
     29  O        -16.1140   57.4070   64.9840 O.2    72  PHE72      -0.2864
     30  CB       -13.3740   56.3930   66.6420 C.3    72  PHE72       0.0560
     31  CG       -13.8780   55.0850   66.1020 C.ar   72  PHE72      -0.0200
     32  CD1      -15.0770   54.5550   66.5440 C.ar   72  PHE72      -0.0042
     33  CD2      -13.1450   54.3800   65.1620 C.ar   72  PHE72      -0.0042
     34  CE1      -15.5420   53.3510   66.0510 C.ar   72  PHE72      -0.0003
     35  CE2      -13.6060   53.1750   64.6620 C.ar   72  PHE72      -0.0003
     36  CZ       -14.8040   52.6610   65.1090 C.ar   72  PHE72      -0.0000
     37  N        -17.7100   60.2220   66.4000 N.3    74  ARG74      -0.1231
     38  CA       -18.3910   61.2060   65.5670 C.3    74  ARG74       0.1694
     39  C        -18.1850   60.9010   64.0870 C.2    74  ARG74       0.2592
     40  O        -19.0910   61.0890   63.2770 O.2    74  ARG74      -0.2718
     41  CB       -17.9220   62.6270   65.8900 C.3    74  ARG74       0.0321
     42  CG       -16.4770   62.8900   65.5310 C.3    74  ARG74       0.0489
     43  CD       -16.3100   64.2350   64.8440 C.3    74  ARG74       0.2205
     44  NE       -15.0270   64.3140   64.1530 N.pl3  74  ARG74      -0.0865
     45  CZ       -13.8810   64.6470   64.7380 C.cat  74  ARG74       0.5346
     46  NH1      -13.8520   64.9410   66.0320 N.pl3  74  ARG74       0.1354
     47  NH2      -12.7630   64.6860   64.0280 N.pl3  74  ARG74       0.1354
     48  N        -16.9920   60.4290   63.7400 N.am   75  ASP75      -0.1960
     49  CA       -16.7010   60.0340   62.3650 C.3    75  ASP75       0.1840
     50  C        -17.6530   58.9340   61.8970 C.2    75  ASP75       0.2621
     51  O        -18.1340   58.9540   60.7630 O.2    75  ASP75      -0.2715
     52  CB       -15.2470   59.5740   62.2270 C.3    75  ASP75       0.1450
     53  CG       -14.2920   60.7250   61.9420 C.2    75  ASP75       0.3671
     54  OD1      -14.7070   61.8980   62.0710 O.co2  75  ASP75      -0.2456
     55  OD2      -13.1220   60.4540   61.5900 O.co2  75  ASP75      -0.2456
     56  N        -17.9240   57.9770   62.7790 N.am   76  VAL76      -0.1977
     57  CA       -18.8280   56.8780   62.4630 C.3    76  VAL76       0.1596
     58  C        -20.2420   57.3900   62.2050 C.2    76  VAL76       0.2287
     59  O        -20.8390   57.0960   61.1680 O.2    76  VAL76      -0.2864
     60  CB       -18.8520   55.8230   63.5900 C.3    76  VAL76       0.0276
     61  CG1      -20.0430   54.8970   63.4330 C.3    76  VAL76       0.0022
     62  CG2      -17.5530   55.0340   63.6060 C.3    76  VAL76       0.0022
     63  N        -20.3380   59.0170   58.8470 N.3    79  PHE79      -0.1227
     64  CA       -20.3850   58.0470   57.7570 C.3    79  PHE79       0.1736
     65  C        -21.7780   57.4380   57.6660 C.2    79  PHE79       0.2595
     66  O        -22.3030   57.2200   56.5750 O.2    79  PHE79      -0.2718
     67  CB       -19.3490   56.9370   57.9560 C.3    79  PHE79       0.0547
     68  CG       -17.9890   57.2680   57.4150 C.ar   79  PHE79      -0.0202
     69  CD1      -17.8050   57.4900   56.0630 C.ar   79  PHE79      -0.0042
     70  CD2      -16.8920   57.3420   58.2550 C.ar   79  PHE79      -0.0042
     71  CE1      -16.5530   57.7960   55.5580 C.ar   79  PHE79      -0.0003
     72  CE2      -15.6360   57.6450   57.7570 C.ar   79  PHE79      -0.0003
     73  CZ       -15.4680   57.8720   56.4060 C.ar   79  PHE79      -0.0000
     74  N        -22.3720   57.1680   58.8230 N.am   80  ALA80      -0.1980
     75  CA       -23.7070   56.5910   58.8850 C.3    80  ALA80       0.1597
     76  C        -24.7240   57.4830   58.1810 C.2    80  ALA80       0.2287
     77  O        -25.5940   56.9980   57.4560 O.2    80  ALA80      -0.2864
     78  CB       -24.1130   56.3620   60.3300 C.3    80  ALA80       0.0319
     79  N        -23.7150   57.7470   54.1820 N.3    83  LEU83      -0.1245
     80  CA       -23.9650   56.5180   53.4450 C.3    83  LEU83       0.1561
     81  C        -25.3360   55.9250   53.7470 C.2    83  LEU83       0.2260
     82  O        -25.6600   54.8320   53.2820 O.2    83  LEU83      -0.2867
     83  CB       -22.8610   55.5020   53.7350 C.3    83  LEU83       0.0270
     84  CG       -21.4610   56.0470   53.4450 C.3    83  LEU83       0.0019
     85  CD1      -20.3960   54.9680   53.5890 C.3    83  LEU83       0.0001
     86  CD2      -21.4040   56.6970   52.0620 C.3    83  LEU83       0.0001
     87  N        -26.5700   54.5920   56.4100 N.3    85  LEU85      -0.1245
     88  CA       -26.5100   53.3330   57.1420 C.3    85  LEU85       0.1561
     89  C        -27.4430   53.3770   58.3520 C.2    85  LEU85       0.2260
     90  O        -27.4180   54.3310   59.1310 O.2    85  LEU85      -0.2867
     91  CB       -25.0730   53.0460   57.5820 C.3    85  LEU85       0.0270
     92  CG       -24.0430   52.9170   56.4590 C.3    85  LEU85       0.0019
     93  CD1      -22.6320   52.9090   57.0160 C.3    85  LEU85       0.0001
     94  CD2      -24.2980   51.6570   55.6530 C.3    85  LEU85       0.0001
     95  N        -25.4640   50.2520   64.9880 N.3    89  LEU89      -0.1245
     96  CA       -24.2290   49.8650   64.3190 C.3    89  LEU89       0.1561
     97  C        -23.3000   49.1070   65.2600 C.2    89  LEU89       0.2260
     98  O        -23.1630   49.4660   66.4280 O.2    89  LEU89      -0.2867
     99  CB       -23.5020   51.1080   63.8010 C.3    89  LEU89       0.0270
    100  CG       -24.3530   52.2090   63.1660 C.3    89  LEU89       0.0019
    101  CD1      -23.4730   53.3640   62.7180 C.3    89  LEU89       0.0001
    102  CD2      -25.1700   51.6670   62.0050 C.3    89  LEU89       0.0001
    103  N        -19.4800   48.3110   65.2410 N.3    91  LEU91      -0.1245
    104  CA       -18.1250   48.4090   64.7220 C.3    91  LEU91       0.1561
    105  C        -17.1260   47.7250   65.6450 C.2    91  LEU91       0.2260
    106  O        -17.1790   47.8830   66.8650 O.2    91  LEU91      -0.2867
    107  CB       -17.7420   49.8710   64.4970 C.3    91  LEU91       0.0270
    108  CG       -18.3390   50.4760   63.2260 C.3    91  LEU91       0.0019
    109  CD1      -18.4970   51.9760   63.3690 C.3    91  LEU91       0.0001
    110  CD2      -17.4700   50.1370   62.0230 C.3    91  LEU91       0.0001
    111  N        -12.7850   46.6560   65.9310 N.3    93  VAL93      -0.1245
    112  CA       -11.4520   46.8410   65.3810 C.3    93  VAL93       0.1561
    113  C        -10.4860   45.8780   66.0460 C.2    93  VAL93       0.2260
    114  O        -10.4360   45.7780   67.2700 O.2    93  VAL93      -0.2867
    115  CB       -10.9470   48.2780   65.5750 C.3    93  VAL93       0.0252
    116  CG1       -9.5570   48.4330   64.9730 C.3    93  VAL93       0.0019
    117  CG2      -11.9270   49.2740   64.9670 C.3    93  VAL93       0.0019
    118  N         -4.3770   45.6860   61.0800 N.3   109  PHE109     -0.1241
    119  CA        -5.4220   46.5760   61.5620 C.3   109  PHE109      0.1605
    120  C         -6.7080   46.2620   60.8050 C.2   109  PHE109      0.2264
    121  O         -6.9010   46.7120   59.6780 O.2   109  PHE109     -0.2867
    122  CB        -5.0080   48.0360   61.3590 C.3   109  PHE109      0.0534
    123  CG        -5.9070   49.0310   62.0420 C.ar  109  PHE109     -0.0203
    124  CD1       -7.2820   48.9730   61.8870 C.ar  109  PHE109     -0.0042
    125  CD2       -5.3710   50.0300   62.8370 C.ar  109  PHE109     -0.0042
    126  CE1       -8.1040   49.8950   62.5110 C.ar  109  PHE109     -0.0003
    127  CE2       -6.1860   50.9540   63.4660 C.ar  109  PHE109     -0.0003
    128  CZ        -7.5540   50.8860   63.3030 C.ar  109  PHE109     -0.0000
    129  N        -10.9800   46.1300   60.6430 N.3   111  VAL111     -0.1245
    130  CA       -12.2160   46.6720   61.1820 C.3   111  VAL111      0.1561
    131  C        -13.3950   45.9410   60.5730 C.2   111  VAL111      0.2260
    132  O        -13.3690   45.5640   59.4020 O.2   111  VAL111     -0.2867
    133  CB       -12.3410   48.2170   60.9690 C.3   111  VAL111      0.0252
    134  CG1      -11.5240   48.6630   59.7900 C.3   111  VAL111      0.0019
    135  CG2      -13.8010   48.6350   60.8130 C.3   111  VAL111      0.0019
    136  N        -17.8240   45.6620   60.3090 N.3   113  PHE113     -0.1241
    137  CA       -19.1200   46.3040   60.4610 C.3   113  PHE113      0.1605
    138  C        -20.1850   45.2270   60.5890 C.2   113  PHE113      0.2264
    139  O        -20.2160   44.2780   59.8060 O.2   113  PHE113     -0.2867
    140  CB       -19.4110   47.2060   59.2610 C.3   113  PHE113      0.0534
    141  CG       -20.7120   47.9480   59.3570 C.ar  113  PHE113     -0.0203
    142  CD1      -20.9010   48.9220   60.3220 C.ar  113  PHE113     -0.0042
    143  CD2      -21.7380   47.6860   58.4680 C.ar  113  PHE113     -0.0042
    144  CE1      -22.0970   49.6090   60.4100 C.ar  113  PHE113     -0.0003
    145  CE2      -22.9350   48.3700   58.5480 C.ar  113  PHE113     -0.0003
    146  CZ       -23.1140   49.3330   59.5200 C.ar  113  PHE113     -0.0000
    147  N        -14.9230   44.6080   56.6280 N.3   118  ILE118     -0.1231
    148  CA       -15.1710   45.5840   55.5700 C.3   118  ILE118      0.1692
    149  C        -13.8820   46.2010   55.0340 C.2   118  ILE118      0.2591
    150  O        -13.7490   46.4220   53.8290 O.2   118  ILE118     -0.2718
    151  CB       -16.1330   46.7000   56.0130 C.3   118  ILE118      0.0266
    152  CG1      -15.6000   47.4150   57.2530 C.3   118  ILE118      0.0019
    153  CG2      -17.5070   46.1380   56.2930 C.3   118  ILE118      0.0020
    154  CD1      -16.4150   48.6290   57.6390 C.3   118  ILE118      0.0001
    155  N        -12.9300   46.4720   55.9200 N.am  119  LEU119     -0.1980
    156  CA       -11.6870   47.0990   55.4900 C.3   119  LEU119      0.1596
    157  C        -10.5450   46.9080   56.4820 C.2   119  LEU119      0.2287
    158  O        -10.7660   46.5700   57.6460 O.2   119  LEU119     -0.2864
    159  CB       -11.9100   48.5880   55.2130 C.3   119  LEU119      0.0297
    160  CG       -12.3770   49.4490   56.3860 C.3   119  LEU119      0.0022
    161  CD1      -11.1900   49.9320   57.2020 C.3   119  LEU119      0.0001
    162  CD2      -13.2120   50.6160   55.8850 C.3   119  LEU119      0.0001
    163  N         -5.8490   52.4980   53.4170 N.3   126  TRP126     -0.1241
    164  CA        -6.9380   51.5900   53.7360 C.3   126  TRP126      0.1605
    165  C         -7.3820   50.8300   52.4990 C.2   126  TRP126      0.2264
    166  O         -7.5210   51.4120   51.4250 O.2   126  TRP126     -0.2867
    167  CB        -8.1290   52.3650   54.3000 C.3   126  TRP126      0.0550
    168  CG        -7.8030   53.2060   55.4940 C.ar  126  TRP126      0.0003
    169  CD1       -7.5610   54.5460   55.5080 C.ar  126  TRP126      0.0946
    170  CD2       -7.6850   52.7620   56.8510 C.ar  126  TRP126      0.0152
    171  NE1       -7.3000   54.9650   56.7880 N.ar  126  TRP126     -0.2442
    172  CE2       -7.3690   53.8880   57.6330 C.ar  126  TRP126      0.0810
    173  CE3       -7.8170   51.5200   57.4810 C.ar  126  TRP126      0.0012
    174  CZ2       -7.1830   53.8140   59.0120 C.ar  126  TRP126      0.0191
    175  CZ3       -7.6330   51.4470   58.8500 C.ar  126  TRP126      0.0001
    176  CH2       -7.3200   52.5870   59.6000 C.ar  126  TRP126      0.0015
    177  N        -20.6540   50.7510   49.3920 N.3   135  TRP135     -0.1241
    178  CA       -20.5690   51.9290   50.2550 C.3   135  TRP135      0.1605
    179  C        -19.2440   51.9610   51.0120 C.2   135  TRP135      0.2264
    180  O        -18.7190   53.0310   51.3170 O.2   135  TRP135     -0.2867
    181  CB       -21.7580   52.0370   51.2180 C.3   135  TRP135      0.0550
    182  CG       -21.9000   50.9130   52.2070 C.ar  135  TRP135      0.0003
    183  CD1      -22.7550   49.8520   52.1210 C.ar  135  TRP135      0.0946
    184  CD2      -21.1870   50.7530   53.4390 C.ar  135  TRP135      0.0152
    185  NE1      -22.6140   49.0390   53.2160 N.ar  135  TRP135     -0.2442
    186  CE2      -21.6560   49.5680   54.0410 C.ar  135  TRP135      0.0810
    187  CE3      -20.1930   51.4910   54.0880 C.ar  135  TRP135      0.0012
    188  CZ2      -21.1670   49.1050   55.2610 C.ar  135  TRP135      0.0191
    189  CZ3      -19.7080   51.0290   55.2990 C.ar  135  TRP135      0.0001
    190  CH2      -20.1950   49.8470   55.8730 C.ar  135  TRP135      0.0015
    191  N        -16.3770   54.9020   51.5010 N.3   139  ALA139     -0.1245
    192  CA       -15.7340   55.1620   52.7830 C.3   139  ALA139      0.1562
    193  C        -14.2120   55.1310   52.6520 C.2   139  ALA139      0.2260
    194  O        -13.5130   55.9460   53.2580 O.2   139  ALA139     -0.2867
    195  CB       -16.1990   54.1530   53.8170 C.3   139  ALA139      0.0290
    196  N        -11.6050   58.0040   53.7080 N.3   143  LEU143     -0.1245
    197  CA       -10.5310   57.6410   54.6330 C.3   143  LEU143      0.1561
    198  C         -9.1470   57.9330   54.0630 C.2   143  LEU143      0.2260
    199  O         -8.3240   58.5760   54.7100 O.2   143  LEU143     -0.2867
    200  CB       -10.6130   56.1590   55.0120 C.3   143  LEU143      0.0270
    201  CG       -11.7730   55.6860   55.8870 C.3   143  LEU143      0.0019
    202  CD1      -11.6360   54.2040   56.2000 C.3   143  LEU143      0.0001
    203  CD2      -11.8400   56.4950   57.1670 C.3   143  LEU143      0.0001
    204  N         -7.3570   61.3590   54.2020 N.3   146  ASP146     -0.1239
    205  CA        -6.7080   61.7710   55.4390 C.3   146  ASP146      0.1674
    206  C         -5.2910   61.2120   55.5450 C.2   146  ASP146      0.2266
    207  O         -5.0570   60.2120   56.2210 O.2   146  ASP146     -0.2867
    208  CB        -7.5460   61.3190   56.6370 C.3   146  ASP146      0.1410
    209  CG        -7.0450   61.8820   57.9510 C.2   146  ASP146      0.3668
    210  OD1       -5.8640   62.2800   58.0210 O.co2 146  ASP146     -0.2456
    211  OD2       -7.8340   61.9210   58.9180 O.co2 146  ASP146     -0.2456
    212  N         -2.8550   62.4010   57.1210 N.3   148  TRP148     -0.1227
    213  CA        -2.3690   62.5270   58.4900 C.3   148  TRP148      0.1737
    214  C         -2.6540   61.2470   59.2740 C.2   148  TRP148      0.2596
    215  O         -1.7420   60.6330   59.8350 O.2   148  TRP148     -0.2718
    216  CB        -3.0080   63.7320   59.1900 C.3   148  TRP148      0.0564
    217  CG        -2.3590   64.0730   60.5050 C.ar  148  TRP148      0.0003
    218  CD1       -1.3560   64.9750   60.7140 C.ar  148  TRP148      0.0946
    219  CD2       -2.6650   63.5110   61.7890 C.ar  148  TRP148      0.0152
    220  NE1       -1.0200   65.0080   62.0450 N.ar  148  TRP148     -0.2442
    221  CE2       -1.8090   64.1200   62.7260 C.ar  148  TRP148      0.0810
    222  CE3       -3.5790   62.5510   62.2350 C.ar  148  TRP148      0.0012
    223  CZ2       -1.8390   63.8050   64.0830 C.ar  148  TRP148      0.0191
    224  CZ3       -3.6090   62.2370   63.5850 C.ar  148  TRP148      0.0001
    225  CH2       -2.7440   62.8630   64.4930 C.ar  148  TRP148      0.0015
    226  N         -3.9220   60.8480   59.3010 N.am  149  THR149     -0.1953
    227  CA        -4.3280   59.6440   60.0140 C.3   149  THR149      0.1897
    228  C         -3.5680   58.4250   59.5050 C.2   149  THR149      0.2313
    229  O         -3.0890   57.6100   60.2950 O.2   149  THR149     -0.2863
    230  CB        -5.8420   59.3930   59.8950 C.3   149  THR149      0.1794
    231  OG1       -6.5590   60.4750   60.5010 O.3   149  THR149     -0.2208
    232  CG2       -6.2200   58.1010   60.5950 C.3   149  THR149      0.0378
    233  N         -0.1230   58.3010   60.7300 N.3   152  THR152     -0.1203
    234  CA        -0.2380   58.0160   62.1550 C.3   152  THR152      0.1994
    235  C         -0.4230   56.5190   62.3880 C.2   152  THR152      0.2617
    236  O          0.3510   55.8890   63.1110 O.2   152  THR152     -0.2717
    237  CB        -1.4200   58.7710   62.7900 C.3   152  THR152      0.1784
    238  OG1       -1.1860   60.1820   62.7130 O.3   152  THR152     -0.2211
    239  CG2       -1.5920   58.3660   64.2480 C.3   152  THR152      0.0376
    240  N         -1.4560   55.9550   61.7720 N.am  153  VAL153     -0.1979
    241  CA        -1.7180   54.5280   61.8800 C.3   153  VAL153      0.1595
    242  C         -0.5080   53.7120   61.4370 C.2   153  VAL153      0.2287
    243  O         -0.1330   52.7420   62.0920 O.2   153  VAL153     -0.2864
    244  CB        -2.9410   54.1170   61.0480 C.3   153  VAL153      0.0276
    245  CG1       -2.9820   52.6060   60.8750 C.3   153  VAL153      0.0022
    246  CG2       -4.2200   54.6320   61.6950 C.3   153  VAL153      0.0022
    247  N          2.1290   53.9250   64.2710 N.3   156  LEU156     -0.1245
    248  CA         1.7560   53.0950   65.4070 C.3   156  LEU156      0.1561
    249  C          2.0490   51.6220   65.1270 C.2   156  LEU156      0.2260
    250  O          2.6720   50.9360   65.9390 O.2   156  LEU156     -0.2867
    251  CB         0.2750   53.2800   65.7300 C.3   156  LEU156      0.0270
    252  CG        -0.1660   54.6680   66.1940 C.3   156  LEU156      0.0019
    253  CD1       -1.6860   54.7510   66.2530 C.3   156  LEU156      0.0001
    254  CD2        0.4410   54.9870   67.5470 C.3   156  LEU156      0.0001
@<TRIPOS>BOND
     1   177   178    1
     2   178   179    1
     3   178   181    1
     4   179   180    2
     5   181   182    1
     6   166   165    2
     7   191   192    1
     8    86    84    1
     9   183   182   ar
    10   183   185   ar
    11   182   184   ar
    12   165   164    1
    13   193   192    1
    14   193   194    2
    15   192   195    1
    16   185   186   ar
    17    82    81    2
    18   163   164    1
    19   184   186   ar
    20   184   187   ar
    21    84    85    1
    22    84    83    1
    23    80    83    1
    24    80    81    1
    25    80    79    1
    26   196   197    1
    27   164   167    1
    28   150   149    2
    29   186   188   ar
    30   198   197    1
    31   198   199    2
    32   187   189   ar
    33   204   205    1
    34   167   168    1
    35   197   200    1
    36   200   201    1
    37   149   148    1
    38   149   155   am
    39   159   156    1
    40   159   160    1
    41   188   190   ar
    42   189   190   ar
    43   205   206    1
    44   205   208    1
    45   156   155    1
    46   156   157    1
    47   168   169   ar
    48   168   170   ar
    49   169   171   ar
    50   206   207    2
    51    71    69   ar
    52    71    73   ar
    53   148   151    1
    54   148   147    1
    55    94    92    1
    56   162   160    1
    57   201   202    1
    58   201   203    1
    59   151   153    1
    60   151   152    1
    61    69    68   ar
    62   160   161    1
    63    73    72   ar
    64    87    88    1
    65    92    93    1
    66    92    91    1
    67   157   158    2
    68    66    65    2
    69   208   209    1
    70   171   172   ar
    71   170   173   ar
    72   170   172   ar
    73   212   213    1
    74    88    91    1
    75    88    89    1
    76   152   154    1
    77    68    67    1
    78    68    70   ar
    79    77    76    2
    80   173   175   ar
    81   172   174   ar
    82    65    64    1
    83    65    74   am
    84    64    67    1
    85    64    63    1
    86    72    70   ar
    87   209   210   ar
    88   209   211   ar
    89    76    75    1
    90    89    90    2
    91   143   145   ar
    92   143   141   ar
    93   213   216    1
    94   213   214    1
    95   145   146   ar
    96    74    75    1
    97   175   176   ar
    98    75    78    1
    99   174   176   ar
   100   216   217    1
   101   140   141    1
   102   140   137    1
   103   214   226   am
   104   214   215    2
   105   226   227    1
   106   141   142   ar
   107   132   131    2
   108   228   227    1
   109   228   229    2
   110   146   144   ar
   111   121   120    2
   112   134   133    1
   113   139   138    2
   114   230   227    1
   115   230   231    1
   116   230   232    1
   117   136   137    1
   118   142   144   ar
   119   137   138    1
   120   217   218   ar
   121   217   219   ar
   122   131   130    1
   123   129   130    1
   124   218   220   ar
   125   233   234    1
   126    51    50    2
   127   120   119    1
   128   135   133    1
   129   245   244    1
   130   133   130    1
   131   244   246    1
   132   244   241    1
   133   118   119    1
   134    59    58    2
   135   122   119    1
   136   122   123    1
   137   242   241    1
   138   242   243    2
   139    55    53   ar
   140   240   241    1
   141   240   235   am
   142   219   222   ar
   143   219   221   ar
   144   124   123   ar
   145   124   126   ar
   146    50    49    1
   147    50    56   am
   148    53    54   ar
   149    53    52    1
   150   102   100    1
   151   110   108    1
   152   123   125   ar
   153   220   221   ar
   154   234   235    1
   155   234   237    1
   156    58    57    1
   157    52    49    1
   158   222   224   ar
   159    49    48    1
   160   235   236    2
   161    57    56    1
   162    57    60    1
   163   126   128   ar
   164   238   237    1
   165   101   100    1
   166   221   223   ar
   167   237   239    1
   168   125   127   ar
   169   100    99    1
   170   108   109    1
   171   108   107    1
   172    40    39    2
   173   128   127   ar
   174    61    60    1
   175   224   225   ar
   176    60    62    1
   177    48    39   am
   178    99    96    1
   179    47    45    1
   180   223   225   ar
   181    39    38    1
   182    44    45    2
   183    44    43    1
   184   247   248    1
   185    96    95    1
   186    96    97    1
   187   107   104    1
   188    35    36   ar
   189    35    33   ar
   190   104   103    1
   191   104   105    1
   192    45    46    1
   193    43    42    1
   194   117   115    1
   195   116   115    1
   196    29    28    2
   197    36    34   ar
   198   249   248    1
   199   249   250    2
   200    33    31   ar
   201    97    98    2
   202    23    22    2
   203   112   115    1
   204   112   111    1
   205   112   113    1
   206   248   251    1
   207    42    41    1
   208    38    41    1
   209    38    37    1
   210   105   106    2
   211   251   252    1
   212    27    28    1
   213    27    26    1
   214    27    30    1
   215   113   114    2
   216    34    32   ar
   217    31    32   ar
   218    31    30    1
   219    22    26   am
   220    22    21    1
   221   252   253    1
   222   252   254    1
   223    19    18    1
   224    24    21    1
   225    24    25    1
   226    16    18   ar
   227    16    14   ar
   228    21    20    1
   229    18    17   ar
   230    14    13   ar
   231    17    15   ar
   232    11    10    2
   233    13    15   ar
   234    13    12    1
   235     9    12    1
   236     9    10    1
   237     9     8    1
   238     4     3    2
   239     6     5    1
   240     8     3   am
   241     3     2    1
   242     5     2    1
   243     5     7    1
   244     2     1    1
