@<TRIPOS>MOLECULE
tmp/3u0sB00.pdb
 151 142 0 0 0
SMALL
GASTEIGER

@<TRIPOS>ATOM
      1  N         53.7150  -36.8910    9.6840 N.3    39  SER39      -0.1217
      2  CA        53.6860  -36.8520   11.1620 C.3    39  SER39       0.1889
      3  C         54.0600  -38.1920   11.7720 C.2    39  SER39       0.2288
      4  O         54.9190  -38.2550   12.6500 O.2    39  SER39      -0.2866
      5  CB        52.3250  -36.4310   11.7230 C.3    39  SER39       0.2089
      6  OG        51.9810  -35.1460   11.2680 O.3    39  SER39      -0.2183
      7  N         57.6510  -38.9520   11.4970 N.3    42  LEU42      -0.1231
      8  CA        58.4260  -38.0940   12.4040 C.3    42  LEU42       0.1693
      9  C         58.4240  -38.5110   13.8670 C.2    42  LEU42       0.2592
     10  O         59.3260  -38.1420   14.6060 O.2    42  LEU42      -0.2718
     11  CB        57.9740  -36.6380   12.3120 C.3    42  LEU42       0.0284
     12  CG        58.4720  -35.8680   11.0990 C.3    42  LEU42       0.0019
     13  CD1       57.6460  -34.6320   10.9270 C.3    42  LEU42       0.0001
     14  CD2       59.9710  -35.5610   11.2130 C.3    42  LEU42       0.0001
     15  N         57.4180  -39.2770   14.2870 N.am   43  THR43      -0.1953
     16  CA        57.3000  -39.6620   15.7040 C.3    43  THR43       0.1897
     17  C         57.8500  -41.0360   16.0780 C.2    43  THR43       0.2313
     18  O         57.5820  -41.5140   17.1690 O.2    43  THR43      -0.2863
     19  CB        55.8390  -39.6210   16.1830 C.3    43  THR43       0.1794
     20  OG1       55.1120  -40.7000   15.5760 O.3    43  THR43      -0.2208
     21  CG2       55.2010  -38.2780   15.8550 C.3    43  THR43       0.0378
     22  N         48.1490  -30.4260    7.6680 N.3    87  ILE87      -0.1245
     23  CA        47.9850  -30.6750    9.0880 C.3    87  ILE87       0.1561
     24  C         46.6710  -30.0590    9.5340 C.2    87  ILE87       0.2260
     25  O         45.6910  -30.7760    9.6680 O.2    87  ILE87      -0.2867
     26  CB        49.1800  -30.1380    9.9320 C.3    87  ILE87       0.0252
     27  CG1       50.5090  -30.8010    9.5090 C.3    87  ILE87       0.0019
     28  CG2       48.9170  -30.3100   11.4300 C.3    87  ILE87       0.0019
     29  CD1       50.6460  -32.2990    9.9030 C.3    87  ILE87       0.0001
     30  N         52.5830  -28.5550    5.3190 N.3   103  MET103     -0.1245
     31  CA        53.9990  -28.4630    5.6440 C.3   103  MET103      0.1570
     32  C         54.9120  -28.4740    4.4440 C.2   103  MET103      0.2261
     33  O         56.0640  -28.1600    4.5770 O.2   103  MET103     -0.2867
     34  CB        54.3810  -29.5630    6.6260 C.3   103  MET103      0.0387
     35  CG        53.8760  -29.2300    8.0120 C.3   103  MET103      0.0595
     36  SD        54.8260  -29.9590    9.3360 S.3   103  MET103     -0.1393
     37  CE        54.5980  -31.7280    9.0420 C.3   103  MET103      0.0692
     38  N         51.5780  -25.6280    9.6150 N.3   133  ALA133     -0.1231
     39  CA        50.9300  -26.7380   10.3040 C.3   133  ALA133      0.1694
     40  C         49.5150  -26.4250   10.8310 C.2   133  ALA133      0.2592
     41  O         48.5640  -27.1560   10.5180 O.2   133  ALA133     -0.2718
     42  CB        51.8210  -27.3030   11.3940 C.3   133  ALA133      0.0304
     43  N         49.3670  -25.3500   11.6040 N.am  134  TYR134     -0.1976
     44  CA        48.0620  -25.0310   12.2310 C.3   134  TYR134      0.1639
     45  C         47.6370  -23.6130   11.8740 C.2   134  TYR134      0.2290
     46  O         48.4900  -22.7490   11.5910 O.2   134  TYR134     -0.2864
     47  CB        48.1160  -25.1910   13.7570 C.3   134  TYR134      0.0560
     48  CG        48.5670  -26.5590   14.2390 C.ar  134  TYR134     -0.0198
     49  CD1       47.6350  -27.5180   14.6480 C.ar  134  TYR134     -0.0009
     50  CD2       49.9260  -26.8900   14.3040 C.ar  134  TYR134     -0.0009
     51  CE1       48.0440  -28.7950   15.1140 C.ar  134  TYR134      0.0417
     52  CE2       50.3520  -28.1510   14.7570 C.ar  134  TYR134      0.0417
     53  CZ        49.4050  -29.0990   15.1550 C.ar  134  TYR134      0.1957
     54  OH        49.8170  -30.3360   15.6210 O.3   134  TYR134     -0.2866
     55  N         56.0330  -24.5290   11.2130 N.3   148  PRO148     -0.2116
     56  CA        57.1980  -25.1720   11.8230 C.3   148  PRO148      0.1372
     57  C         58.2150  -25.6960   10.8050 C.2   148  PRO148      0.2244
     58  O         59.3600  -25.9410   11.1650 O.2   148  PRO148     -0.2868
     59  CB        56.5880  -26.3510   12.5920 C.3   148  PRO148      0.0268
     60  CG        55.3430  -26.6790   11.8410 C.3   148  PRO148      0.0207
     61  CD        54.8280  -25.3680   11.2750 C.3   148  PRO148      0.0892
     62  N         62.3440  -29.3430    9.3290 N.3   159  ILE159     -0.1245
     63  CA        61.4070  -29.0270   10.3830 C.3   159  ILE159      0.1561
     64  C         62.1590  -28.6140   11.6160 C.2   159  ILE159      0.2260
     65  O         63.2260  -29.1510   11.8970 O.2   159  ILE159     -0.2867
     66  CB        60.3850  -30.1710   10.6690 C.3   159  ILE159      0.0252
     67  CG1       59.3320  -29.6970   11.6810 C.3   159  ILE159      0.0019
     68  CG2       61.0890  -31.4690   11.1350 C.3   159  ILE159      0.0019
     69  CD1       58.1120  -30.5830   11.7520 C.3   159  ILE159      0.0001
     70  N         62.1840  -28.9600   14.8200 N.3   161  LEU161     -0.1245
     71  CA        62.1510  -29.7240   16.0620 C.3   161  LEU161      0.1561
     72  C         63.3220  -29.4420   17.0110 C.2   161  LEU161      0.2260
     73  O         63.1600  -29.5520   18.2270 O.2   161  LEU161     -0.2867
     74  CB        62.1150  -31.2190   15.7640 C.3   161  LEU161      0.0270
     75  CG        60.9440  -31.7270   14.9400 C.3   161  LEU161      0.0019
     76  CD1       61.1780  -33.1900   14.6780 C.3   161  LEU161      0.0001
     77  CD2       59.5960  -31.4810   15.6390 C.3   161  LEU161      0.0001
     78  N         59.5630  -25.2790   16.5710 N.3   186  CYS186     -0.1221
     79  CA        58.3980  -26.0980   16.2970 C.3   186  CYS186      0.1794
     80  C         57.0990  -25.4940   16.8600 C.2   186  CYS186      0.2443
     81  O         56.4770  -26.0670   17.7560 O.2   186  CYS186     -0.2733
     82  CB        58.6110  -27.5400   16.7970 C.3   186  CYS186      0.0970
     83  SG        57.2670  -28.6900   16.2730 S.3   186  CYS186     -0.0800
     84  N         56.6750  -24.3370   16.3220 N.am  187  PRO187     -0.2718
     85  CA        55.3740  -23.8120   16.7010 C.3   187  PRO187      0.1535
     86  C         54.3010  -24.8040   16.2640 C.2   187  PRO187      0.2598
     87  O         54.4610  -25.5030   15.2640 O.2   187  PRO187     -0.2715
     88  CB        55.2720  -22.5330   15.8790 C.3   187  PRO187      0.0310
     89  CG        56.1110  -22.7660   14.7200 C.3   187  PRO187      0.0237
     90  CD        57.2510  -23.5920   15.1900 C.3   187  PRO187      0.0939
     91  N         53.2290  -24.8900   17.0280 N.am  188  ALA188     -0.1978
     92  CA        52.2090  -25.8890   16.7870 C.3   188  ALA188      0.1597
     93  C         50.8660  -25.1710   16.7790 C.2   188  ALA188      0.2287
     94  O         50.6550  -24.2890   15.9540 O.2   188  ALA188     -0.2864
     95  CB        52.2570  -26.9590   17.8500 C.3   188  ALA188      0.0319
     96  N         56.0650  -26.2580   20.8990 N.3   208  GLN208     -0.1245
     97  CA        55.8620  -27.6070   21.3900 C.3   208  GLN208      0.1566
     98  C         56.9500  -28.1410   22.3380 C.2   208  GLN208      0.2260
     99  O         56.6490  -28.3800   23.5070 O.2   208  GLN208     -0.2867
    100  CB        55.5970  -28.5790   20.2360 C.3   208  GLN208      0.0367
    101  CG        55.1360  -29.9290   20.7160 C.3   208  GLN208      0.0905
    102  CD        54.6960  -30.7990   19.5780 C.2   208  GLN208      0.2608
    103  OE1       53.5010  -30.8970   19.2870 O.2   208  GLN208     -0.2717
    104  NE2       55.6570  -31.3920   18.8820 N.am  208  GLN208     -0.0878
    105  N         58.7430  -36.4240   25.6080 N.3   238  LYS238     -0.1231
    106  CA        58.8730  -36.0360   24.2160 C.3   238  LYS238      0.1693
    107  C         57.4770  -35.6380   23.7630 C.2   238  LYS238      0.2592
    108  O         56.5140  -36.3970   23.9290 O.2   238  LYS238     -0.2718
    109  CB        59.3710  -37.2180   23.3890 C.3   238  LYS238      0.0285
    110  CG        59.6850  -36.8780   21.9490 C.3   238  LYS238      0.0035
    111  CD        61.2070  -36.9080   21.6780 C.3   238  LYS238      0.0206
    112  CE        61.5700  -36.3640   20.2690 C.3   238  LYS238      0.1093
    113  NZ        61.2700  -34.8800   20.0930 N.3   238  LYS238     -0.1314
    114  N         57.3590  -34.4370   23.2120 N.am  239  GLY239     -0.1957
    115  CA        56.0550  -33.9200   22.8350 C.3   239  GLY239      0.1869
    116  C         55.7850  -32.5940   23.4890 C.2   239  GLY239      0.2309
    117  O         56.7150  -31.8640   23.8080 O.2   239  GLY239     -0.2863
    118  N         50.1430  -29.3170   21.0820 N.3   242  ALA242     -0.1245
    119  CA        49.9200  -29.4810   19.6560 C.3   242  ALA242      0.1562
    120  C         48.7110  -28.6280   19.2580 C.2   242  ALA242      0.2260
    121  O         48.7930  -27.4040   19.2900 O.2   242  ALA242     -0.2867
    122  CB        49.7140  -30.9740   19.3080 C.3   242  ALA242      0.0290
    123  N         50.4680  -33.6900   23.5440 N.3   257  TRP257     -0.1241
    124  CA        50.9460  -34.9220   22.9250 C.3   257  TRP257      0.1605
    125  C         52.0380  -35.5780   23.7470 C.2   257  TRP257      0.2264
    126  O         53.0710  -34.9640   23.9930 O.2   257  TRP257     -0.2867
    127  CB        51.4990  -34.5490   21.5690 C.3   257  TRP257      0.0550
    128  CG        51.6470  -35.6230   20.6040 C.ar  257  TRP257      0.0003
    129  CD1       50.8120  -35.9000   19.5650 C.ar  257  TRP257      0.0946
    130  CD2       52.7280  -36.5640   20.5190 C.ar  257  TRP257      0.0152
    131  NE1       51.2930  -36.9660   18.8430 N.ar  257  TRP257     -0.2442
    132  CE2       52.4690  -37.3920   19.4030 C.ar  257  TRP257      0.0810
    133  CE3       53.8840  -36.7950   21.2840 C.ar  257  TRP257      0.0012
    134  CZ2       53.3230  -38.4310   19.0280 C.ar  257  TRP257      0.0191
    135  CZ3       54.7330  -37.8220   20.9150 C.ar  257  TRP257      0.0001
    136  CH2       54.4420  -38.6370   19.7960 C.ar  257  TRP257      0.0015
    137  N         46.4520  -35.1750   19.7480 N.3   284  ALA284     -0.1245
    138  CA        47.1780  -34.4240   18.7380 C.3   284  ALA284      0.1562
    139  C         46.4440  -33.1550   18.3640 C.2   284  ALA284      0.2260
    140  O         47.0570  -32.0980   18.1940 O.2   284  ALA284     -0.2867
    141  CB        47.4060  -35.2760   17.5050 C.3   284  ALA284      0.0290
    142  N         47.6230  -40.1290   18.1820 N.3   300  HIS300     -0.1241
    143  CA        48.5740  -40.9040   17.4150 C.3   300  HIS300      0.1621
    144  C         49.0040  -42.1810   18.1340 C.2   300  HIS300      0.2264
    145  O         49.9310  -42.8450   17.6800 O.2   300  HIS300     -0.2867
    146  CB        49.8000  -40.0650   17.0440 C.3   300  HIS300      0.0745
    147  CG        49.4820  -38.7960   16.3000 C.ar  300  HIS300      0.0817
    148  ND1       48.3150  -38.6110   15.5830 N.ar  300  HIS300     -0.2268
    149  CD2       50.2080  -37.6640   16.1240 C.ar  300  HIS300      0.1154
    150  CE1       48.3280  -37.4140   15.0200 C.ar  300  HIS300      0.1986
    151  NE2       49.4670  -36.8230   15.3280 N.ar  300  HIS300     -0.2212
@<TRIPOS>BOND
     1    32    33    2
     2    32    31    1
     3    30    31    1
     4    31    34    1
     5    34    35    1
     6    22    23    1
     7    35    36    1
     8    37    36    1
     9    23    24    1
    10    23    26    1
    11    62    63    1
    12    27    29    1
    13    27    26    1
    14    24    25    2
    15    38    39    1
    16     1     2    1
    17    26    28    1
    18    39    40    1
    19    39    42    1
    20    63    66    1
    21    63    64    1
    22    41    40    2
    23    66    68    1
    24    66    67    1
    25    57    58    2
    26    57    56    1
    27    40    43   am
    28    13    12    1
    29    12    14    1
    30    12    11    1
    31     2     5    1
    32     2     3    1
    33    55    61    1
    34    55    56    1
    35     6     5    1
    36    61    60    1
    37     7     8    1
    38    46    45    2
    39    43    44    1
    40    64    65    2
    41    67    69    1
    42     3     4    2
    43    56    59    1
    44    60    59    1
    45    45    44    1
    46    44    47    1
    47    11     8    1
    48     8     9    1
    49    47    48    1
    50     9    15   am
    51     9    10    2
    52    48    50   ar
    53    48    49   ar
    54    15    16    1
    55    50    52   ar
    56    49    51   ar
    57    76    75    1
    58    89    90    1
    59    89    88    1
    60    52    53   ar
    61    70    71    1
    62    75    77    1
    63    75    74    1
    64   150   151   ar
    65   150   148   ar
    66    51    53   ar
    67    53    54    1
    68    90    84    1
    69    87    86    2
    70   151   149   ar
    71    20    19    1
    72   148   147   ar
    73    16    17    1
    74    16    19    1
    75    74    71    1
    76    21    19    1
    77    88    85    1
    78    94    93    2
    79    71    72    1
    80    17    18    2
    81   149   147   ar
    82    86    85    1
    83    86    91   am
    84    83    82    1
    85    79    78    1
    86    79    82    1
    87    79    80    1
    88   147   146    1
    89    84    85    1
    90    84    80   am
    91    93    92    1
    92    92    91    1
    93    92    95    1
    94    80    81    2
    95    72    73    2
    96   146   143    1
    97   143   144    1
    98   143   142    1
    99   141   138    1
   100   145   144    2
   101   140   139    2
   102   139   138    1
   103   138   137    1
   104   131   132   ar
   105   131   129   ar
   106   104   102   am
   107   134   132   ar
   108   134   136   ar
   109   120   121    2
   110   120   119    1
   111   103   102    2
   112   122   119    1
   113   132   130   ar
   114   129   128   ar
   115   102   101    1
   116   119   118    1
   117   136   135   ar
   118   113   112    1
   119   100   101    1
   120   100    97    1
   121   112   111    1
   122   130   128   ar
   123   130   133   ar
   124   128   127    1
   125    96    97    1
   126   135   133   ar
   127    97    98    1
   128   127   124    1
   129   111   110    1
   130   110   109    1
   131    98    99    2
   132   115   114    1
   133   115   116    1
   134   124   123    1
   135   124   125    1
   136   114   107   am
   137   109   106    1
   138   116   117    2
   139   125   126    2
   140   107   108    2
   141   107   106    1
   142   106   105    1
