@<TRIPOS>MOLECULE
tmp/3u0tE00.pdb
 70 68 0 0 0
SMALL
GASTEIGER

@<TRIPOS>ATOM
      1  N        -27.4600   -3.4780    6.3780 N.3   152  VAL152     -0.1231
      2  CA       -28.7060   -2.7830    6.6190 C.3   152  VAL152      0.1692
      3  C        -28.6400   -2.0260    7.9120 C.2   152  VAL152      0.2593
      4  O        -28.1730   -2.5540    8.8970 O.2   152  VAL152     -0.2718
      5  CB       -29.8780   -3.7520    6.7120 C.3   152  VAL152      0.0266
      6  CG1      -31.1830   -2.9920    6.8900 C.3   152  VAL152      0.0020
      7  CG2      -29.9300   -4.5980    5.4960 C.3   152  VAL152      0.0020
      8  N        -29.0790   -0.7710    7.9020 N.am  153  SER153     -0.1938
      9  CA       -29.3570   -0.0430    9.1450 C.3   153  SER153      0.2055
     10  C        -30.7210    0.7010    9.0840 C.2   153  SER153      0.2643
     11  O        -31.4230    0.7120    8.0420 O.2   153  SER153     -0.2714
     12  CB       -28.2090    0.8960    9.4750 C.3   153  SER153      0.2130
     13  OG       -28.1550    1.9530    8.5560 O.3   153  SER153     -0.2179
     14  N        -31.0980    1.2790   10.2170 N.am  154  TRP154     -0.1973
     15  CA       -32.3390    2.0060   10.3100 C.3   154  TRP154      0.1640
     16  C        -32.1070    3.4300   10.7430 C.2   154  TRP154      0.2290
     17  O        -31.2910    3.7050   11.6130 O.2   154  TRP154     -0.2864
     18  CB       -33.2980    1.2990   11.2590 C.3   154  TRP154      0.0576
     19  CG       -33.8360    0.0330   10.6890 C.ar  154  TRP154      0.0006
     20  CD1      -33.2370   -1.1980   10.7170 C.ar  154  TRP154      0.0946
     21  CD2      -35.0610   -0.1410    9.9910 C.ar  154  TRP154      0.0152
     22  NE1      -34.0200   -2.1250   10.0970 N.ar  154  TRP154     -0.2442
     23  CE2      -35.1580   -1.5150    9.6570 C.ar  154  TRP154      0.0810
     24  CE3      -36.1100    0.7200    9.6360 C.ar  154  TRP154      0.0012
     25  CZ2      -36.2580   -2.0510    8.9650 C.ar  154  TRP154      0.0191
     26  CZ3      -37.2080    0.1890    8.9480 C.ar  154  TRP154      0.0001
     27  CH2      -37.2670   -1.1920    8.6160 C.ar  154  TRP154      0.0015
     28  N        -28.6820    4.8500   11.5730 N.3   157  GLY157     -0.1225
     29  CA       -27.9030    4.3510   12.6820 C.3   157  GLY157      0.1811
     30  C        -28.4030    4.8440   14.0150 C.2   157  GLY157      0.2280
     31  O        -27.8970    4.4300   15.0400 O.2   157  GLY157     -0.2866
     32  N        -31.3740    4.2320   15.1140 N.3   159  LEU159     -0.1231
     33  CA       -32.2960    3.2000   15.6060 C.3   159  LEU159      0.1693
     34  C        -31.5810    1.8400   15.6170 C.2   159  LEU159      0.2593
     35  O        -31.1970    1.3290   14.5580 O.2   159  LEU159     -0.2718
     36  CB       -33.5430    3.1330   14.7370 C.3   159  LEU159      0.0284
     37  CG       -34.6380    2.1750   15.1920 C.3   159  LEU159      0.0019
     38  CD1      -34.9510    2.3620   16.6750 C.3   159  LEU159      0.0001
     39  CD2      -35.8780    2.4060   14.3440 C.3   159  LEU159      0.0001
     40  N        -31.4000    1.2940   16.8210 N.am  160  THR160     -0.1939
     41  CA       -30.6980    0.0450   17.0520 C.3   160  THR160      0.2028
     42  C        -31.4770   -0.8840   17.9960 C.2   160  THR160      0.2643
     43  O        -31.4140   -2.0920   17.8550 O.2   160  THR160     -0.2714
     44  CB       -29.2930    0.3370   17.6330 C.3   160  THR160      0.1808
     45  OG1      -29.4070    1.2440   18.7420 O.3   160  THR160     -0.2208
     46  CG2      -28.3830    0.9670   16.5660 C.3   160  THR160      0.0379
     47  N        -32.2180   -0.3360   18.9460 N.am  161  SER161     -0.1935
     48  CA       -33.0010   -1.1660   19.8620 C.3   161  SER161      0.2055
     49  C        -34.1540   -1.8780   19.1380 C.2   161  SER161      0.2644
     50  O        -34.9590   -1.2250   18.4560 O.2   161  SER161     -0.2714
     51  CB       -33.5950   -0.3120   20.9990 C.3   161  SER161      0.2130
     52  OG       -32.5990    0.0740   21.9150 O.3   161  SER161     -0.2179
     53  N        -34.2570   -3.1930   19.3450 N.am  162  GLY162     -0.1939
     54  CA       -35.3070   -4.0010   18.7380 C.3   162  GLY162      0.2014
     55  C        -35.1430   -4.2210   17.2310 C.2   162  GLY162      0.2638
     56  O        -36.1250   -4.4460   16.5450 O.2   162  GLY162     -0.2714
     57  N        -33.9050   -4.1770   16.7310 N.am  163  VAL163     -0.1977
     58  CA       -33.6180   -4.3750   15.3410 C.3   163  VAL163      0.1596
     59  C        -33.0260   -5.7370   15.1570 C.2   163  VAL163      0.2287
     60  O        -32.0630   -6.0790   15.8260 O.2   163  VAL163     -0.2864
     61  CB       -32.5350   -3.4160   14.8270 C.3   163  VAL163      0.0276
     62  CG1      -32.0270   -3.8950   13.5160 C.3   163  VAL163      0.0022
     63  CG2      -33.0550   -1.9920   14.6930 C.3   163  VAL163      0.0022
     64  N        -31.6600   -8.0860   11.9430 N.3   165  THR165     -0.1218
     65  CA       -31.3570   -8.2860   10.5400 C.3   165  THR165      0.1862
     66  C        -30.9340   -9.7340   10.4320 C.2   165  THR165      0.2287
     67  O        -30.0880  -10.2010   11.1850 O.2   165  THR165     -0.2866
     68  CB       -30.2730   -7.2950   10.0150 C.3   165  THR165      0.1770
     69  OG1      -30.7660   -5.9470   10.1030 O.3   165  THR165     -0.2211
     70  CG2      -29.9470   -7.5470    8.5730 C.3   165  THR165      0.0375
@<TRIPOS>BOND
     1     7     5    1
     2     1     2    1
     3     2     5    1
     4     2     3    1
     5     5     6    1
     6     8     3   am
     7     8     9    1
     8     3     4    2
     9    11    10    2
    10    13    12    1
    11    70    68    1
    12    27    26   ar
    13    27    25   ar
    14    26    24   ar
    15    25    23   ar
    16    10     9    1
    17    10    14   am
    18     9    12    1
    19    24    21   ar
    20    23    21   ar
    21    23    22   ar
    22    21    19   ar
    23    68    69    1
    24    68    65    1
    25    22    20   ar
    26    14    15    1
    27    15    16    1
    28    15    18    1
    29    66    65    1
    30    66    67    2
    31    65    64    1
    32    19    20   ar
    33    19    18    1
    34    16    17    2
    35    28    29    1
    36    29    30    1
    37    62    61    1
    38    30    31    2
    39    39    37    1
    40    35    34    2
    41    63    61    1
    42    36    37    1
    43    36    33    1
    44    61    58    1
    45    32    33    1
    46    59    58    1
    47    59    60    2
    48    37    38    1
    49    58    57    1
    50    33    34    1
    51    34    40   am
    52    56    55    2
    53    46    44    1
    54    57    55   am
    55    40    41    1
    56    41    44    1
    57    41    42    1
    58    55    54    1
    59    44    45    1
    60    43    42    2
    61    42    47   am
    62    50    49    2
    63    54    53    1
    64    47    48    1
    65    49    53   am
    66    49    48    1
    67    48    51    1
    68    51    52    1
