@<TRIPOS>MOLECULE
tmp/3u0xA00.pdb
 111 107 0 0 0
SMALL
GASTEIGER

@<TRIPOS>ATOM
      1  N         -8.1060  -44.3350   18.7220 N.3   149  ASP149     -0.1239
      2  CA        -7.0860  -43.9900   19.7080 C.3   149  ASP149      0.1674
      3  C         -6.0820  -42.9970   19.1260 C.2   149  ASP149      0.2266
      4  O         -5.7680  -43.0240   17.9280 O.2   149  ASP149     -0.2867
      5  CB        -6.3410  -45.2430   20.1840 C.3   149  ASP149      0.1410
      6  CG        -7.1510  -46.0870   21.1770 C.2   149  ASP149      0.3668
      7  OD1       -8.3020  -45.7290   21.4980 O.co2 149  ASP149     -0.2456
      8  OD2       -6.6270  -47.1220   21.6400 O.co2 149  ASP149     -0.2456
      9  N         -2.8220  -42.6820   20.1280 N.3   151  ASP151     -0.1225
     10  CA        -1.4400  -43.1670   20.1250 C.3   151  ASP151      0.1805
     11  C         -1.2030  -44.0680   18.9100 C.2   151  ASP151      0.2597
     12  O         -0.8850  -45.2610   19.0240 O.2   151  ASP151     -0.2718
     13  CB        -1.0800  -43.8480   21.4540 C.3   151  ASP151      0.1424
     14  CG        -2.0270  -44.9850   21.8170 C.2   151  ASP151      0.3668
     15  OD1       -3.2270  -44.9140   21.4780 O.co2 151  ASP151     -0.2456
     16  OD2       -1.5660  -45.9640   22.4360 O.co2 151  ASP151     -0.2456
     17  N         -1.3590  -43.4530   17.7440 N.am  152  MET152     -0.1979
     18  CA        -1.4610  -44.1470   16.4700 C.3   152  MET152      0.1605
     19  C         -0.8880  -43.2610   15.3910 C.2   152  MET152      0.2287
     20  O         -0.8450  -42.0410   15.5480 O.2   152  MET152     -0.2864
     21  CB        -2.9330  -44.4170   16.1330 C.3   152  MET152      0.0413
     22  CG        -3.6550  -45.3540   17.0970 C.3   152  MET152      0.0598
     23  SD        -3.1250  -47.0760   16.9700 S.3   152  MET152     -0.1393
     24  CE        -3.4720  -47.4630   15.2370 C.3   152  MET152      0.0692
     25  N         -9.8670  -57.1640   15.5870 N.3   171  HIS171     -0.1227
     26  CA        -8.7560  -57.0450   16.5310 C.3   171  HIS171      0.1737
     27  C         -7.5870  -57.8890   16.0250 C.2   171  HIS171      0.2438
     28  O         -7.7720  -59.0320   15.6140 O.2   171  HIS171     -0.2733
     29  CB        -9.2150  -57.5450   17.9060 C.3   171  HIS171      0.0758
     30  CG        -8.2590  -57.2560   19.0270 C.ar  171  HIS171      0.0818
     31  ND1       -6.9900  -57.7920   19.0890 N.ar  171  HIS171     -0.2268
     32  CD2       -8.4110  -56.5190   20.1550 C.ar  171  HIS171      0.1154
     33  CE1       -6.4000  -57.3940   20.2030 C.ar  171  HIS171      0.1986
     34  NE2       -7.2410  -56.6180   20.8660 N.ar  171  HIS171     -0.2212
     35  N         -6.3760  -57.3220   16.0260 N.am  172  PRO172     -0.2718
     36  CA        -5.2100  -58.0340   15.4760 C.3   172  PRO172      0.1535
     37  C         -4.8360  -59.3470   16.1900 C.2   172  PRO172      0.2599
     38  O         -4.2200  -60.2060   15.5600 O.2   172  PRO172     -0.2715
     39  CB        -4.0740  -57.0070   15.5920 C.3   172  PRO172      0.0310
     40  CG        -4.5580  -55.9820   16.5450 C.3   172  PRO172      0.0237
     41  CD        -6.0520  -55.9410   16.4140 C.3   172  PRO172      0.0939
     42  N         -5.2100  -59.5170   17.4550 N.am  173  SER173     -0.1950
     43  CA        -4.8460  -60.7380   18.1710 C.3   173  SER173      0.1924
     44  C         -5.7660  -61.9050   17.8630 C.2   173  SER173      0.2314
     45  O         -5.4110  -63.0510   18.1310 O.2   173  SER173     -0.2863
     46  CB        -4.8320  -60.5090   19.6930 C.3   173  SER173      0.2116
     47  OG        -3.8700  -59.5400   20.0570 O.3   173  SER173     -0.2180
     48  N        -11.9260  -54.5660   17.7670 N.3   204  MET204     -0.1245
     49  CA       -11.0910  -53.7740   18.6760 C.3   204  MET204      0.1570
     50  C        -11.7460  -52.4470   19.0080 C.2   204  MET204      0.2261
     51  O        -12.3220  -51.7930   18.1390 O.2   204  MET204     -0.2867
     52  CB        -9.6620  -53.5350   18.1500 C.3   204  MET204      0.0387
     53  CG        -8.7660  -52.7450   19.1810 C.3   204  MET204      0.0595
     54  SD        -7.0370  -53.2040   19.0860 S.3   204  MET204     -0.1393
     55  CE        -6.4620  -52.6960   20.7030 C.3   204  MET204      0.0692
     56  N        -10.4530  -49.6770   19.6070 N.3   206  ALA206     -0.1245
     57  CA        -9.6750  -48.5070   19.1560 C.3   206  ALA206      0.1562
     58  C         -9.9820  -47.9830   17.7480 C.2   206  ALA206      0.2260
     59  O         -9.3180  -47.0480   17.2860 O.2   206  ALA206     -0.2867
     60  CB        -8.1770  -48.7960   19.2570 C.3   206  ALA206      0.0290
     61  N         -5.7010  -51.6490   11.8260 N.3   262  LEU262     -0.1231
     62  CA        -5.3290  -51.4980   13.2260 C.3   262  LEU262      0.1693
     63  C         -4.2930  -52.5580   13.5700 C.2   262  LEU262      0.2592
     64  O         -4.6280  -53.7150   13.7810 O.2   262  LEU262     -0.2718
     65  CB        -6.5740  -51.6610   14.0960 C.3   262  LEU262      0.0284
     66  CG        -6.6050  -51.1180   15.5200 C.3   262  LEU262      0.0019
     67  CD1       -6.3210  -49.6170   15.5530 C.3   262  LEU262      0.0001
     68  CD2       -7.9710  -51.4230   16.1140 C.3   262  LEU262      0.0001
     69  N         -3.0290  -52.1650   13.6140 N.am  263  TRP263     -0.1962
     70  CA        -1.9700  -53.1520   13.7440 C.3   263  TRP263      0.1771
     71  C         -0.8670  -52.6650   14.6720 C.2   263  TRP263      0.2619
     72  O         -0.7420  -51.4700   14.9230 O.2   263  TRP263     -0.2715
     73  CB        -1.4070  -53.4780   12.3560 C.3   263  TRP263      0.0590
     74  CG        -0.6100  -54.7420   12.3540 C.ar  263  TRP263      0.0006
     75  CD1        0.7400  -54.8540   12.2780 C.ar  263  TRP263      0.0946
     76  CD2       -1.1210  -56.0760   12.4610 C.ar  263  TRP263      0.0152
     77  NE1        1.1120  -56.1720   12.3210 N.ar  263  TRP263     -0.2442
     78  CE2       -0.0110  -56.9470   12.4410 C.ar  263  TRP263      0.0810
     79  CE3       -2.4080  -56.6190   12.5660 C.ar  263  TRP263      0.0012
     80  CZ2       -0.1450  -58.3310   12.5260 C.ar  263  TRP263      0.0191
     81  CZ3       -2.5420  -57.9950   12.6530 C.ar  263  TRP263      0.0001
     82  CH2       -1.4190  -58.8350   12.6300 C.ar  263  TRP263      0.0015
     83  N         -0.0820  -53.5990   15.1920 N.am  264  ASP264     -0.1971
     84  CA         1.1130  -53.2700   15.9720 C.3   264  ASP264      0.1709
     85  C          2.2140  -54.2310   15.5470 C.2   264  ASP264      0.2293
     86  O          2.2430  -55.3800   15.9940 O.2   264  ASP264     -0.2864
     87  CB         0.8360  -53.4230   17.4650 C.3   264  ASP264      0.1436
     88  CG         2.0210  -52.9960   18.3370 C.2   264  ASP264      0.3671
     89  OD1        3.1640  -52.9480   17.8430 O.co2 264  ASP264     -0.2456
     90  OD2        1.8030  -52.7100   19.5260 O.co2 264  ASP264     -0.2456
     91  N          4.6180  -56.0350   18.1010 N.3   267  LEU267     -0.1231
     92  CA         4.0170  -57.1600   18.8080 C.3   267  LEU267      0.1693
     93  C          3.7120  -58.3640   17.9200 C.2   267  LEU267      0.2591
     94  O          3.8430  -59.5030   18.3620 O.2   267  LEU267     -0.2718
     95  CB         2.7250  -56.7250   19.5060 C.3   267  LEU267      0.0284
     96  CG         2.8120  -55.7610   20.6860 C.3   267  LEU267      0.0019
     97  CD1        1.4130  -55.5410   21.2530 C.3   267  LEU267      0.0001
     98  CD2        3.7590  -56.2930   21.7540 C.3   267  LEU267      0.0001
     99  N          3.2930  -58.1210   16.6800 N.am  268  LEU268     -0.1980
    100  CA         2.7320  -59.1970   15.8700 C.3   268  LEU268      0.1596
    101  C          3.4460  -59.4480   14.5540 C.2   268  LEU268      0.2287
    102  O          3.0220  -60.3010   13.7770 O.2   268  LEU268     -0.2864
    103  CB         1.2570  -58.9030   15.5680 C.3   268  LEU268      0.0297
    104  CG         0.4030  -58.6290   16.8030 C.3   268  LEU268      0.0022
    105  CD1       -0.9530  -58.0450   16.4020 C.3   268  LEU268      0.0001
    106  CD2        0.2450  -59.9020   17.6240 C.3   268  LEU268      0.0001
    107  N          0.1360  -48.7160   15.8500 N.3   281  ALA281     -0.1245
    108  CA         0.3900  -48.1990   17.1930 C.3   281  ALA281      0.1562
    109  C          1.7130  -47.4450   17.2390 C.2   281  ALA281      0.2260
    110  O          2.6840  -47.8150   16.5640 O.2   281  ALA281     -0.2867
    111  CB         0.3910  -49.3360   18.1930 C.3   281  ALA281      0.0290
@<TRIPOS>BOND
     1    61    62    1
     2    75    77   ar
     3    75    74   ar
     4    77    78   ar
     5    74    73    1
     6    74    76   ar
     7    73    70    1
     8    78    76   ar
     9    78    80   ar
    10    76    79   ar
    11    80    82   ar
    12    79    81   ar
    13    82    81   ar
    14    62    63    1
    15    62    65    1
    16    63    69   am
    17    63    64    2
    18    69    70    1
    19    70    71    1
    20   102   101    2
    21    65    66    1
    22   101   100    1
    23    71    72    2
    24    71    83   am
    25    83    84    1
    26    24    23    1
    27    19    20    2
    28    19    18    1
    29    36    39    1
    30    36    35    1
    31    36    37    1
    32    66    67    1
    33    66    68    1
    34    85    84    1
    35    85    86    2
    36    38    37    2
    37   103   100    1
    38   103   104    1
    39    25    26    1
    40    39    40    1
    41    28    27    2
    42   107   108    1
    43   100    99    1
    44    84    87    1
    45    27    35   am
    46    27    26    1
    47    35    41    1
    48    21    18    1
    49    21    22    1
    50    37    42   am
    51   105   104    1
    52    41    40    1
    53    18    17    1
    54    26    29    1
    55   110   109    2
    56    99    93   am
    57   104   106    1
    58    23    22    1
    59   108   109    1
    60   108   111    1
    61    59    58    2
    62    42    43    1
    63    87    88    1
    64    17    11   am
    65    58    57    1
    66    48    49    1
    67    89    88   ar
    68    44    45    2
    69    44    43    1
    70    29    30    1
    71    93    94    2
    72    93    92    1
    73     4     3    2
    74    91    92    1
    75    51    50    2
    76    52    49    1
    77    52    53    1
    78    43    46    1
    79    88    90   ar
    80    49    50    1
    81     1     2    1
    82    92    95    1
    83    11    12    2
    84    11    10    1
    85    30    31   ar
    86    30    32   ar
    87    54    53    1
    88    54    55    1
    89    31    33   ar
    90     3     2    1
    91    57    60    1
    92    57    56    1
    93    95    96    1
    94    46    47    1
    95     2     5    1
    96    10     9    1
    97    10    13    1
    98    32    34   ar
    99     5     6    1
   100    33    34   ar
   101    96    97    1
   102    96    98    1
   103     6     7   ar
   104     6     8   ar
   105    13    14    1
   106    15    14   ar
   107    14    16   ar
