@<TRIPOS>MOLECULE
tmp/3u14B00.pdb
 250 244 0 0 0
SMALL
GASTEIGER

@<TRIPOS>ATOM
      1  N         -0.0450   -5.3800   52.0040 N.3    21  TRP21      -0.1241
      2  CA         0.7950   -4.9300   50.9000 C.3    21  TRP21       0.1605
      3  C          2.0650   -4.2290   51.3910 C.2    21  TRP21       0.2264
      4  O          2.0130   -3.4350   52.3240 O.2    21  TRP21      -0.2867
      5  CB        -0.0280   -3.9800   50.0300 C.3    21  TRP21       0.0550
      6  CG         0.7570   -3.0040   49.2240 C.ar   21  TRP21       0.0003
      7  CD1        1.2160   -1.7830   49.6270 C.ar   21  TRP21       0.0946
      8  CD2        1.1370   -3.1440   47.8520 C.ar   21  TRP21       0.0152
      9  NE1        1.8710   -1.1590   48.5950 N.ar   21  TRP21      -0.2442
     10  CE2        1.8440   -1.9770   47.4940 C.ar   21  TRP21       0.0810
     11  CE3        0.9610   -4.1490   46.8950 C.ar   21  TRP21       0.0012
     12  CZ2        2.3790   -1.7910   46.2220 C.ar   21  TRP21       0.0191
     13  CZ3        1.4930   -3.9650   45.6360 C.ar   21  TRP21       0.0001
     14  CH2        2.1820   -2.7900   45.3050 C.ar   21  TRP21       0.0015
     15  N          5.3560   -1.8640   49.6640 N.3    23  ASN23      -0.1225
     16  CA         6.2400   -1.3800   48.6150 C.3    23  ASN23       0.1785
     17  C          7.5990   -0.9150   49.1630 C.2    23  ASN23       0.2597
     18  O          8.2730   -1.7100   49.8330 O.2    23  ASN23      -0.2718
     19  CB         5.5630   -0.4400   47.6030 C.3    23  ASN23       0.1169
     20  CG         4.8640    0.7180   48.2560 C.2    23  ASN23       0.2627
     21  OD1        3.8420    0.5550   48.9240 O.2    23  ASN23      -0.2716
     22  ND2        5.4040    1.9020   48.0600 N.am   23  ASN23      -0.0877
     23  N          7.9930    0.3340   48.9060 N.am   24  ALA24      -0.1979
     24  CA         9.3680    0.7800   49.1660 C.3    24  ALA24       0.1597
     25  C          9.9070    0.5490   50.5950 C.2    24  ALA24       0.2287
     26  O          9.2120    0.8310   51.5740 O.2    24  ALA24      -0.2864
     27  CB         9.5350    2.2450   48.7740 C.3    24  ALA24       0.0319
     28  N          6.9180    0.8840   53.3030 N.3    42  GLN42      -0.1245
     29  CA         5.5890    1.3240   52.8970 C.3    42  GLN42       0.1566
     30  C          4.6430    0.1480   53.0490 C.2    42  GLN42       0.2260
     31  O          4.8360   -0.9070   52.4220 O.2    42  GLN42      -0.2867
     32  CB         5.6050    1.7990   51.4500 C.3    42  GLN42       0.0367
     33  CG         6.3840    3.0760   51.2320 C.3    42  GLN42       0.0905
     34  CD         5.7860    4.2250   52.0060 C.2    42  GLN42       0.2608
     35  OE1        6.0500    4.3880   53.1980 O.2    42  GLN42      -0.2717
     36  NE2        4.9720    5.0270   51.3370 N.am   42  GLN42      -0.0878
     37  N         -2.8590   -4.5500   48.2380 N.3    49  ALA49      -0.1231
     38  CA        -2.7580   -3.5380   47.1980 C.3    49  ALA49       0.1694
     39  C         -2.3680   -2.2210   47.8550 C.2    49  ALA49       0.2592
     40  O         -2.6320   -2.0260   49.0480 O.2    49  ALA49      -0.2718
     41  CB        -4.1000   -3.3930   46.4800 C.3    49  ALA49       0.0304
     42  N         -1.7490   -1.3200   47.0940 N.am   50  TRP50      -0.1962
     43  CA        -1.4290    0.0120   47.6090 C.3    50  TRP50       0.1771
     44  C         -2.7400    0.7260   48.0250 C.2    50  TRP50       0.2620
     45  O         -3.7790    0.5700   47.3800 O.2    50  TRP50      -0.2715
     46  CB        -0.6500    0.8220   46.5580 C.3    50  TRP50       0.0590
     47  CG        -0.0620    2.1060   47.0910 C.ar   50  TRP50       0.0006
     48  CD1        1.2070    2.2880   47.5860 C.ar   50  TRP50       0.0946
     49  CD2       -0.7180    3.3760   47.1990 C.ar   50  TRP50       0.0152
     50  NE1        1.3740    3.5870   47.9910 N.ar   50  TRP50      -0.2442
     51  CE2        0.2140    4.2810   47.7650 C.ar   50  TRP50       0.0810
     52  CE3       -2.0060    3.8390   46.8800 C.ar   50  TRP50       0.0012
     53  CZ2       -0.0990    5.6320   48.0210 C.ar   50  TRP50       0.0191
     54  CZ3       -2.3230    5.1930   47.1380 C.ar   50  TRP50       0.0001
     55  CH2       -1.3660    6.0680   47.7040 C.ar   50  TRP50       0.0015
     56  N         -2.6990    1.4780   49.1170 N.am   51  GLY51      -0.1954
     57  CA        -3.8540    2.2560   49.5530 C.3    51  GLY51       0.1869
     58  C         -3.5710    3.0240   50.8360 C.2    51  GLY51       0.2309
     59  O         -2.6800    2.6530   51.6080 O.2    51  GLY51      -0.2863
     60  N         -1.6430    4.7010   54.7930 N.3    54  LEU54      -0.1245
     61  CA        -0.3950    3.9810   54.5610 C.3    54  LEU54       0.1561
     62  C          0.5810    4.2250   55.7030 C.2    54  LEU54       0.2260
     63  O          0.7640    5.3590   56.1560 O.2    54  LEU54      -0.2867
     64  CB         0.2240    4.3940   53.2290 C.3    54  LEU54       0.0270
     65  CG         1.3180    3.5200   52.6120 C.3    54  LEU54       0.0019
     66  CD1        0.7550    2.2070   52.1170 C.3    54  LEU54       0.0001
     67  CD2        1.9440    4.2890   51.4700 C.3    54  LEU54       0.0001
     68  N          4.5760    8.3470   53.7570 N.3    84  PHE84      -0.1227
     69  CA         5.2550    7.8980   52.5540 C.3    84  PHE84       0.1736
     70  C          6.7160    7.6160   52.8990 C.2    84  PHE84       0.2596
     71  O          7.0690    7.5250   54.0750 O.2    84  PHE84      -0.2718
     72  CB         5.1160    8.9350   51.4280 C.3    84  PHE84       0.0547
     73  CG         3.8650    8.7740   50.6020 C.ar   84  PHE84      -0.0202
     74  CD1        2.7700    8.0630   51.0900 C.ar   84  PHE84      -0.0042
     75  CD2        3.7760    9.3580   49.3390 C.ar   84  PHE84      -0.0042
     76  CE1        1.6110    7.9040   50.3280 C.ar   84  PHE84      -0.0003
     77  CE2        2.6200    9.2140   48.5630 C.ar   84  PHE84      -0.0003
     78  CZ         1.5340    8.4820   49.0630 C.ar   84  PHE84      -0.0000
     79  N          7.5570    7.4940   51.8820 N.am   85  SER85      -0.1952
     80  CA         8.9140    6.9820   52.0830 C.3    85  SER85       0.1924
     81  C          9.7650    7.8910   52.9420 C.2    85  SER85       0.2314
     82  O          9.4880    9.0900   53.0690 O.2    85  SER85      -0.2863
     83  CB         9.6110    6.7010   50.7460 C.3    85  SER85       0.2116
     84  OG         9.0400    5.5810   50.0990 O.3    85  SER85      -0.2180
     85  N          2.5190   17.2290   49.7210 N.3   121  GLN121     -0.1245
     86  CA         3.5620   16.3410   50.2460 C.3   121  GLN121      0.1566
     87  C          4.6430   17.1790   50.9130 C.2   121  GLN121      0.2260
     88  O          5.2340   18.0610   50.2640 O.2   121  GLN121     -0.2867
     89  CB         4.1700   15.4920   49.1250 C.3   121  GLN121      0.0367
     90  CG         3.1930   14.5440   48.4720 C.3   121  GLN121      0.0905
     91  CD         3.8060   13.6540   47.3960 C.2   121  GLN121      0.2608
     92  OE1        4.8710   13.9510   46.8200 O.2   121  GLN121     -0.2717
     93  NE2        3.1290   12.5500   47.1140 N.am  121  GLN121     -0.0878
     94  N          4.1530   17.0770   44.7730 N.3   150  GLN150     -0.1245
     95  CA         5.0850   16.1300   44.1590 C.3   150  GLN150      0.1566
     96  C          6.4820   16.3990   44.7070 C.2   150  GLN150      0.2260
     97  O          7.3330   16.9700   44.0210 O.2   150  GLN150     -0.2867
     98  CB         5.0970   16.3030   42.6290 C.3   150  GLN150      0.0367
     99  CG         3.8380   15.8530   41.8920 C.3   150  GLN150      0.0905
    100  CD         3.6830   14.3420   41.8740 C.2   150  GLN150      0.2608
    101  OE1        4.6630   13.5960   41.9820 O.2   150  GLN150     -0.2717
    102  NE2        2.4530   13.8800   41.7330 N.am  150  GLN150     -0.0878
    103  N          8.9170   14.3620   47.5760 N.3   152  ARG152     -0.1231
    104  CA         8.8720   13.1380   48.3870 C.3   152  ARG152      0.1694
    105  C         10.1360   12.2910   48.3870 C.2   152  ARG152      0.2592
    106  O         10.9790   12.4260   47.5150 O.2   152  ARG152     -0.2718
    107  CB         7.6770   12.2660   47.9610 C.3   152  ARG152      0.0321
    108  CG         7.7830   11.6620   46.5470 C.3   152  ARG152      0.0489
    109  CD         6.6190   10.7160   46.3020 C.3   152  ARG152      0.2205
    110  NE         6.4760   10.3640   44.8950 N.pl3 152  ARG152     -0.0865
    111  CZ         5.9860   11.1860   43.9700 C.cat 152  ARG152      0.5346
    112  NH1        5.5820   12.4120   44.2990 N.pl3 152  ARG152      0.1354
    113  NH2        5.9110   10.7900   42.7090 N.pl3 152  ARG152      0.1354
    114  N         10.2430   11.4130   49.3840 N.am  153  ASP153     -0.1974
    115  CA        11.3340   10.4200   49.5240 C.3   153  ASP153      0.1709
    116  C         12.6870   10.9900   49.9670 C.2   153  ASP153      0.2293
    117  O         13.6610   10.9340   49.2050 O.2   153  ASP153     -0.2864
    118  CB        11.5190    9.6020   48.2450 C.3   153  ASP153      0.1436
    119  CG        10.2190    9.0550   47.7000 C.2   153  ASP153      0.3671
    120  OD1        9.2230    8.9910   48.4530 O.co2 153  ASP153     -0.2456
    121  OD2       10.2040    8.6780   46.5020 O.co2 153  ASP153     -0.2456
    122  N          8.6640    9.1750   33.6400 N.3   201  ASN201     -0.1225
    123  CA         7.5580   10.0340   34.0490 C.3   201  ASN201      0.1785
    124  C          7.9250   10.9660   35.2240 C.2   201  ASN201      0.2597
    125  O          7.5020   12.1130   35.2470 O.2   201  ASN201     -0.2718
    126  CB         6.3140    9.1760   34.3510 C.3   201  ASN201      0.1169
    127  CG         5.1430    9.9880   34.8990 C.2   201  ASN201      0.2627
    128  OD1        4.4480   10.6920   34.1510 O.2   201  ASN201     -0.2716
    129  ND2        4.9060    9.8720   36.2040 N.am  201  ASN201     -0.0877
    130  N          8.7700   10.4840   36.1370 N.am  202  GLN202     -0.1979
    131  CA         8.9180   11.0540   37.4970 C.3   202  GLN202      0.1601
    132  C         10.2360   10.6760   38.1480 C.2   202  GLN202      0.2287
    133  O         10.6190    9.5020   38.0700 O.2   202  GLN202     -0.2864
    134  CB         7.8800   10.3910   38.4010 C.3   202  GLN202      0.0394
    135  CG         6.6750   11.2160   38.7150 C.3   202  GLN202      0.0908
    136  CD         5.5850   10.4080   39.3910 C.2   202  GLN202      0.2608
    137  OE1        5.5520    9.1590   39.3340 O.2   202  GLN202     -0.2717
    138  NE2        4.6620   11.1200   40.0200 N.am  202  GLN202     -0.0878
    139  N         12.0430    9.7390   41.6300 N.3   204  GLU204     -0.1231
    140  CA        11.6760    9.2650   42.9720 C.3   204  GLU204      0.1699
    141  C         12.8810    8.6940   43.6980 C.2   204  GLU204      0.2592
    142  O         13.9380    8.4620   43.1050 O.2   204  GLU204     -0.2718
    143  CB        10.5550    8.2190   42.9100 C.3   204  GLU204      0.0402
    144  CG         9.2980    8.7020   42.1620 C.3   204  GLU204      0.1161
    145  CD         8.1090    7.7550   42.2790 C.2   204  GLU204      0.3649
    146  OE1        6.9630    8.2470   42.4610 O.co2 204  GLU204     -0.2457
    147  OE2        8.3160    6.5210   42.1890 O.co2 204  GLU204     -0.2457
    148  N         12.7080    8.4970   44.9980 N.am  205  CYS205     -0.1970
    149  CA        13.6530    7.7630   45.8340 C.3   205  CYS205      0.1712
    150  C         15.1440    8.0450   45.5570 C.2   205  CYS205      0.2296
    151  O         15.9120    7.1100   45.2550 O.2   205  CYS205     -0.2864
    152  CB        13.3260    6.2740   45.7580 C.3   205  CYS205      0.0983
    153  SG        14.2340    5.2370   46.9100 S.3   205  CYS205     -0.0798
    154  N          9.7140    6.0610   37.7560 N.3   228  ASN228     -0.1226
    155  CA         8.5190    5.2890   37.4510 C.3   228  ASN228      0.1770
    156  C          7.3240    6.2070   37.2860 C.2   228  ASN228      0.2439
    157  O          7.2330    7.2120   37.9820 O.2   228  ASN228     -0.2733
    158  CB         8.1570    4.3060   38.5590 C.3   228  ASN228      0.1168
    159  CG         6.8330    3.5980   38.2810 C.2   228  ASN228      0.2627
    160  OD1        6.7430    2.7610   37.3720 O.2   228  ASN228     -0.2716
    161  ND2        5.7960    3.9430   39.0450 N.am  228  ASN228     -0.0877
    162  N          6.4260    5.8920   36.3340 N.am  229  PRO229     -0.2729
    163  CA         6.6380    4.9460   35.2130 C.3   229  PRO229      0.1401
    164  C          7.6410    5.4910   34.1850 C.2   229  PRO229      0.2269
    165  O          8.3040    6.5180   34.4500 O.2   229  PRO229     -0.2865
    166  CB         5.2390    4.7950   34.6040 C.3   229  PRO229      0.0296
    167  CG         4.4750    5.9850   35.0610 C.3   229  PRO229      0.0237
    168  CD         5.0300    6.3530   36.4130 C.3   229  PRO229      0.0939
    169  N         13.3590   -1.8320   42.5930 N.3   267  TYR267     -0.1227
    170  CA        12.9080   -0.4410   42.6400 C.3   267  TYR267      0.1736
    171  C         12.9570    0.1980   44.0280 C.2   267  TYR267      0.2595
    172  O         12.8080   -0.4750   45.0520 O.2   267  TYR267     -0.2718
    173  CB        11.4840   -0.3060   42.0670 C.3   267  TYR267      0.0548
    174  CG        11.1340    1.1370   41.8000 C.ar  267  TYR267     -0.0200
    175  CD1       11.7800    1.8370   40.7800 C.ar  267  TYR267     -0.0009
    176  CD2       10.2010    1.8210   42.5820 C.ar  267  TYR267     -0.0009
    177  CE1       11.5000    3.1730   40.5300 C.ar  267  TYR267      0.0417
    178  CE2        9.9110    3.1850   42.3350 C.ar  267  TYR267      0.0417
    179  CZ        10.5710    3.8410   41.2960 C.ar  267  TYR267      0.1957
    180  OH        10.3440    5.1720   40.9940 O.3   267  TYR267     -0.2866
    181  N         13.1250    1.5160   44.0500 N.am  268  ALA268     -0.1980
    182  CA        13.1260    2.2910   45.2980 C.3   268  ALA268      0.1597
    183  C         14.2350    1.8050   46.2240 C.2   268  ALA268      0.2287
    184  O         14.0140    1.5530   47.4180 O.2   268  ALA268     -0.2864
    185  CB        11.7500    2.2380   45.9820 C.3   268  ALA268      0.0319
    186  N         12.8100   -2.6800   46.7970 N.3   284  TRP284     -0.1241
    187  CA        11.5300   -3.3760   46.6340 C.3   284  TRP284      0.1605
    188  C         11.5890   -4.2140   45.3550 C.2   284  TRP284      0.2264
    189  O         11.8200   -3.6810   44.2680 O.2   284  TRP284     -0.2867
    190  CB        10.4040   -2.3400   46.5560 C.3   284  TRP284      0.0550
    191  CG         9.0510   -2.8690   46.1930 C.ar  284  TRP284      0.0003
    192  CD1        8.3960   -3.9450   46.7470 C.ar  284  TRP284      0.0946
    193  CD2        8.1530   -2.3130   45.2300 C.ar  284  TRP284      0.0152
    194  NE1        7.1640   -4.1020   46.1600 N.ar  284  TRP284     -0.2442
    195  CE2        6.9860   -3.1140   45.2310 C.ar  284  TRP284      0.0810
    196  CE3        8.2270   -1.2270   44.3520 C.ar  284  TRP284      0.0012
    197  CZ2        5.9030   -2.8520   44.4020 C.ar  284  TRP284      0.0191
    198  CZ3        7.1480   -0.9700   43.5210 C.ar  284  TRP284      0.0001
    199  CH2        6.0000   -1.7830   43.5470 C.ar  284  TRP284      0.0015
    200  N          6.0910   -1.6070   39.4350 N.3   288  TRP288     -0.1227
    201  CA         4.7750   -0.9630   39.6270 C.3   288  TRP288      0.1737
    202  C          3.7190   -1.3150   38.5630 C.2   288  TRP288      0.2595
    203  O          2.5170   -1.1780   38.8140 O.2   288  TRP288     -0.2718
    204  CB         4.9130    0.5510   39.6830 C.3   288  TRP288      0.0564
    205  CG         5.2630    1.1090   41.0140 C.ar  288  TRP288      0.0003
    206  CD1        6.4510    1.6850   41.3750 C.ar  288  TRP288      0.0946
    207  CD2        4.4120    1.1930   42.1570 C.ar  288  TRP288      0.0152
    208  NE1        6.3910    2.1180   42.6750 N.ar  288  TRP288     -0.2442
    209  CE2        5.1540    1.8220   43.1830 C.ar  288  TRP288      0.0810
    210  CE3        3.0930    0.7890   42.4230 C.ar  288  TRP288      0.0012
    211  CZ2        4.6250    2.0480   44.4600 C.ar  288  TRP288      0.0191
    212  CZ3        2.5640    1.0260   43.6850 C.ar  288  TRP288      0.0001
    213  CH2        3.3280    1.6490   44.6900 C.ar  288  TRP288      0.0015
    214  N          4.1490   -1.7440   37.3790 N.am  289  GLN289     -0.1979
    215  CA         3.1970   -2.1100   36.3170 C.3   289  GLN289      0.1601
    216  C          2.2460   -3.2440   36.7430 C.2   289  GLN289      0.2287
    217  O          1.0790   -3.2480   36.3570 O.2   289  GLN289     -0.2864
    218  CB         3.9340   -2.5510   35.0560 C.3   289  GLN289      0.0394
    219  CG         4.4260   -1.4290   34.1720 C.3   289  GLN289      0.0908
    220  CD         5.3640   -1.9310   33.0810 C.2   289  GLN289      0.2608
    221  OE1        6.0940   -2.9140   33.2710 O.2   289  GLN289     -0.2717
    222  NE2        5.3660   -1.2420   31.9380 N.am  289  GLN289     -0.0878
    223  N          0.7770   -5.2200   42.0860 N.3   292  ASP292     -0.1225
    224  CA        -0.4680   -5.4220   42.8180 C.3   292  ASP292      0.1805
    225  C         -1.3730   -6.5260   42.2350 C.2   292  ASP292      0.2597
    226  O         -2.5190   -6.7110   42.6860 O.2   292  ASP292     -0.2718
    227  CB        -1.2250   -4.0930   42.9370 C.3   292  ASP292      0.1424
    228  CG        -1.7950   -3.5940   41.6030 C.2   292  ASP292      0.3668
    229  OD1       -2.7330   -2.7850   41.6430 O.co2 292  ASP292     -0.2456
    230  OD2       -1.3380   -3.9820   40.5120 O.co2 292  ASP292     -0.2456
    231  N         -0.8680   -7.2750   41.2560 N.am  293  GLN293     -0.1979
    232  CA        -1.6950   -8.2680   40.5710 C.3   293  GLN293      0.1601
    233  C         -1.1150   -9.6720   40.5860 C.2   293  GLN293      0.2287
    234  O         -1.8090  -10.6230   40.2230 O.2   293  GLN293     -0.2864
    235  CB        -1.9720   -7.8310   39.1310 C.3   293  GLN293      0.0394
    236  CG        -2.6450   -6.4560   39.0120 C.3   293  GLN293      0.0908
    237  CD        -4.0490   -6.4590   39.6200 C.2   293  GLN293      0.2608
    238  OE1       -4.7480   -7.4720   39.5510 O.2   293  GLN293     -0.2717
    239  NE2       -4.4560   -5.3400   40.2260 N.am  293  GLN293     -0.0878
    240  N         -2.7420   -7.3460   33.9490 N.3   425  ARG425     -0.1245
    241  CA        -1.6200   -6.5120   33.5220 C.3   425  ARG425      0.1563
    242  C         -0.3520   -7.2860   33.2200 C.2   425  ARG425      0.2260
    243  O          0.7450   -6.7240   33.2410 O.2   425  ARG425     -0.2867
    244  CB        -1.3570   -5.3850   34.5150 C.3   425  ARG425      0.0307
    245  CG        -2.6170   -4.6510   34.8770 C.3   425  ARG425      0.0489
    246  CD        -2.3660   -3.2040   35.0710 C.3   425  ARG425      0.2205
    247  NE        -2.8080   -2.7550   36.3890 N.pl3 425  ARG425     -0.0865
    248  CZ        -4.0440   -2.8780   36.8730 C.cat 425  ARG425      0.5346
    249  NH1       -5.0090   -3.4430   36.1630 N.pl3 425  ARG425      0.1354
    250  NH2       -4.3060   -2.4230   38.0850 N.pl3 425  ARG425      0.1354
@<TRIPOS>BOND
     1   222   220   am
     2   220   221    2
     3   220   219    1
     4   242   243    2
     5   242   241    1
     6   241   240    1
     7   241   244    1
     8   122   123    1
     9   123   126    1
    10   123   124    1
    11   128   127    2
    12   219   218    1
    13   164   165    2
    14   164   163    1
    15   126   127    1
    16   244   245    1
    17   166   167    1
    18   166   163    1
    19   245   246    1
    20   127   129   am
    21   218   215    1
    22   167   168    1
    23   246   247    1
    24   163   162    1
    25   124   125    2
    26   124   130   am
    27   130   131    1
    28   249   248    1
    29   215   216    1
    30   215   214    1
    31   162   168    1
    32   162   156   am
    33   217   216    2
    34   247   248    2
    35   248   250    1
    36   156   155    1
    37   156   157    2
    38   160   159    2
    39   214   202   am
    40   155   154    1
    41   155   158    1
    42   131   132    1
    43   131   134    1
    44   133   132    2
    45   159   158    1
    46   159   161   am
    47   134   135    1
    48   202   203    2
    49   202   201    1
    50   135   136    1
    51   236   235    1
    52   236   237    1
    53   235   232    1
    54   137   136    2
    55   136   138   am
    56   200   201    1
    57   238   237    2
    58   237   239   am
    59   201   204    1
    60   204   205    1
    61   234   233    2
    62   230   228   ar
    63   177   175   ar
    64   177   179   ar
    65   232   233    1
    66   232   231    1
    67   175   174   ar
    68   180   179    1
    69   205   206   ar
    70   205   207   ar
    71   231   225   am
    72   179   178   ar
    73   206   208   ar
    74   228   229   ar
    75   228   227    1
    76   139   140    1
    77   102   100   am
    78   174   173    1
    79   174   176   ar
    80   100    99    1
    81   100   101    2
    82    99    98    1
    83   173   170    1
    84   223   224    1
    85   207   210   ar
    86   207   209   ar
    87   144   145    1
    88   144   143    1
    89   147   145   ar
    90   225   226    2
    91   225   224    1
    92   145   146   ar
    93   178   176   ar
    94   210   212   ar
    95   169   170    1
    96    98    95    1
    97   170   171    1
    98   208   209   ar
    99   113   111    1
   100   224   227    1
   101   143   140    1
   102   140   141    1
   103   142   141    2
   104   209   211   ar
   105   198   199   ar
   106   198   196   ar
   107   199   197   ar
   108   212   213   ar
   109   141   148   am
   110   111   112    1
   111   111   110    2
   112    97    96    2
   113   171   181   am
   114   171   172    2
   115   181   182    1
   116    95    96    1
   117    95    94    1
   118   189   188    2
   119   196   193   ar
   120   197   195   ar
   121   211   213   ar
   122   110   109    1
   123   148   149    1
   124   193   195   ar
   125   193   191   ar
   126   195   194   ar
   127   151   150    2
   128   182   185    1
   129   182   183    1
   130    14    13   ar
   131    14    12   ar
   132   188   187    1
   133   150   149    1
   134    13    11   ar
   135   152   149    1
   136   152   153    1
   137   194   192   ar
   138   191   190    1
   139   191   192   ar
   140    12    10   ar
   141   183   184    2
   142   109   108    1
   143    41    38    1
   144   121   119   ar
   145   108   107    1
   146   190   187    1
   147    46    47    1
   148    46    43    1
   149   187   186    1
   150    92    91    2
   151    52    54   ar
   152    52    49   ar
   153    11     8   ar
   154    47    49   ar
   155    47    48   ar
   156    42    43    1
   157    42    39   am
   158    93    91   am
   159    54    55   ar
   160    38    39    1
   161    38    37    1
   162    49    51   ar
   163    45    44    2
   164    91    90    1
   165    10     8   ar
   166    10     9   ar
   167   106   105    2
   168   103   104    1
   169    48    50   ar
   170    19    20    1
   171    19    16    1
   172    43    44    1
   173   119   118    1
   174   119   120   ar
   175    55    53   ar
   176    51    50   ar
   177    51    53   ar
   178     8     6   ar
   179    39    40    2
   180   107   104    1
   181    44    56   am
   182    22    20   am
   183   118   115    1
   184    20    21    2
   185   104   105    1
   186   105   114   am
   187    90    89    1
   188    77    78   ar
   189    77    75   ar
   190     9     7   ar
   191    16    17    1
   192    16    15    1
   193    27    24    1
   194    23    17   am
   195    23    24    1
   196    78    76   ar
   197    56    57    1
   198    89    86    1
   199    17    18    2
   200    24    25    1
   201   117   116    2
   202     6     7   ar
   203     6     5    1
   204    75    73   ar
   205   114   115    1
   206   115   116    1
   207    57    58    1
   208    85    86    1
   209     5     2    1
   210    84    83    1
   211    86    87    1
   212    88    87    2
   213    76    74   ar
   214    25    26    2
   215    73    74   ar
   216    73    72    1
   217    83    80    1
   218    58    59    2
   219     2     3    1
   220     2     1    1
   221    33    32    1
   222    33    34    1
   223    36    34   am
   224     3     4    2
   225    72    69    1
   226    32    29    1
   227    67    65    1
   228    79    80    1
   229    79    70   am
   230    34    35    2
   231    80    81    1
   232    66    65    1
   233    31    30    2
   234    69    70    1
   235    69    68    1
   236    65    64    1
   237    29    30    1
   238    29    28    1
   239    70    71    2
   240    81    82    2
   241    64    61    1
   242    61    60    1
   243    61    62    1
   244    62    63    2
