@<TRIPOS>MOLECULE
tmp/3u15D00.pdb
 98 92 0 0 0
SMALL
GASTEIGER

@<TRIPOS>ATOM
      1  N        -45.2870   -2.1610  -16.1510 N.3    28  MET28      -0.1245
      2  CA       -44.6420   -3.4720  -15.8990 C.3    28  MET28       0.1570
      3  C        -43.3750   -3.2270  -15.0910 C.2    28  MET28       0.2261
      4  O        -42.8720   -4.0910  -14.3590 O.2    28  MET28      -0.2867
      5  CB       -44.3210   -4.1250  -17.2490 C.3    28  MET28       0.0387
      6  CG       -45.1640   -5.3230  -17.7060 C.3    28  MET28       0.0595
      7  SD       -46.8430   -5.5170  -17.0300 S.3    28  MET28      -0.1393
      8  CE       -46.5790   -6.8410  -15.8330 C.3    28  MET28       0.0692
      9  N        -44.4100   -2.2540  -11.2130 N.3    31  LEU31      -0.1231
     10  CA       -44.8360   -3.4000  -10.3740 C.3    31  LEU31       0.1693
     11  C        -43.6400   -4.2720   -9.9210 C.2    31  LEU31       0.2592
     12  O        -43.6780   -4.9080   -8.8530 O.2    31  LEU31      -0.2718
     13  CB       -45.8610   -4.2350  -11.1310 C.3    31  LEU31       0.0284
     14  CG       -46.9100   -3.5590  -11.9940 C.3    31  LEU31       0.0019
     15  CD1      -46.9000   -4.4020  -13.2560 C.3    31  LEU31       0.0001
     16  CD2      -48.3010   -3.5130  -11.3700 C.3    31  LEU31       0.0001
     17  N        -42.5610   -4.2600  -10.7050 N.am   32  GLY32      -0.1957
     18  CA       -41.3500   -5.0320  -10.3180 C.3    32  GLY32       0.1869
     19  C        -40.7810   -4.4080   -9.0380 C.2    32  GLY32       0.2309
     20  O        -40.5540   -5.1020   -8.0310 O.2    32  GLY32      -0.2863
     21  N        -43.3140   -5.0450   -5.8740 N.3    35  ILE35      -0.1231
     22  CA       -42.9730   -6.4620   -5.5080 C.3    35  ILE35       0.1692
     23  C        -41.5970   -6.5150   -4.8350 C.2    35  ILE35       0.2591
     24  O        -41.4690   -7.0500   -3.7420 O.2    35  ILE35      -0.2718
     25  CB       -43.1460   -7.4840   -6.6680 C.3    35  ILE35       0.0266
     26  CG1      -44.6320   -7.5320   -7.1480 C.3    35  ILE35       0.0019
     27  CG2      -42.6900   -8.8810   -6.2460 C.3    35  ILE35       0.0020
     28  CD1      -44.8570   -7.9890   -8.5880 C.3    35  ILE35       0.0001
     29  N        -40.6010   -5.8640   -5.4270 N.am   36  MET36      -0.1979
     30  CA       -39.2140   -5.9110   -4.9310 C.3    36  MET36       0.1605
     31  C        -38.9910   -5.0830   -3.6780 C.2    36  MET36       0.2287
     32  O        -38.2370   -5.4730   -2.7890 O.2    36  MET36      -0.2864
     33  CB       -38.2250   -5.4580   -6.0150 C.3    36  MET36       0.0413
     34  CG       -36.7830   -5.2320   -5.5440 C.3    36  MET36       0.0598
     35  SD       -35.7390   -4.7160   -6.9110 S.3    36  MET36      -0.1393
     36  CE       -36.5320   -3.1960   -7.4380 C.3    36  MET36       0.0692
     37  N        -37.7860  -17.6960   -5.8180 N.3    46  GLN46      -0.1245
     38  CA       -37.9250  -16.3200   -6.3090 C.3    46  GLN46       0.1566
     39  C        -39.0410  -15.9810   -7.3380 C.2    46  GLN46       0.2260
     40  O        -39.3660  -14.8110   -7.4950 O.2    46  GLN46      -0.2867
     41  CB       -36.5260  -15.7910   -6.6890 C.3    46  GLN46       0.0367
     42  CG       -35.4010  -15.9500   -5.6060 C.3    46  GLN46       0.0905
     43  CD       -34.8790  -14.6100   -5.0990 C.2    46  GLN46       0.2608
     44  OE1      -34.8890  -13.6460   -5.8430 O.2    46  GLN46      -0.2717
     45  NE2      -34.2440  -14.5860   -3.9370 N.am   46  GLN46      -0.0878
     46  N        -52.0680   -5.1170   -3.8800 N.3    56  LEU56      -0.1245
     47  CA       -51.9060   -5.7990   -5.1700 C.3    56  LEU56       0.1561
     48  C        -52.8150   -7.0340   -5.2360 C.2    56  LEU56       0.2260
     49  O        -53.4550   -7.3120   -6.3020 O.2    56  LEU56      -0.2867
     50  CB       -50.4510   -6.2610   -5.2990 C.3    56  LEU56       0.0270
     51  CG       -49.6210   -6.3900   -6.5960 C.3    56  LEU56       0.0019
     52  CD1      -48.3140   -7.1520   -6.2720 C.3    56  LEU56       0.0001
     53  CD2      -50.3640   -7.0120   -7.7750 C.3    56  LEU56       0.0001
     54  N        -49.3970  -15.5930   -7.5470 N.3    65  PHE65      -0.1241
     55  CA       -49.4500  -15.7560   -9.0070 C.3    65  PHE65       0.1605
     56  C        -48.0600  -16.0300   -9.5620 C.2    65  PHE65       0.2264
     57  O        -47.0820  -15.5770   -8.9530 O.2    65  PHE65      -0.2867
     58  CB       -49.9090  -14.4470   -9.6260 C.3    65  PHE65       0.0534
     59  CG       -48.8790  -13.3410   -9.5370 C.ar   65  PHE65      -0.0203
     60  CD1      -48.0270  -13.0750  -10.6180 C.ar   65  PHE65      -0.0042
     61  CD2      -48.7550  -12.5780   -8.3660 C.ar   65  PHE65      -0.0042
     62  CE1      -47.0800  -12.0690  -10.5600 C.ar   65  PHE65      -0.0003
     63  CE2      -47.8170  -11.5610   -8.3130 C.ar   65  PHE65      -0.0003
     64  CZ       -46.9450  -11.3300   -9.4060 C.ar   65  PHE65      -0.0000
     65  N        -44.7680  -15.6960  -11.6900 N.3    67  VAL67      -0.1245
     66  CA       -44.1710  -14.6300  -12.4960 C.3    67  VAL67       0.1561
     67  C        -43.6620  -15.2970  -13.8020 C.2    67  VAL67       0.2260
     68  O        -43.2370  -14.6170  -14.7470 O.2    67  VAL67      -0.2867
     69  CB       -43.1220  -13.8320  -11.6590 C.3    67  VAL67       0.0252
     70  CG1      -41.6830  -14.1690  -12.0340 C.3    67  VAL67       0.0019
     71  CG2      -43.3940  -12.3370  -11.6690 C.3    67  VAL67       0.0019
     72  N        -47.4640  -15.4880  -15.9180 N.3    70  PRO70      -0.2116
     73  CA       -47.9530  -14.2980  -15.2650 C.3    70  PRO70       0.1372
     74  C        -49.3120  -13.9910  -15.8470 C.2    70  PRO70       0.2244
     75  O        -49.4960  -12.9480  -16.4780 O.2    70  PRO70      -0.2868
     76  CB       -46.9110  -13.2580  -15.6600 C.3    70  PRO70       0.0268
     77  CG       -46.3410  -13.7530  -16.9640 C.3    70  PRO70       0.0207
     78  CD       -46.8660  -15.1450  -17.2130 C.3    70  PRO70       0.0892
     79  N        -52.1790  -11.2870  -13.7240 N.3    73  LEU73      -0.1231
     80  CA       -51.9590   -9.8390  -13.8570 C.3    73  LEU73       0.1693
     81  C        -52.4240   -9.3080  -15.1620 C.2    73  LEU73       0.2592
     82  O        -53.3310   -8.4520  -15.2240 O.2    73  LEU73      -0.2718
     83  CB       -50.4860   -9.4880  -13.8420 C.3    73  LEU73       0.0284
     84  CG       -49.5760   -9.8390  -12.7070 C.3    73  LEU73       0.0019
     85  CD1      -48.7450  -11.0110  -13.1990 C.3    73  LEU73       0.0001
     86  CD2      -48.7620   -8.5540  -12.5530 C.3    73  LEU73       0.0001
     87  N        -51.7330   -9.7720  -16.2110 N.am   74  TYR74      -0.1976
     88  CA       -52.1980   -9.5990  -17.5530 C.3    74  TYR74       0.1639
     89  C        -53.7170   -9.7190  -17.5120 C.2    74  TYR74       0.2290
     90  O        -54.4120   -8.8790  -18.0500 O.2    74  TYR74      -0.2864
     91  CB       -51.5950  -10.6680  -18.4650 C.3    74  TYR74       0.0560
     92  CG       -50.0800  -10.6840  -18.6400 C.ar   74  TYR74      -0.0198
     93  CD1      -49.2420   -9.6290  -18.1910 C.ar   74  TYR74      -0.0009
     94  CD2      -49.4750  -11.7480  -19.3160 C.ar   74  TYR74      -0.0009
     95  CE1      -47.8580   -9.6750  -18.4060 C.ar   74  TYR74       0.0417
     96  CE2      -48.1080  -11.8000  -19.5270 C.ar   74  TYR74       0.0417
     97  CZ       -47.2990  -10.7710  -19.0810 C.ar   74  TYR74       0.1957
     98  OH       -45.9320  -10.8800  -19.2940 O.3    74  TYR74      -0.2866
@<TRIPOS>BOND
     1    96    94   ar
     2    96    97   ar
     3    94    92   ar
     4    98    97    1
     5    97    95   ar
     6    92    91    1
     7    92    93   ar
     8    91    88    1
     9    95    93   ar
    10    90    89    2
    11     6     5    1
    12     6     7    1
    13    88    89    1
    14    88    87    1
    15     5     2    1
    16    78    77    1
    17    78    72    1
    18     7     8    1
    19    77    76    1
    20    75    74    2
    21    87    81   am
    22     1     2    1
    23    72    73    1
    24     2     3    1
    25    74    73    1
    26    76    73    1
    27    82    81    2
    28    81    80    1
    29     3     4    2
    30    68    67    2
    31    80    83    1
    32    80    79    1
    33    83    84    1
    34    67    66    1
    35    15    14    1
    36    85    84    1
    37    84    86    1
    38    66    65    1
    39    66    69    1
    40    70    69    1
    41    14    16    1
    42    14    13    1
    43    71    69    1
    44     9    10    1
    45    13    10    1
    46    17    18    1
    47    17    11   am
    48    60    62   ar
    49    60    59   ar
    50    62    64   ar
    51    10    11    1
    52    18    19    1
    53    11    12    2
    54    58    59    1
    55    58    55    1
    56    56    55    1
    57    56    57    2
    58    59    61   ar
    59    64    63   ar
    60    19    20    2
    61    55    54    1
    62    28    26    1
    63    61    63   ar
    64    53    51    1
    65    40    39    2
    66    36    35    1
    67    39    38    1
    68    26    25    1
    69    35    34    1
    70    41    38    1
    71    41    42    1
    72    25    27    1
    73    25    22    1
    74    51    52    1
    75    51    50    1
    76    38    37    1
    77    49    48    2
    78    33    34    1
    79    33    30    1
    80    21    22    1
    81    44    43    2
    82    42    43    1
    83    22    23    1
    84    29    30    1
    85    29    23   am
    86    50    47    1
    87    48    47    1
    88    47    46    1
    89    43    45   am
    90    30    31    1
    91    23    24    2
    92    31    32    2
