@<TRIPOS>MOLECULE
tmp/3u16B00.pdb
 170 163 0 0 0
SMALL
GASTEIGER

@<TRIPOS>ATOM
      1  N        -11.7260  -17.4740   -8.8250 N.3   107  LEU107     -0.1245
      2  CA       -10.8070  -17.6680   -7.7130 C.3   107  LEU107      0.1561
      3  C        -10.8820  -19.1280   -7.2730 C.2   107  LEU107      0.2260
      4  O        -11.9280  -19.7680   -7.3650 O.2   107  LEU107     -0.2867
      5  CB       -11.1530  -16.7460   -6.5490 C.3   107  LEU107      0.0270
      6  CG       -11.0390  -15.2550   -6.8820 C.3   107  LEU107      0.0019
      7  CD1      -11.5930  -14.4030   -5.7450 C.3   107  LEU107      0.0001
      8  CD2       -9.5850  -14.8860   -7.2150 C.3   107  LEU107      0.0001
      9  N          1.8830  -14.9650   -4.0970 N.3   234  ALA234     -0.1231
     10  CA         1.2360  -15.6010   -2.9480 C.3   234  ALA234      0.1694
     11  C         -0.2250  -15.1920   -2.7820 C.2   234  ALA234      0.2592
     12  O         -0.9890  -15.8580   -2.0670 O.2   234  ALA234     -0.2718
     13  CB         2.0170  -15.3050   -1.6600 C.3   234  ALA234      0.0304
     14  N         -0.6000  -14.0810   -3.4110 N.am  235  LEU235     -0.1966
     15  CA        -2.0010  -13.7110   -3.5160 C.3   235  LEU235      0.1713
     16  C         -2.5960  -14.5640   -4.6360 C.2   235  LEU235      0.2458
     17  O         -1.8540  -15.1420   -5.4250 O.2   235  LEU235     -0.2730
     18  CB        -2.1390  -12.2050   -3.8000 C.3   235  LEU235      0.0310
     19  CG        -1.6580  -11.2690   -2.6740 C.3   235  LEU235      0.0022
     20  CD1       -1.7950   -9.7950   -3.0670 C.3   235  LEU235      0.0001
     21  CD2       -2.4100  -11.5290   -1.3720 C.3   235  LEU235      0.0001
     22  N         -3.9280  -14.6800   -4.7020 N.am  236  PRO236     -0.2727
     23  CA        -4.5210  -15.4850   -5.7870 C.3   236  PRO236      0.1402
     24  C         -4.0600  -15.0480   -7.2030 C.2   236  PRO236      0.2269
     25  O         -4.1950  -13.8790   -7.5710 O.2   236  PRO236     -0.2865
     26  CB        -6.0240  -15.2320   -5.6210 C.3   236  PRO236      0.0296
     27  CG        -6.1850  -14.9000   -4.1370 C.3   236  PRO236      0.0237
     28  CD        -4.9420  -14.1510   -3.7700 C.3   236  PRO236      0.0939
     29  N         -6.1890  -12.6260   -9.3790 N.3   239  HIS239     -0.1226
     30  CA        -6.5920  -11.3040   -8.8960 C.3   239  HIS239      0.1752
     31  C         -5.8690  -10.2000   -9.6530 C.2   239  HIS239      0.2596
     32  O         -4.6630  -10.2960   -9.8950 O.2   239  HIS239     -0.2718
     33  CB        -6.3680  -11.1310   -7.3910 C.3   239  HIS239      0.0759
     34  CG        -7.0610   -9.9260   -6.8320 C.ar  239  HIS239      0.0818
     35  ND1       -6.6030   -8.6420   -7.0410 N.ar  239  HIS239     -0.2268
     36  CD2       -8.2000   -9.8090   -6.1050 C.ar  239  HIS239      0.1154
     37  CE1       -7.4200   -7.7860   -6.4480 C.ar  239  HIS239      0.1986
     38  NE2       -8.3980   -8.4670   -5.8760 N.ar  239  HIS239     -0.2212
     39  N         -6.6040   -9.1460  -10.0040 N.am  240  ASN240     -0.1960
     40  CA        -6.0350   -8.0440  -10.7790 C.3   240  ASN240      0.1819
     41  C         -4.6990   -7.5460  -10.2090 C.2   240  ASN240      0.2621
     42  O         -3.7700   -7.2440  -10.9610 O.2   240  ASN240     -0.2715
     43  CB        -7.0340   -6.8830  -10.8990 C.3   240  ASN240      0.1195
     44  CG        -6.7270   -5.9680  -12.0800 C.2   240  ASN240      0.2630
     45  OD1       -6.6350   -6.4250  -13.2190 O.2   240  ASN240     -0.2716
     46  ND2       -6.5910   -4.6690  -11.8130 N.am  240  ASN240     -0.0877
     47  N         -4.6130   -7.4750   -8.8820 N.am  241  PHE241     -0.1974
     48  CA        -3.4100   -7.0290   -8.1770 C.3   241  PHE241      0.1639
     49  C         -2.2270   -7.9350   -8.5260 C.2   241  PHE241      0.2290
     50  O         -1.1660   -7.4670   -8.9710 O.2   241  PHE241     -0.2864
     51  CB        -3.6870   -7.0610   -6.6620 C.3   241  PHE241      0.0560
     52  CG        -2.5940   -6.4650   -5.7980 C.ar  241  PHE241     -0.0200
     53  CD1       -1.5780   -5.6920   -6.3460 C.ar  241  PHE241     -0.0042
     54  CD2       -2.6170   -6.6600   -4.4120 C.ar  241  PHE241     -0.0042
     55  CE1       -0.5840   -5.1340   -5.5340 C.ar  241  PHE241     -0.0003
     56  CE2       -1.6370   -6.1020   -3.5850 C.ar  241  PHE241     -0.0003
     57  CZ        -0.6140   -5.3340   -4.1470 C.ar  241  PHE241     -0.0000
     58  N         -0.5370   -5.7470  -11.5750 N.3   245  SER245     -0.1217
     59  CA        -0.2040   -4.4900  -10.9190 C.3   245  SER245      0.1889
     60  C          1.0040   -4.5270   -9.9760 C.2   245  SER245      0.2288
     61  O          0.8510   -4.2380   -8.7940 O.2   245  SER245     -0.2866
     62  CB        -1.4350   -3.9580  -10.1580 C.3   245  SER245      0.2089
     63  OG        -2.5750   -3.9190  -11.0030 O.3   245  SER245     -0.2183
     64  N         -0.3960  -19.6460   -0.8030 N.3   263  ASN263     -0.1226
     65  CA        -1.1080  -18.5810   -0.1030 C.3   263  ASN263      0.1770
     66  C         -0.0640  -17.7450    0.6250 C.2   263  ASN263      0.2439
     67  O          1.1200  -18.0280    0.5100 O.2   263  ASN263     -0.2733
     68  CB        -2.0840  -19.1820    0.9050 C.3   263  ASN263      0.1168
     69  CG        -1.3960  -20.1050    1.8800 C.2   263  ASN263      0.2627
     70  OD1       -0.4350  -19.7170    2.5480 O.2   263  ASN263     -0.2716
     71  ND2       -1.8700  -21.3400    1.9560 N.am  263  ASN263     -0.0877
     72  N         -0.4900  -16.7200    1.3860 N.am  264  PRO264     -0.2729
     73  CA         0.4800  -15.8690    2.0950 C.3   264  PRO264      0.1401
     74  C          0.9220  -16.3490    3.5040 C.2   264  PRO264      0.2269
     75  O          1.5660  -15.5590    4.1950 O.2   264  PRO264     -0.2865
     76  CB        -0.2600  -14.5230    2.2310 C.3   264  PRO264      0.0296
     77  CG        -1.5680  -14.6860    1.4910 C.3   264  PRO264      0.0237
     78  CD        -1.8450  -16.1540    1.4510 C.3   264  PRO264      0.0939
     79  N         -1.7340   -8.0240    0.9190 N.3   284  VAL284     -0.1245
     80  CA        -2.7720   -7.2070    1.5420 C.3   284  VAL284      0.1561
     81  C         -2.4270   -7.0340    3.0280 C.2   284  VAL284      0.2260
     82  O         -1.6900   -7.8400    3.5910 O.2   284  VAL284     -0.2867
     83  CB        -4.1550   -7.8810    1.4210 C.3   284  VAL284      0.0252
     84  CG1       -4.5210   -8.0840   -0.0670 C.3   284  VAL284      0.0019
     85  CG2       -4.1600   -9.2100    2.1720 C.3   284  VAL284      0.0019
     86  N         -3.6800   -7.6400    5.9140 N.3   286  SER286     -0.1202
     87  CA        -3.8250   -8.7540    6.8410 C.3   286  SER286      0.2020
     88  C         -2.6400   -9.7110    6.7380 C.2   286  SER286      0.2618
     89  O         -2.1640  -10.2240    7.7510 O.2   286  SER286     -0.2717
     90  CB        -5.1380   -9.5010    6.6030 C.3   286  SER286      0.2103
     91  OG        -5.0940  -10.1990    5.3740 O.3   286  SER286     -0.2182
     92  N         -2.1650   -9.9610    5.5190 N.am  287  ALA287     -0.1979
     93  CA        -1.0140  -10.8440    5.3350 C.3   287  ALA287      0.1597
     94  C          0.2780  -10.1890    5.8250 C.2   287  ALA287      0.2287
     95  O          1.1340  -10.8550    6.4070 O.2   287  ALA287     -0.2864
     96  CB        -0.8860  -11.2820    3.8830 C.3   287  ALA287      0.0319
     97  N          0.5900  -10.7530    9.5390 N.3   290  MET290     -0.1245
     98  CA         1.1150  -12.1010    9.7410 C.3   290  MET290      0.1570
     99  C          2.6360  -12.1580    9.5780 C.2   290  MET290      0.2261
    100  O          3.3300  -12.7790   10.3810 O.2   290  MET290     -0.2867
    101  CB         0.4710  -13.0930    8.7720 C.3   290  MET290      0.0387
    102  CG        -0.9920  -13.3960    9.0280 C.3   290  MET290      0.0595
    103  SD        -1.5530  -14.8620    8.1230 S.3   290  MET290     -0.1393
    104  CE        -1.4590  -14.2940    6.4260 C.3   290  MET290      0.0692
    105  N         -1.4430   -3.4820   -0.9080 N.3   311  GLY311     -0.1210
    106  CA        -2.6990   -2.8770   -1.2950 C.3   311  GLY311      0.1956
    107  C         -3.8790   -3.5460   -0.6180 C.2   311  GLY311      0.2612
    108  O         -3.8170   -4.7200   -0.2480 O.2   311  GLY311     -0.2717
    109  N         -4.9650   -2.8020   -0.4580 N.am  312  GLY312     -0.1942
    110  CA        -6.2020   -3.4250   -0.0260 C.3   312  GLY312      0.2014
    111  C         -6.9620   -2.6440    1.0200 C.2   312  GLY312      0.2638
    112  O         -7.1930   -1.4410    0.8670 O.2   312  GLY312     -0.2714
    113  N         -7.3630   -3.3610    2.0630 N.am  313  ALA313     -0.1977
    114  CA        -8.0510   -2.8270    3.2410 C.3   313  ALA313      0.1597
    115  C         -7.6260   -1.4280    3.6710 C.2   313  ALA313      0.2287
    116  O         -7.8450   -0.4260    2.9830 O.2   313  ALA313     -0.2864
    117  CB        -7.8520   -3.7960    4.4220 C.3   313  ALA313      0.0319
    118  N         -0.2410    0.4880   -3.0250 N.3   334  VAL334     -0.1231
    119  CA        -0.9870    0.3360   -4.2720 C.3   334  VAL334      0.1692
    120  C         -2.4720    0.4300   -3.9470 C.2   334  VAL334      0.2592
    121  O         -2.9640   -0.2710   -3.0580 O.2   334  VAL334     -0.2718
    122  CB        -0.7200   -1.0430   -4.9210 C.3   334  VAL334      0.0266
    123  CG1       -1.4610   -1.1770   -6.2500 C.3   334  VAL334      0.0020
    124  CG2        0.7560   -1.2640   -5.1280 C.3   334  VAL334      0.0020
    125  N         -3.1880    1.3030   -4.6440 N.am  335  PHE335     -0.1962
    126  CA        -4.6410    1.3160   -4.5410 C.3   335  PHE335      0.1771
    127  C         -5.2490    1.2110   -5.9400 C.2   335  PHE335      0.2620
    128  O         -5.1000    2.1160   -6.7650 O.2   335  PHE335     -0.2715
    129  CB        -5.1560    2.5690   -3.8170 C.3   335  PHE335      0.0574
    130  CG        -6.6020    2.8840   -4.1120 C.ar  335  PHE335     -0.0200
    131  CD1       -7.6060    1.9900   -3.7630 C.ar  335  PHE335     -0.0042
    132  CD2       -6.9550    4.0710   -4.7480 C.ar  335  PHE335     -0.0042
    133  CE1       -8.9420    2.2700   -4.0460 C.ar  335  PHE335     -0.0003
    134  CE2       -8.2900    4.3640   -5.0330 C.ar  335  PHE335     -0.0003
    135  CZ        -9.2820    3.4570   -4.6850 C.ar  335  PHE335     -0.0000
    136  N         -5.9240    0.0980   -6.2020 N.am  336  GLY336     -0.1940
    137  CA        -6.4950   -0.1370   -7.5140 C.3   336  GLY336      0.2014
    138  C         -7.8280   -0.8550   -7.4830 C.2   336  GLY336      0.2639
    139  O         -8.3660   -1.1430   -6.4140 O.2   336  GLY336     -0.2714
    140  N         -8.3540   -1.1480   -8.6690 N.am  337  MET337     -0.1963
    141  CA        -9.6060   -1.8690   -8.8070 C.3   337  MET337      0.1736
    142  C         -9.5410   -2.7150  -10.0870 C.2   337  MET337      0.2616
    143  O         -8.9090   -2.3110  -11.0670 O.2   337  MET337     -0.2715
    144  CB       -10.7620   -0.8720   -8.8660 C.3   337  MET337      0.0427
    145  CG       -10.5830    0.2120   -9.9420 C.3   337  MET337      0.0599
    146  SD       -11.6240    1.6600   -9.6560 S.3   337  MET337     -0.1393
    147  CE       -10.7720    2.4500   -8.2800 C.3   337  MET337      0.0692
    148  N        -10.1830   -3.8830  -10.0820 N.am  338  ALA338     -0.1977
    149  CA       -10.2330   -4.7340  -11.2710 C.3   338  ALA338      0.1597
    150  C        -10.9140   -4.0250  -12.4420 C.2   338  ALA338      0.2287
    151  O        -10.7450   -4.4180  -13.6000 O.2   338  ALA338     -0.2864
    152  CB       -10.9500   -6.0380  -10.9610 C.3   338  ALA338      0.0319
    153  N         -5.3600    2.0060  -11.4270 N.3   342  VAL342     -0.1245
    154  CA        -4.4360    1.5880  -10.3620 C.3   342  VAL342      0.1561
    155  C         -3.5070    2.7350   -9.9720 C.2   342  VAL342      0.2260
    156  O         -2.9060    3.3670  -10.8360 O.2   342  VAL342     -0.2867
    157  CB        -3.5620    0.3830  -10.7710 C.3   342  VAL342      0.0252
    158  CG1       -2.7030   -0.0830   -9.5830 C.3   342  VAL342      0.0019
    159  CG2       -4.4320   -0.7730  -11.2730 C.3   342  VAL342      0.0019
    160  N        -15.3550    4.1710    2.2110 N.3   433  ARG433     -0.1245
    161  CA       -16.1420    3.6260    1.1270 C.3   433  ARG433      0.1563
    162  C        -17.5520    4.1520    1.2680 C.2   433  ARG433      0.2260
    163  O        -17.9850    4.5280    2.3670 O.2   433  ARG433     -0.2867
    164  CB       -16.0870    2.0820    1.1070 C.3   433  ARG433      0.0307
    165  CG       -15.8580    1.5010   -0.3230 C.3   433  ARG433      0.0489
    166  CD       -15.4670    0.0030   -0.3750 C.3   433  ARG433      0.2205
    167  NE       -14.1400   -0.2910    0.1900 N.pl3 433  ARG433     -0.0865
    168  CZ       -13.1360   -0.8720   -0.4730 C.cat 433  ARG433      0.5346
    169  NH1      -13.2840   -1.2200   -1.7450 N.pl3 433  ARG433      0.1354
    170  NH2      -11.9720   -1.1000    0.1380 N.pl3 433  ARG433      0.1354
@<TRIPOS>BOND
     1   151   150    2
     2    45    44    2
     3   150   149    1
     4    44    46   am
     5    44    43    1
     6    58    59    1
     7   153   154    1
     8   159   157    1
     9   149   152    1
    10   149   148    1
    11   143   142    2
    12    63    62    1
    13    42    41    2
    14    59    62    1
    15    59    60    1
    16    43    40    1
    17   156   155    2
    18    40    41    1
    19    40    39    1
    20   157   154    1
    21   157   158    1
    22   154   155    1
    23    41    47   am
    24   142   148   am
    25   142   141    1
    26    39    31   am
    27    60    61    2
    28   145   146    1
    29   145   144    1
    30    32    31    2
    31   146   147    1
    32    31    30    1
    33    29    30    1
    34    50    49    2
    35    30    33    1
    36    47    48    1
    37   144   141    1
    38     1     2    1
    39   141   140    1
    40   140   138   am
    41    49    48    1
    42    48    51    1
    43     2     3    1
    44     2     5    1
    45    25    24    2
    46   137   138    1
    47   137   136    1
    48   138   139    2
    49    33    34    1
    50     4     3    2
    51     8     6    1
    52    24    23    1
    53    35    34   ar
    54    35    37   ar
    55     6     5    1
    56     6     7    1
    57    34    36   ar
    58   128   127    2
    59    51    52    1
    60    37    38   ar
    61    53    52   ar
    62    53    55   ar
    63   123   122    1
    64   136   127   am
    65    36    38   ar
    66   127   126    1
    67    52    54   ar
    68    23    26    1
    69    23    22    1
    70    26    27    1
    71    55    57   ar
    72    17    16    2
    73   124   122    1
    74   134   132   ar
    75   134   135   ar
    76   122   119    1
    77   132   130   ar
    78    22    16   am
    79    22    28    1
    80   135   133   ar
    81   125   126    1
    82   125   120   am
    83    16    15    1
    84   126   129    1
    85    54    56   ar
    86   119   120    1
    87   119   118    1
    88    57    56   ar
    89    27    28    1
    90   130   129    1
    91   130   131   ar
    92     9    10    1
    93   133   131   ar
    94   120   121    2
    95    18    15    1
    96    18    19    1
    97    15    14    1
    98    14    11   am
    99    20    19    1
   100    10    11    1
   101    10    13    1
   102    11    12    2
   103    19    21    1
   104   169   168    1
   105   106   105    1
   106   106   107    1
   107    64    65    1
   108   107   109   am
   109   107   108    2
   110   168   170    1
   111   168   167    2
   112   109   110    1
   113   166   165    1
   114   166   167    1
   115   165   164    1
   116    65    66    1
   117    65    68    1
   118    84    83    1
   119   110   111    1
   120    67    66    2
   121    66    72   am
   122   112   111    2
   123    68    69    1
   124    79    80    1
   125   111   113   am
   126   164   161    1
   127   161   162    1
   128   161   160    1
   129   162   163    2
   130    72    78    1
   131    72    73    1
   132    83    80    1
   133    83    85    1
   134    78    77    1
   135    77    76    1
   136    80    81    1
   137    69    71   am
   138    69    70    2
   139   113   114    1
   140    73    76    1
   141    73    74    1
   142   116   115    2
   143    81    82    2
   144   114   115    1
   145   114   117    1
   146    74    75    2
   147    96    93    1
   148    93    92    1
   149    93    94    1
   150    91    90    1
   151    92    88   am
   152    94    95    2
   153    86    87    1
   154   104   103    1
   155    90    87    1
   156    88    87    1
   157    88    89    2
   158   103   102    1
   159   101   102    1
   160   101    98    1
   161    97    98    1
   162    99    98    1
   163    99   100    2
