@<TRIPOS>MOLECULE
tmp/3u16B01.pdb
 82 77 0 0 0
SMALL
GASTEIGER

@<TRIPOS>ATOM
      1  N          7.3260    0.2200  -11.3750 N.3   223  CYS223     -0.1221
      2  CA         7.8730   -0.5820  -10.2790 C.3   223  CYS223      0.1808
      3  C          9.3270   -1.0210  -10.5110 C.2   223  CYS223      0.2602
      4  O          9.8600   -1.8330   -9.7590 O.2   223  CYS223     -0.2717
      5  CB         6.9850   -1.8010  -10.0020 C.3   223  CYS223      0.0970
      6  SG         5.2640   -1.3970   -9.5970 S.3   223  CYS223     -0.0800
      7  N          9.9640   -0.4820  -11.5480 N.am  224  GLY224     -0.1942
      8  CA        11.3550   -0.8000  -11.8350 C.3   224  GLY224      0.2014
      9  C         11.6490   -2.2740  -12.0720 C.2   224  GLY224      0.2639
     10  O         12.7110   -2.7710  -11.6980 O.2   224  GLY224     -0.2714
     11  N         10.7130   -2.9800  -12.6950 N.am  225  LEU225     -0.1963
     12  CA        10.8900   -4.4070  -12.9320 C.3   225  LEU225      0.1728
     13  C         11.9820   -4.6100  -13.9670 C.2   225  LEU225      0.2616
     14  O         12.1160   -3.8140  -14.8900 O.2   225  LEU225     -0.2715
     15  CB         9.5940   -5.0340  -13.4340 C.3   225  LEU225      0.0311
     16  CG         8.3990   -4.9620  -12.4800 C.3   225  LEU225      0.0022
     17  CD1        7.3030   -5.9160  -12.9310 C.3   225  LEU225      0.0001
     18  CD2        8.8350   -5.2990  -11.0850 C.3   225  LEU225      0.0001
     19  N         12.7580   -5.6780  -13.8220 N.am  226  ASN226     -0.1972
     20  CA        13.7730   -6.0000  -14.8120 C.3   226  ASN226      0.1688
     21  C         13.9720   -7.5080  -14.8760 C.2   226  ASN226      0.2292
     22  O         13.2120   -8.2490  -14.2580 O.2   226  ASN226     -0.2864
     23  CB        15.0810   -5.2340  -14.5320 C.3   226  ASN226      0.1181
     24  CG        15.6780   -5.5640  -13.1780 C.2   226  ASN226      0.2629
     25  OD1       15.8930   -6.7260  -12.8470 O.2   226  ASN226     -0.2716
     26  ND2       15.9600   -4.5360  -12.3930 N.am  226  ASN226     -0.0877
     27  N         16.0530   -9.3330  -13.5870 N.3   228  ASN228     -0.1225
     28  CA        16.5040   -9.8930  -12.3250 C.3   228  ASN228      0.1785
     29  C         15.3910   -9.9630  -11.2850 C.2   228  ASN228      0.2597
     30  O         15.5770  -10.5190  -10.2030 O.2   228  ASN228     -0.2718
     31  CB        17.7020   -9.1110  -11.7780 C.3   228  ASN228      0.1169
     32  CG        18.9890   -9.4210  -12.5310 C.2   228  ASN228      0.2627
     33  OD1       19.9770   -8.6930  -12.4220 O.2   228  ASN228     -0.2716
     34  ND2       18.9790  -10.5090  -13.3000 N.am  228  ASN228     -0.0877
     35  N         14.2310   -9.4060  -11.6220 N.am  229  THR229     -0.1953
     36  CA        13.0840   -9.4660  -10.7260 C.3   229  THR229      0.1897
     37  C         12.5910  -10.8970  -10.5350 C.2   229  THR229      0.2313
     38  O         12.4350  -11.6420  -11.4960 O.2   229  THR229     -0.2863
     39  CB        11.9230   -8.6190  -11.2460 C.3   229  THR229      0.1794
     40  OG1       12.3520   -7.2600  -11.4070 O.3   229  THR229     -0.2208
     41  CG2       10.7560   -8.6810  -10.2750 C.3   229  THR229      0.0378
     42  N         12.9570  -11.3370   -4.6450 N.3   279  ASN279     -0.1225
     43  CA        13.2630   -9.9570   -4.2500 C.3   279  ASN279      0.1785
     44  C         12.0760   -8.9930   -4.2970 C.2   279  ASN279      0.2597
     45  O         12.2100   -7.8160   -3.9350 O.2   279  ASN279     -0.2718
     46  CB        14.4510   -9.3920   -5.0470 C.3   279  ASN279      0.1169
     47  CG        14.2780   -9.5370   -6.5530 C.2   279  ASN279      0.2627
     48  OD1       13.1520   -9.6020   -7.0710 O.2   279  ASN279     -0.2716
     49  ND2       15.4030   -9.5910   -7.2690 N.am  279  ASN279     -0.0877
     50  N         10.9160   -9.4850   -4.7250 N.am  280  MET280     -0.1979
     51  CA         9.6920   -8.6720   -4.6920 C.3   280  MET280      0.1605
     52  C          8.4780   -9.5020   -4.2610 C.2   280  MET280      0.2287
     53  O          8.3810  -10.6760   -4.5870 O.2   280  MET280     -0.2864
     54  CB         9.4480   -8.0330   -6.0670 C.3   280  MET280      0.0413
     55  CG         8.3870   -6.9340   -6.1170 C.3   280  MET280      0.0598
     56  SD         8.0980   -6.3480   -7.8230 S.3   280  MET280     -0.1393
     57  CE         6.6350   -5.3520   -7.5570 C.3   280  MET280      0.0692
     58  N         13.5600   -7.0060   -1.7850 N.3   306  LYS306     -0.1231
     59  CA        13.9270   -5.5980   -1.9630 C.3   306  LYS306      0.1693
     60  C         12.7070   -4.6790   -1.9800 C.2   306  LYS306      0.2591
     61  O         12.7870   -3.5060   -1.6120 O.2   306  LYS306     -0.2718
     62  CB        14.7170   -5.3920   -3.2470 C.3   306  LYS306      0.0285
     63  CG        15.9770   -6.2390   -3.3700 C.3   306  LYS306      0.0035
     64  CD        17.1410   -5.6090   -2.6200 C.3   306  LYS306      0.0206
     65  CE        18.4600   -6.3140   -2.9330 C.3   306  LYS306      0.1093
     66  NZ        18.7270   -6.4160   -4.4040 N.3   306  LYS306     -0.1314
     67  N         11.5750   -5.2080   -2.4220 N.am  307  LEU307     -0.1980
     68  CA        10.3810   -4.3930   -2.5480 C.3   307  LEU307      0.1596
     69  C          9.1300   -5.1860   -2.1920 C.2   307  LEU307      0.2287
     70  O          8.9510   -6.3230   -2.6430 O.2   307  LEU307     -0.2864
     71  CB        10.2710   -3.8540   -3.9750 C.3   307  LEU307      0.0297
     72  CG         9.0480   -2.9940   -4.2600 C.3   307  LEU307      0.0022
     73  CD1        9.1150   -1.7250   -3.4370 C.3   307  LEU307      0.0001
     74  CD2        8.9620   -2.6710   -5.7530 C.3   307  LEU307      0.0001
     75  N          8.7190    4.8990   -6.5740 N.3   347  LEU347     -0.1245
     76  CA         9.8920    4.4070   -5.8540 C.3   347  LEU347      0.1561
     77  C         10.7520    5.5330   -5.2890 C.2   347  LEU347      0.2260
     78  O         11.5450    5.3190   -4.3760 O.2   347  LEU347     -0.2867
     79  CB        10.7390    3.5030   -6.7510 C.3   347  LEU347      0.0270
     80  CG        10.0360    2.2240   -7.2060 C.3   347  LEU347      0.0019
     81  CD1       10.9210    1.3920   -8.1300 C.3   347  LEU347      0.0001
     82  CD2        9.5990    1.4100   -5.9960 C.3   347  LEU347      0.0001
@<TRIPOS>BOND
     1    14    13    2
     2    21    20    1
     3    21    22    2
     4    20    23    1
     5    20    19    1
     6    23    24    1
     7    13    19   am
     8    13    12    1
     9    27    28    1
    10    15    12    1
    11    15    16    1
    12    34    32   am
    13    24    25    2
    14    24    26   am
    15    12    11    1
    16    17    16    1
    17    11     9   am
    18    32    33    2
    19    32    31    1
    20    16    18    1
    21    28    31    1
    22    28    29    1
    23     9     8    1
    24     9    10    2
    25     8     7    1
    26    35    29   am
    27    35    36    1
    28     7     3   am
    29    38    37    2
    30    40    39    1
    31     1     2    1
    32    29    30    2
    33    39    36    1
    34    39    41    1
    35    36    37    1
    36     3     2    1
    37     3     4    2
    38     2     5    1
    39     5     6    1
    40    81    80    1
    41    56    57    1
    42    56    55    1
    43    49    47   am
    44    80    79    1
    45    80    82    1
    46    48    47    2
    47    79    76    1
    48    75    76    1
    49    47    46    1
    50    55    54    1
    51    54    51    1
    52    76    77    1
    53    74    72    1
    54    77    78    2
    55    46    43    1
    56    50    51    1
    57    50    44   am
    58    51    52    1
    59    42    43    1
    60    53    52    2
    61    66    65    1
    62    44    43    1
    63    44    45    2
    64    72    71    1
    65    72    73    1
    66    71    68    1
    67    63    62    1
    68    63    64    1
    69    62    59    1
    70    65    64    1
    71    70    69    2
    72    68    67    1
    73    68    69    1
    74    67    60   am
    75    60    59    1
    76    60    61    2
    77    59    58    1
