@<TRIPOS>MOLECULE
tmp/3u17B00.pdb
 145 138 0 0 0
SMALL
GASTEIGER

@<TRIPOS>ATOM
      1  N        -11.7480  -17.4530   -8.9230 N.3   107  LEU107     -0.1245
      2  CA       -10.8090  -17.6820   -7.8410 C.3   107  LEU107      0.1561
      3  C        -10.9430  -19.1350   -7.3940 C.2   107  LEU107      0.2260
      4  O        -12.0300  -19.7060   -7.4240 O.2   107  LEU107     -0.2867
      5  CB       -11.0820  -16.7350   -6.6800 C.3   107  LEU107      0.0270
      6  CG       -10.9480  -15.2480   -7.0130 C.3   107  LEU107      0.0019
      7  CD1      -11.4710  -14.3920   -5.8570 C.3   107  LEU107      0.0001
      8  CD2       -9.4970  -14.8950   -7.3600 C.3   107  LEU107      0.0001
      9  N        -10.8990  -20.1360   -4.5690 N.3   109  SER109     -0.1217
     10  CA       -11.7600  -20.0800   -3.3820 C.3   109  SER109      0.1889
     11  C        -13.2460  -19.9330   -3.7090 C.2   109  SER109      0.2288
     12  O        -14.0890  -20.0050   -2.8210 O.2   109  SER109     -0.2866
     13  CB       -11.3240  -18.9300   -2.4720 C.3   109  SER109      0.2089
     14  OG       -11.2850  -17.7130   -3.2100 O.3   109  SER109     -0.2183
     15  N         -0.7120  -14.1690   -3.4840 N.3   235  LEU235     -0.1231
     16  CA        -2.1220  -13.8130   -3.5660 C.3   235  LEU235      0.1678
     17  C         -2.7010  -14.6780   -4.6710 C.2   235  LEU235      0.2434
     18  O         -1.9500  -15.2800   -5.4290 O.2   235  LEU235     -0.2733
     19  CB        -2.2860  -12.3190   -3.8730 C.3   235  LEU235      0.0284
     20  CG        -1.6610  -11.3770   -2.8370 C.3   235  LEU235      0.0019
     21  CD1       -1.8470   -9.9160   -3.2230 C.3   235  LEU235      0.0001
     22  CD2       -2.2380  -11.6440   -1.4350 C.3   235  LEU235      0.0001
     23  N         -4.0340  -14.7690   -4.7650 N.am  236  PRO236     -0.2729
     24  CA        -4.6150  -15.5520   -5.8660 C.3   236  PRO236      0.1401
     25  C         -4.1280  -15.0830   -7.2590 C.2   236  PRO236      0.2269
     26  O         -4.2890  -13.9140   -7.6080 O.2   236  PRO236     -0.2865
     27  CB        -6.1140  -15.2830   -5.7220 C.3   236  PRO236      0.0296
     28  CG        -6.2920  -14.9480   -4.2590 C.3   236  PRO236      0.0237
     29  CD        -5.0580  -14.2160   -3.8600 C.3   236  PRO236      0.0939
     30  N         -6.2160  -12.6380   -9.4340 N.3   239  HIS239     -0.1226
     31  CA        -6.6170  -11.3230   -8.9410 C.3   239  HIS239      0.1752
     32  C         -5.8830  -10.2170   -9.6880 C.2   239  HIS239      0.2596
     33  O         -4.6820  -10.3320   -9.9580 O.2   239  HIS239     -0.2718
     34  CB        -6.3730  -11.1930   -7.4340 C.3   239  HIS239      0.0759
     35  CG        -7.0180   -9.9860   -6.8320 C.ar  239  HIS239      0.0818
     36  ND1       -6.5060   -8.7150   -6.9880 N.ar  239  HIS239     -0.2268
     37  CD2       -8.1400   -9.8540   -6.0850 C.ar  239  HIS239      0.1154
     38  CE1       -7.2850   -7.8500   -6.3600 C.ar  239  HIS239      0.1986
     39  NE2       -8.2810   -8.5150   -5.7990 N.ar  239  HIS239     -0.2212
     40  N         -6.5970   -9.1460  -10.0120 N.am  240  ASN240     -0.1960
     41  CA        -6.0240   -8.0570  -10.8140 C.3   240  ASN240      0.1819
     42  C         -4.6980   -7.5520  -10.2200 C.2   240  ASN240      0.2621
     43  O         -3.7530   -7.2510  -10.9490 O.2   240  ASN240     -0.2715
     44  CB        -7.0310   -6.9060  -10.9560 C.3   240  ASN240      0.1195
     45  CG        -6.6900   -5.9650  -12.1080 C.2   240  ASN240      0.2630
     46  OD1       -6.6380   -6.3840  -13.2720 O.2   240  ASN240     -0.2716
     47  ND2       -6.4780   -4.6860  -11.7910 N.am  240  ASN240     -0.0877
     48  N         -4.6280   -7.4940   -8.8890 N.am  241  PHE241     -0.1974
     49  CA        -3.4240   -7.0660   -8.1790 C.3   241  PHE241      0.1639
     50  C         -2.2490   -7.9880   -8.5150 C.2   241  PHE241      0.2290
     51  O         -1.1690   -7.5390   -8.9240 O.2   241  PHE241     -0.2864
     52  CB        -3.7020   -7.0980   -6.6670 C.3   241  PHE241      0.0560
     53  CG        -2.5930   -6.5380   -5.8050 C.ar  241  PHE241     -0.0200
     54  CD1       -1.5500   -5.8130   -6.3520 C.ar  241  PHE241     -0.0042
     55  CD2       -2.6290   -6.7160   -4.4150 C.ar  241  PHE241     -0.0042
     56  CE1       -0.5440   -5.2830   -5.5370 C.ar  241  PHE241     -0.0003
     57  CE2       -1.6350   -6.1940   -3.5970 C.ar  241  PHE241     -0.0003
     58  CZ        -0.5860   -5.4740   -4.1620 C.ar  241  PHE241     -0.0000
     59  N         -0.5360   -5.8560  -11.5980 N.3   245  SER245     -0.1217
     60  CA        -0.1790   -4.5910  -10.9600 C.3   245  SER245      0.1889
     61  C          1.0190   -4.6050   -9.9880 C.2   245  SER245      0.2288
     62  O          0.8560   -4.2850   -8.8080 O.2   245  SER245     -0.2866
     63  CB        -1.4100   -3.9920  -10.2570 C.3   245  SER245      0.2089
     64  OG        -2.5940   -4.1720  -11.0160 O.3   245  SER245     -0.2183
     65  N         -1.7370   -8.1010    0.8630 N.3   284  VAL284     -0.1245
     66  CA        -2.7690   -7.2860    1.4950 C.3   284  VAL284      0.1561
     67  C         -2.3820   -7.1070    2.9750 C.2   284  VAL284      0.2260
     68  O         -1.6220   -7.9130    3.5110 O.2   284  VAL284     -0.2867
     69  CB        -4.1630   -7.9580    1.3810 C.3   284  VAL284      0.0252
     70  CG1       -4.4830   -8.2660   -0.0800 C.3   284  VAL284      0.0019
     71  CG2       -4.2240   -9.2290    2.2170 C.3   284  VAL284      0.0019
     72  N         -1.3930   -3.4710   -0.9250 N.3   311  GLY311     -0.1210
     73  CA        -2.6340   -2.8400   -1.3070 C.3   311  GLY311      0.1956
     74  C         -3.8030   -3.5670   -0.6840 C.2   311  GLY311      0.2612
     75  O         -3.7280   -4.7620   -0.3900 O.2   311  GLY311     -0.2717
     76  N         -4.8970   -2.8530   -0.4860 N.am  312  GLY312     -0.1942
     77  CA        -6.1040   -3.5210   -0.0470 C.3   312  GLY312      0.2014
     78  C         -6.9170   -2.6930    0.9130 C.2   312  GLY312      0.2638
     79  O         -7.0410   -1.4700    0.7510 O.2   312  GLY312     -0.2714
     80  N         -7.4890   -3.3900    1.8880 N.am  313  ALA313     -0.1977
     81  CA        -8.2260   -2.8070    3.0080 C.3   313  ALA313      0.1597
     82  C         -7.7600   -1.4160    3.4340 C.2   313  ALA313      0.2287
     83  O         -8.0340   -0.3980    2.7820 O.2   313  ALA313     -0.2864
     84  CB        -8.1430   -3.7590    4.2250 C.3   313  ALA313      0.0319
     85  N         -0.2020    0.4280   -3.0920 N.3   334  VAL334     -0.1231
     86  CA        -0.9340    0.2830   -4.3330 C.3   334  VAL334      0.1692
     87  C         -2.4110    0.3750   -4.0140 C.2   334  VAL334      0.2592
     88  O         -2.9150   -0.3570   -3.1600 O.2   334  VAL334     -0.2718
     89  CB        -0.6880   -1.1000   -4.9810 C.3   334  VAL334      0.0266
     90  CG1       -1.4000   -1.1870   -6.3380 C.3   334  VAL334      0.0020
     91  CG2        0.7950   -1.3640   -5.1350 C.3   334  VAL334      0.0020
     92  N         -3.1060    1.2710   -4.6960 N.am  335  PHE335     -0.1962
     93  CA        -4.5530    1.3020   -4.6240 C.3   335  PHE335      0.1771
     94  C         -5.1350    1.2000   -6.0380 C.2   335  PHE335      0.2620
     95  O         -4.9690    2.1100   -6.8590 O.2   335  PHE335     -0.2715
     96  CB        -5.0470    2.5740   -3.9280 C.3   335  PHE335      0.0574
     97  CG        -6.4920    2.8590   -4.1770 C.ar  335  PHE335     -0.0200
     98  CD1       -7.4680    2.0020   -3.6970 C.ar  335  PHE335     -0.0042
     99  CD2       -6.8780    3.9720   -4.9120 C.ar  335  PHE335     -0.0042
    100  CE1       -8.8090    2.2500   -3.9450 C.ar  335  PHE335     -0.0003
    101  CE2       -8.2210    4.2320   -5.1630 C.ar  335  PHE335     -0.0003
    102  CZ        -9.1850    3.3650   -4.6890 C.ar  335  PHE335     -0.0000
    103  N         -5.8070    0.0910   -6.3200 N.am  336  GLY336     -0.1940
    104  CA        -6.3880   -0.1160   -7.6310 C.3   336  GLY336      0.2014
    105  C         -7.7110   -0.8460   -7.5920 C.2   336  GLY336      0.2639
    106  O         -8.2670   -1.0780   -6.5290 O.2   336  GLY336     -0.2714
    107  N         -8.2070   -1.2230   -8.7660 N.am  337  MET337     -0.1963
    108  CA        -9.4840   -1.9210   -8.8810 C.3   337  MET337      0.1736
    109  C         -9.4660   -2.7780  -10.1430 C.2   337  MET337      0.2616
    110  O         -8.8430   -2.3970  -11.1350 O.2   337  MET337     -0.2715
    111  CB       -10.6330   -0.9040   -8.9120 C.3   337  MET337      0.0427
    112  CG       -10.4950    0.1800   -9.9960 C.3   337  MET337      0.0599
    113  SD       -11.5090    1.6410   -9.6760 S.3   337  MET337     -0.1393
    114  CE       -10.6970    2.2950   -8.2110 C.3   337  MET337      0.0692
    115  N        -10.1210   -3.9350  -10.1250 N.am  338  ALA338     -0.1977
    116  CA       -10.1710   -4.7530  -11.3400 C.3   338  ALA338      0.1597
    117  C        -10.8360   -4.0040  -12.5030 C.2   338  ALA338      0.2287
    118  O        -10.6470   -4.3560  -13.6720 O.2   338  ALA338     -0.2864
    119  CB       -10.8800   -6.0690  -11.0760 C.3   338  ALA338      0.0319
    120  N         -5.2610    2.0310  -11.4690 N.3   342  VAL342     -0.1245
    121  CA        -4.3480    1.5960  -10.4170 C.3   342  VAL342      0.1561
    122  C         -3.4080    2.7370  -10.0430 C.2   342  VAL342      0.2260
    123  O         -2.8380    3.3800  -10.9200 O.2   342  VAL342     -0.2867
    124  CB        -3.5170    0.3380  -10.8000 C.3   342  VAL342      0.0252
    125  CG1       -2.6900   -0.1250   -9.5930 C.3   342  VAL342      0.0019
    126  CG2       -4.4210   -0.8020  -11.2450 C.3   342  VAL342      0.0019
    127  N        -15.2130    4.6590   -3.7880 N.3   418  ASP418     -0.1239
    128  CA       -14.1610    4.9580   -2.8280 C.3   418  ASP418      0.1674
    129  C        -14.2310    6.4180   -2.4030 C.2   418  ASP418      0.2266
    130  O        -14.5940    7.2930   -3.1940 O.2   418  ASP418     -0.2867
    131  CB       -12.7690    4.6490   -3.3930 C.3   418  ASP418      0.1410
    132  CG       -12.6260    3.2070   -3.8650 C.2   418  ASP418      0.3668
    133  OD1      -12.5570    2.9850   -5.0970 O.co2 418  ASP418     -0.2456
    134  OD2      -12.5700    2.2930   -3.0150 O.co2 418  ASP418     -0.2456
    135  N        -15.2610    4.3810    2.1430 N.3   433  ARG433     -0.1245
    136  CA       -16.0690    3.7720    1.1120 C.3   433  ARG433      0.1563
    137  C        -17.4760    4.3110    1.2330 C.2   433  ARG433      0.2260
    138  O        -17.9310    4.6540    2.3260 O.2   433  ARG433     -0.2867
    139  CB       -16.0720    2.2480    1.2660 C.3   433  ARG433      0.0307
    140  CG       -14.7510    1.5470    0.8970 C.3   433  ARG433      0.0489
    141  CD       -14.4490    1.6140   -0.5850 C.3   433  ARG433      0.2205
    142  NE       -15.5240    1.0730   -1.3980 N.pl3 433  ARG433     -0.0865
    143  CZ       -15.6600   -0.2080   -1.7880 C.cat 433  ARG433      0.5346
    144  NH1      -14.7500   -1.1370   -1.4170 N.pl3 433  ARG433      0.1354
    145  NH2      -16.7010   -0.5400   -2.5250 N.pl3 433  ARG433      0.1354
@<TRIPOS>BOND
     1   118   117    2
     2    46    45    2
     3   117   116    1
     4    45    47   am
     5    45    44    1
     6    59    60    1
     7   120   121    1
     8   116   119    1
     9   116   115    1
    10   126   124    1
    11   110   109    2
    12    64    63    1
    13    60    63    1
    14    60    61    1
    15    44    41    1
    16    43    42    2
    17   123   122    2
    18    41    42    1
    19    41    40    1
    20   124   121    1
    21   124   125    1
    22   121   122    1
    23    42    48   am
    24   109   115   am
    25   109   108    1
    26    40    32   am
    27   112   113    1
    28   112   111    1
    29    61    62    2
    30    33    32    2
    31    32    31    1
    32   113   114    1
    33    30    31    1
    34    31    34    1
    35    51    50    2
    36     1     2    1
    37   111   108    1
    38    48    49    1
    39   108   107    1
    40   107   105   am
    41    50    49    1
    42    49    52    1
    43     2     3    1
    44     2     5    1
    45   104   105    1
    46   104   103    1
    47    26    25    2
    48   105   106    2
    49    34    35    1
    50     4     3    2
    51     8     6    1
    52    25    24    1
    53     6     5    1
    54     6     7    1
    55    36    35   ar
    56    36    38   ar
    57    95    94    2
    58    35    37   ar
    59    52    53    1
    60    38    39   ar
    61    54    53   ar
    62    54    56   ar
    63    90    89    1
    64   103    94   am
    65    37    39   ar
    66    94    93    1
    67    24    27    1
    68    24    23    1
    69    53    55   ar
    70    27    28    1
    71    56    58   ar
    72    18    17    2
    73   101    99   ar
    74   101   102   ar
    75    91    89    1
    76   133   132   ar
    77    89    86    1
    78    99    97   ar
    79    23    17   am
    80    23    29    1
    81    92    93    1
    82    92    87   am
    83   102   100   ar
    84    17    16    1
    85    93    96    1
    86     9    10    1
    87    55    57   ar
    88    86    87    1
    89    86    85    1
    90    28    29    1
    91    97    96    1
    92    97    98   ar
    93    58    57   ar
    94    87    88    2
    95   100    98   ar
    96    19    16    1
    97    19    20    1
    98   132   131    1
    99   132   134   ar
   100   127   128    1
   101    11    10    1
   102    11    12    2
   103    16    15    1
   104   131   128    1
   105    10    13    1
   106    21    20    1
   107    14    13    1
   108   130   129    2
   109    20    22    1
   110   128   129    1
   111   145   143    1
   112   143   144    1
   113   143   142    2
   114   142   141    1
   115    73    72    1
   116    73    74    1
   117    74    76   am
   118    74    75    2
   119   141   140    1
   120    76    77    1
   121    70    69    1
   122    77    78    1
   123    79    78    2
   124    65    66    1
   125   140   139    1
   126    78    80   am
   127   136   137    1
   128   136   139    1
   129   136   135    1
   130   137   138    2
   131    69    66    1
   132    69    71    1
   133    66    67    1
   134    80    81    1
   135    83    82    2
   136    67    68    2
   137    81    82    1
   138    81    84    1
