@<TRIPOS>MOLECULE
tmp/3u18A00.pdb
 130 129 0 0 0
SMALL
GASTEIGER

@<TRIPOS>ATOM
      1  N        -18.3170   -7.8560   10.1750 N.3    32  LYS32      -0.1245
      2  CA       -19.0960   -6.7210    9.6540 C.3    32  LYS32       0.1561
      3  C        -20.5310   -7.1250    9.4100 C.2    32  LYS32       0.2260
      4  O        -20.8150   -8.3180    9.3200 O.2    32  LYS32      -0.2867
      5  CB       -18.5140   -6.3240    8.3460 C.3    32  LYS32       0.0271
      6  CG       -17.0540   -5.9230    8.4280 C.3    32  LYS32       0.0035
      7  CD       -16.9550   -4.4920    8.4560 C.3    32  LYS32       0.0206
      8  CE       -16.7060   -3.8100    7.0950 C.3    32  LYS32       0.1093
      9  NZ       -16.7530   -2.3470    7.5010 N.3    32  LYS32      -0.1314
     10  N        -24.1220   -5.4370    4.3810 N.3    36  TYR36      -0.1241
     11  CA       -23.1920   -4.6720    3.6280 C.3    36  TYR36       0.1605
     12  C        -22.2770   -5.6030    2.8410 C.2    36  TYR36       0.2264
     13  O        -21.3960   -5.1260    2.1120 O.2    36  TYR36      -0.2867
     14  CB       -22.3210   -3.7890    4.5270 C.3    36  TYR36       0.0534
     15  CG       -23.1260   -2.7690    5.2540 C.ar   36  TYR36      -0.0201
     16  CD1      -23.8100   -1.7830    4.5210 C.ar   36  TYR36      -0.0009
     17  CD2      -23.2600   -2.8090    6.6270 C.ar   36  TYR36      -0.0009
     18  CE1      -24.6670   -0.8620    5.1700 C.ar   36  TYR36       0.0417
     19  CE2      -24.0890   -1.8900    7.2860 C.ar   36  TYR36       0.0417
     20  CZ       -24.7520   -0.9230    6.5440 C.ar   36  TYR36       0.1957
     21  OH       -25.5720   -0.0310    7.1640 O.3    36  TYR36      -0.2866
     22  N        -13.8410   -1.7430    3.9130 N.3    64  ILE64      -0.1231
     23  CA       -13.4590   -0.6070    4.7050 C.3    64  ILE64       0.1692
     24  C        -13.2060   -1.1770    6.0880 C.2    64  ILE64       0.2593
     25  O        -14.1530   -1.5040    6.8040 O.2    64  ILE64      -0.2718
     26  CB       -14.5530    0.4800    4.7520 C.3    64  ILE64       0.0266
     27  CG1      -14.7310    1.0360    3.3250 C.3    64  ILE64       0.0019
     28  CG2      -14.1430    1.6220    5.6940 C.3    64  ILE64       0.0020
     29  CD1      -15.9440    1.9570    3.1690 C.3    64  ILE64       0.0001
     30  N        -11.9370   -1.3200    6.3740 N.am   65  GLY65      -0.1942
     31  CA       -11.3840   -1.8470    7.6730 C.3    65  GLY65       0.2014
     32  C        -11.4050   -3.3660    7.6370 C.2    65  GLY65       0.2638
     33  O        -11.8580   -3.9710    6.6470 O.2    65  GLY65      -0.2714
     34  N        -10.9180   -3.9780    8.7260 N.am   66  LYS66      -0.1977
     35  CA       -10.8680   -5.4660    8.9180 C.3    66  LYS66       0.1596
     36  C         -9.8850   -6.1260    7.9540 C.2    66  LYS66       0.2287
     37  O         -9.9860   -7.3450    7.7090 O.2    66  LYS66      -0.2864
     38  CB       -12.2670   -6.1200    8.8180 C.3    66  LYS66       0.0298
     39  CG       -13.3080   -5.4980    9.7860 C.3    66  LYS66       0.0038
     40  CD       -12.6800   -5.5250   11.2220 C.3    66  LYS66       0.0206
     41  CE       -13.8160   -5.2450   12.2410 C.3    66  LYS66       0.1093
     42  NZ       -13.4020   -5.5600   13.6460 N.3    66  LYS66      -0.1314
     43  N         -7.6510   -2.7420    1.6410 N.3   100  ASP100     -0.1225
     44  CA        -8.2680   -1.9950    2.7600 C.3   100  ASP100      0.1805
     45  C         -8.6370   -0.6800    2.1230 C.2   100  ASP100      0.2598
     46  O         -7.7550    0.1320    1.8070 O.2   100  ASP100     -0.2718
     47  CB        -7.1820   -1.7220    3.8050 C.3   100  ASP100      0.1424
     48  CG        -7.7630   -1.1160    5.0800 C.2   100  ASP100      0.3668
     49  OD1       -8.9650   -0.8170    5.1720 O.co2 100  ASP100     -0.2456
     50  OD2       -6.9690   -0.9820    6.0020 O.co2 100  ASP100     -0.2456
     51  N         -9.9300   -0.4570    1.8450 N.am  101  MET101     -0.1965
     52  CA       -10.3940    0.7560    1.1600 C.3   101  MET101      0.1736
     53  C        -10.5430    1.9140    2.1320 C.2   101  MET101      0.2616
     54  O        -11.1110    1.7570    3.2400 O.2   101  MET101     -0.2715
     55  CB       -11.7660    0.5320    0.5070 C.3   101  MET101      0.0427
     56  CG       -11.7900   -0.6280   -0.5170 C.3   101  MET101      0.0599
     57  SD       -10.6140   -0.2580   -1.8630 S.3   101  MET101     -0.1393
     58  CE       -11.3400    1.1260   -2.6200 C.3   101  MET101      0.0692
     59  N        -10.0970    3.1070    1.6930 N.am  102  ASN102     -0.1958
     60  CA       -10.4600    4.3460    2.4620 C.3   102  ASN102      0.1819
     61  C        -11.9220    4.6180    2.3010 C.2   102  ASN102      0.2621
     62  O        -12.4760    4.4830    1.2210 O.2   102  ASN102     -0.2715
     63  CB        -9.5830    5.5200    1.9390 C.3   102  ASN102      0.1195
     64  CG        -9.7870    6.8050    2.7460 C.2   102  ASN102      0.2630
     65  OD1      -10.8470    7.3650    2.8310 O.2   102  ASN102     -0.2716
     66  ND2       -8.7500    7.2210    3.3740 N.am  102  ASN102     -0.0877
     67  N        -12.6050    4.9730    3.3690 N.am  103  ALA103     -0.1977
     68  CA       -14.0460    5.2040    3.2900 C.3   103  ALA103      0.1597
     69  C        -14.3940    6.2820    2.2470 C.2   103  ALA103      0.2287
     70  O        -15.4660    6.2080    1.6590 O.2   103  ALA103     -0.2864
     71  CB       -14.6150    5.6280    4.6780 C.3   103  ALA103      0.0319
     72  N        -21.5890    4.6960   -2.2960 N.3   108  TRP108     -0.1227
     73  CA       -22.7930    3.9180   -1.9650 C.3   108  TRP108      0.1737
     74  C        -23.9060    4.9510   -1.7240 C.2   108  TRP108      0.2595
     75  O        -23.6110    6.0120   -1.1540 O.2   108  TRP108     -0.2718
     76  CB       -22.4920    3.1820   -0.6660 C.3   108  TRP108      0.0564
     77  CG       -23.6360    2.3990   -0.1350 C.ar  108  TRP108      0.0003
     78  CD1      -24.2480    1.3010   -0.7260 C.ar  108  TRP108      0.0946
     79  CD2      -24.3400    2.6320    1.1340 C.ar  108  TRP108      0.0152
     80  NE1      -25.2700    0.8000    0.0930 N.ar  108  TRP108     -0.2442
     81  CE2      -25.3710    1.5770    1.2280 C.ar  108  TRP108      0.0810
     82  CE3      -24.1970    3.5550    2.1880 C.ar  108  TRP108      0.0012
     83  CZ2      -26.2240    1.4420    2.3430 C.ar  108  TRP108      0.0191
     84  CZ3      -25.0870    3.4220    3.2920 C.ar  108  TRP108      0.0001
     85  CH2      -26.0980    2.4090    3.3430 C.ar  108  TRP108      0.0015
     86  N        -25.1490    4.6440   -2.1380 N.am  109  ASN109     -0.1960
     87  CA       -26.3140    5.4540   -1.6980 C.3   109  ASN109      0.1819
     88  C        -26.1180    6.8980   -2.1130 C.2   109  ASN109      0.2621
     89  O        -26.3940    7.8160   -1.3360 O.2   109  ASN109     -0.2715
     90  CB       -26.4890    5.3290   -0.1680 C.3   109  ASN109      0.1195
     91  CG       -27.8560    4.9250    0.2240 C.2   109  ASN109      0.2630
     92  OD1      -28.7970    5.0790   -0.5640 O.2   109  ASN109     -0.2716
     93  ND2      -28.0040    4.3410    1.4620 N.am  109  ASN109     -0.0877
     94  N        -25.6840    7.1270   -3.3600 N.am  110  ASN110     -0.1958
     95  CA       -25.4590    8.5180   -3.8750 C.3   110  ASN110      0.1819
     96  C        -24.3550    9.3360   -3.2730 C.2   110  ASN110      0.2622
     97  O        -24.2300   10.5250   -3.6160 O.2   110  ASN110     -0.2715
     98  CB       -26.7440    9.3650   -3.7590 C.3   110  ASN110      0.1195
     99  CG       -27.9100    8.7250   -4.4320 C.2   110  ASN110      0.2630
    100  OD1      -27.7860    8.1240   -5.5000 O.2   110  ASN110     -0.2716
    101  ND2      -29.0590    8.8520   -3.8380 N.am  110  ASN110     -0.0877
    102  N        -23.5540    8.7580   -2.3720 N.am  111  SER111     -0.1936
    103  CA       -22.4760    9.5330   -1.7900 C.3   111  SER111      0.2055
    104  C        -21.3340    8.5680   -1.5050 C.2   111  SER111      0.2644
    105  O        -21.1450    7.6240   -2.2840 O.2   111  SER111     -0.2714
    106  CB       -22.9920   10.3950   -0.5930 C.3   111  SER111      0.2130
    107  OG       -21.9250   11.1660   -0.0970 O.3   111  SER111     -0.2179
    108  N        -20.5200    8.8280   -0.4920 N.am  112  THR112     -0.1936
    109  CA       -19.4870    7.8960   -0.0890 C.3   112  THR112      0.2028
    110  C        -19.6500    7.5840    1.3950 C.2   112  THR112      0.2642
    111  O        -20.5360    8.1450    2.0520 O.2   112  THR112     -0.2714
    112  CB       -18.0620    8.4010   -0.3160 C.3   112  THR112      0.1808
    113  OG1      -17.9040    9.5570    0.4930 O.3   112  THR112     -0.2208
    114  CG2      -17.7690    8.6730   -1.8930 C.3   112  THR112      0.0379
    115  N        -18.7980    6.7120    1.9080 N.am  113  PHE113     -0.1959
    116  CA       -18.7880    6.4380    3.3610 C.3   113  PHE113      0.1771
    117  C        -17.9770    7.4630    4.1910 C.2   113  PHE113      0.2619
    118  O        -17.8020    7.2660    5.4330 O.2   113  PHE113     -0.2715
    119  CB       -18.2690    5.0350    3.6200 C.3   113  PHE113      0.0574
    120  CG       -19.2530    3.9540    3.2290 C.ar  113  PHE113     -0.0200
    121  CD1      -20.3400    3.6380    4.0620 C.ar  113  PHE113     -0.0042
    122  CD2      -19.0360    3.2120    2.0900 C.ar  113  PHE113     -0.0042
    123  CE1      -21.2370    2.5960    3.7120 C.ar  113  PHE113     -0.0003
    124  CE2      -19.9460    2.2310    1.6980 C.ar  113  PHE113     -0.0003
    125  CZ       -20.9960    1.8730    2.5340 C.ar  113  PHE113     -0.0000
    126  N        -17.4830    8.5330    3.5570 N.am  114  ALA114     -0.1977
    127  CA       -16.6370    9.4880    4.2340 C.3   114  ALA114      0.1597
    128  C        -17.4890   10.3530    5.1310 C.2   114  ALA114      0.2287
    129  O        -16.9750   10.7950    6.1520 O.2   114  ALA114     -0.2864
    130  CB       -15.9300   10.4050    3.2300 C.3   114  ALA114      0.0319
@<TRIPOS>BOND
     1   100    99    2
     2    99   101   am
     3    99    98    1
     4    95    98    1
     5    95    94    1
     6    95    96    1
     7    97    96    2
     8    94    88   am
     9    96   102   am
    10    58    57    1
    11   102   103    1
    12    72    73    1
    13   105   104    2
    14    86    74   am
    15    86    87    1
    16    88    87    1
    17    88    89    2
    18    73    74    1
    19    73    76    1
    20   114   112    1
    21    57    56    1
    22   103   104    1
    23   103   106    1
    24    74    75    2
    25    87    90    1
    26   104   108   am
    27    78    77   ar
    28    78    80   ar
    29    76    77    1
    30   106   107    1
    31    92    91    2
    32    56    55    1
    33   108   109    1
    34   112   109    1
    35   112   113    1
    36    90    91    1
    37    77    79   ar
    38   109   110    1
    39    80    81   ar
    40    91    93   am
    41    55    52    1
    42    79    81   ar
    43    79    82   ar
    44    52    51    1
    45    52    53    1
    46    62    61    2
    47    81    83   ar
    48   110   115   am
    49   110   111    2
    50    43    44    1
    51    70    69    2
    52    59    53   am
    53    59    60    1
    54   124   122   ar
    55   124   125   ar
    56    46    45    2
    57    51    45   am
    58   115   116    1
    59    63    60    1
    60    63    64    1
    61   122   120   ar
    62    13    12    2
    63    45    44    1
    64    53    54    2
    65    82    84   ar
    66    69    68    1
    67    61    60    1
    68    61    67   am
    69    83    85   ar
    70   125   123   ar
    71    64    65    2
    72    64    66   am
    73    44    47    1
    74    12    11    1
    75    29    27    1
    76   120   119    1
    77   120   121   ar
    78   130   127    1
    79    68    67    1
    80    68    71    1
    81    84    85   ar
    82    27    26    1
    83   116   119    1
    84   116   117    1
    85   126   117   am
    86   126   127    1
    87    11    10    1
    88    11    14    1
    89   123   121   ar
    90    47    48    1
    91    22    23    1
    92   117   118    2
    93   127   128    1
    94    16    18   ar
    95    16    15   ar
    96    14    15    1
    97    23    26    1
    98    23    24    1
    99    26    28    1
   100    48    49   ar
   101    48    50   ar
   102   128   129    2
   103    18    20   ar
   104    15    17   ar
   105    24    30   am
   106    24    25    2
   107    30    31    1
   108    20    21    1
   109    20    19   ar
   110    17    19   ar
   111    33    32    2
   112     8     9    1
   113     8     7    1
   114    32    31    1
   115    32    34   am
   116    37    36    2
   117    36    35    1
   118     5     6    1
   119     5     2    1
   120     6     7    1
   121    34    35    1
   122    38    35    1
   123    38    39    1
   124     4     3    2
   125     3     2    1
   126     2     1    1
   127    39    40    1
   128    40    41    1
   129    41    42    1
