@<TRIPOS>MOLECULE
tmp/3u1bA00.pdb
 135 132 0 0 0
SMALL
GASTEIGER

@<TRIPOS>ATOM
      1  N         30.0740   48.8250   -9.7850 N.3    23  SER23      -0.1217
      2  CA        30.6240   48.3560  -11.0720 C.3    23  SER23       0.1889
      3  C         31.2360   49.5330  -11.8110 C.2    23  SER23       0.2288
      4  O         30.6420   50.6050  -11.8020 O.2    23  SER23      -0.2866
      5  CB        29.5480   47.7560  -11.9780 C.3    23  SER23       0.2089
      6  OG        28.9440   46.5840  -11.3960 O.3    23  SER23      -0.2183
      7  N         25.8130   53.4690  -11.8640 N.3    87  ILE87      -0.1231
      8  CA        25.1820   52.1360  -12.0260 C.3    87  ILE87       0.1692
      9  C         25.3850   51.4370  -10.6970 C.2    87  ILE87       0.2593
     10  O         26.1460   51.9170   -9.8630 O.2    87  ILE87      -0.2718
     11  CB        25.8850   51.3170  -13.1540 C.3    87  ILE87       0.0266
     12  CG1       25.0020   50.1800  -13.6370 C.3    87  ILE87       0.0019
     13  CG2       27.2690   50.7970  -12.6610 C.3    87  ILE87       0.0020
     14  CD1       25.3720   49.7020  -15.0710 C.3    87  ILE87       0.0001
     15  N         24.7540   50.2660  -10.5510 N.am   88  GLY88      -0.1942
     16  CA        24.8370   49.4070   -9.3870 C.3    88  GLY88       0.2014
     17  C         25.9330   48.3700   -9.5460 C.2    88  GLY88       0.2639
     18  O         27.0890   48.7130   -9.8770 O.2    88  GLY88      -0.2714
     19  N         25.6260   47.1430   -9.1690 N.am   89  GLY89      -0.1954
     20  CA        26.6640   46.1720   -8.9470 C.3    89  GLY89       0.1869
     21  C         26.3280   45.3700   -7.7160 C.2    89  GLY89       0.2309
     22  O         25.2030   44.9400   -7.5450 O.2    89  GLY89      -0.2863
     23  N         19.4760   53.3650   -8.0320 N.3   114  TYR114     -0.1227
     24  CA        18.6960   52.1590   -7.7740 C.3   114  TYR114      0.1736
     25  C         19.5820   50.9290   -7.6070 C.2   114  TYR114      0.2596
     26  O         20.8050   51.0420   -7.4650 O.2   114  TYR114     -0.2718
     27  CB        17.5710   51.9770   -8.8100 C.3   114  TYR114      0.0548
     28  CG        17.9410   51.6130  -10.2450 C.ar  114  TYR114     -0.0200
     29  CD1       17.6780   50.3380  -10.7270 C.ar  114  TYR114     -0.0009
     30  CD2       18.4540   52.5490  -11.1250 C.ar  114  TYR114     -0.0009
     31  CE1       17.9750   49.9920  -12.0290 C.ar  114  TYR114      0.0417
     32  CE2       18.7590   52.2100  -12.4460 C.ar  114  TYR114      0.0417
     33  CZ        18.5100   50.9360  -12.8900 C.ar  114  TYR114      0.1957
     34  OH        18.7700   50.6250  -14.1940 O.3   114  TYR114     -0.2866
     35  N         18.9380   49.7790   -7.5880 N.am  115  SER115     -0.1952
     36  CA        19.6510   48.5110   -7.5020 C.3   115  SER115      0.1924
     37  C         20.6010   48.4910   -6.2940 C.2   115  SER115      0.2314
     38  O         20.1720   48.7560   -5.1500 O.2   115  SER115     -0.2863
     39  CB        20.3950   48.2550   -8.8130 C.3   115  SER115      0.2116
     40  OG        20.7430   46.8920   -8.9350 O.3   115  SER115     -0.2180
     41  N         22.4670   53.2890  -17.0190 N.3   140  PRO140     -0.2116
     42  CA        21.2800   52.5590  -17.5190 C.3   140  PRO140      0.1372
     43  C         20.0770   53.4730  -17.8230 C.2   140  PRO140      0.2244
     44  O         19.4000   53.2650  -18.8200 O.2   140  PRO140     -0.2868
     45  CB        20.9450   51.5640  -16.3760 C.3   140  PRO140      0.0268
     46  CG        21.6000   52.1210  -15.1390 C.3   140  PRO140      0.0207
     47  CD        22.8200   52.9570  -15.6270 C.3   140  PRO140      0.0892
     48  N         13.7380   44.4080  -22.7530 N.3   179  GLU179     -0.1231
     49  CA        14.6210   43.7560  -23.7460 C.3   179  GLU179      0.1699
     50  C         16.1080   44.0090  -23.4790 C.2   179  GLU179      0.2592
     51  O         16.5170   45.1530  -23.2300 O.2   179  GLU179     -0.2718
     52  CB        14.2580   44.2210  -25.1680 C.3   179  GLU179      0.0402
     53  CG        12.9280   43.6860  -25.6680 C.3   179  GLU179      0.1161
     54  CD        12.6500   44.0700  -27.1360 C.2   179  GLU179      0.3649
     55  OE1       11.4910   44.3910  -27.4560 O.co2 179  GLU179     -0.2457
     56  OE2       13.5870   44.0370  -27.9670 O.co2 179  GLU179     -0.2457
     57  N         16.9280   42.9620  -23.6000 N.am  180  PHE180     -0.1962
     58  CA        18.3260   43.1230  -23.2550 C.3   180  PHE180      0.1771
     59  C         18.9690   43.3470  -24.6090 C.2   180  PHE180      0.2619
     60  O         19.5620   42.4420  -25.2160 O.2   180  PHE180     -0.2715
     61  CB        18.7700   41.7560  -22.6490 C.3   180  PHE180      0.0574
     62  CG        20.0880   41.7850  -21.9210 C.ar  180  PHE180     -0.0200
     63  CD1       20.1750   42.2900  -20.6360 C.ar  180  PHE180     -0.0042
     64  CD2       21.2350   41.2720  -22.5130 C.ar  180  PHE180     -0.0042
     65  CE1       21.3790   42.3160  -19.9540 C.ar  180  PHE180     -0.0003
     66  CE2       22.4470   41.2960  -21.8360 C.ar  180  PHE180     -0.0003
     67  CZ        22.5200   41.8210  -20.5570 C.ar  180  PHE180     -0.0000
     68  N         19.0830   44.6250  -24.9480 N.am  181  ILE181     -0.1977
     69  CA        19.5850   45.0270  -26.2710 C.3   181  ILE181      0.1596
     70  C         19.8070   46.5110  -26.2330 C.2   181  ILE181      0.2287
     71  O         19.3340   47.1640  -25.3040 O.2   181  ILE181     -0.2864
     72  CB        18.5460   44.6870  -27.3820 C.3   181  ILE181      0.0276
     73  CG1       19.1640   44.7560  -28.7770 C.3   181  ILE181      0.0022
     74  CG2       17.3160   45.6280  -27.3440 C.3   181  ILE181      0.0022
     75  CD1       20.4620   43.9690  -28.9240 C.3   181  ILE181      0.0001
     76  N         22.4350   48.3330  -25.7350 N.3   183  TRP183     -0.1241
     77  CA        23.1710   48.8320  -24.5910 C.3   183  TRP183      0.1605
     78  C         24.1650   49.9400  -25.0050 C.2   183  TRP183      0.2264
     79  O         23.9620   51.1120  -24.6710 O.2   183  TRP183     -0.2867
     80  CB        23.8810   47.6740  -23.8890 C.3   183  TRP183      0.0550
     81  CG        24.5960   48.1020  -22.6650 C.ar  183  TRP183      0.0003
     82  CD1       25.9530   48.0810  -22.4640 C.ar  183  TRP183      0.0946
     83  CD2       24.0150   48.6520  -21.4710 C.ar  183  TRP183      0.0152
     84  NE1       26.2500   48.5660  -21.2030 N.ar  183  TRP183     -0.2442
     85  CE2       25.0810   48.9320  -20.5800 C.ar  183  TRP183      0.0810
     86  CE3       22.6920   48.9180  -21.0570 C.ar  183  TRP183      0.0012
     87  CZ2       24.8750   49.4640  -19.3040 C.ar  183  TRP183      0.0191
     88  CZ3       22.4900   49.4450  -19.7740 C.ar  183  TRP183      0.0001
     89  CH2       23.5760   49.7200  -18.9210 C.ar  183  TRP183      0.0015
     90  N         15.8650   42.0320  -10.1520 N.3   240  SER240     -0.1202
     91  CA        16.0720   41.9320  -11.5880 C.3   240  SER240      0.2020
     92  C         17.0540   40.7980  -11.9040 C.2   240  SER240      0.2618
     93  O         17.9880   40.5350  -11.1390 O.2   240  SER240     -0.2717
     94  CB        16.6670   43.2390  -12.0990 C.3   240  SER240      0.2103
     95  OG        17.9110   43.4760  -11.4680 O.3   240  SER240     -0.2182
     96  N         16.7910   40.1240  -13.0260 N.am  241  ARG241     -0.1979
     97  CA        17.6580   39.0690  -13.5690 C.3   241  ARG241      0.1597
     98  C         17.9760   37.9440  -12.5690 C.2   241  ARG241      0.2287
     99  O         19.0830   37.4130  -12.5590 O.2   241  ARG241     -0.2864
    100  CB        18.9440   39.7090  -14.1360 C.3   241  ARG241      0.0334
    101  CG        18.6240   40.6860  -15.3020 C.3   241  ARG241      0.0492
    102  CD        19.8980   41.3760  -15.8790 C.3   241  ARG241      0.2205
    103  NE        20.7780   40.3790  -16.4760 N.pl3 241  ARG241     -0.0865
    104  CZ        22.0830   40.5450  -16.6890 C.cat 241  ARG241      0.5346
    105  NH1       22.6850   41.6840  -16.3540 N.pl3 241  ARG241      0.1354
    106  NH2       22.7850   39.5600  -17.2440 N.pl3 241  ARG241      0.1354
    107  N         12.9140   42.4540  -14.3000 N.3   272  GLU272     -0.1245
    108  CA        13.5780   42.3940  -15.5920 C.3   272  GLU272      0.1567
    109  C         14.1100   40.9690  -15.8900 C.2   272  GLU272      0.2260
    110  O         14.8850   40.4060  -15.1220 O.2   272  GLU272     -0.2867
    111  CB        14.7680   43.3960  -15.5880 C.3   272  GLU272      0.0388
    112  CG        15.6430   43.3000  -16.8680 C.3   272  GLU272      0.1160
    113  CD        16.9310   44.0900  -16.7370 C.2   272  GLU272      0.3649
    114  OE1       17.4480   44.2220  -15.6180 O.co2 272  GLU272     -0.2457
    115  OE2       17.3960   44.6060  -17.7710 O.co2 272  GLU272     -0.2457
    116  N         14.1670   47.7650  -12.7060 N.3   306  HIS306     -0.1241
    117  CA        15.1410   47.7190  -13.7880 C.3   306  HIS306      0.1621
    118  C         14.5470   47.7930  -15.2040 C.2   306  HIS306      0.2264
    119  O         15.2880   47.9150  -16.1840 O.2   306  HIS306     -0.2867
    120  CB        15.9750   46.4370  -13.6670 C.3   306  HIS306      0.0745
    121  CG        16.9670   46.4560  -12.5510 C.ar  306  HIS306      0.0817
    122  ND1       16.6070   46.4780  -11.2130 N.ar  306  HIS306     -0.2268
    123  CD2       18.3200   46.4080  -12.5810 C.ar  306  HIS306      0.1154
    124  CE1       17.7140   46.4390  -10.4740 C.ar  306  HIS306      0.1986
    125  NE2       18.7610   46.3950  -11.2840 N.ar  306  HIS306     -0.2212
    126  N         12.3530   49.5720  -18.3650 N.3   308  HIS308     -0.1241
    127  CA        12.1930   50.9400  -18.9160 C.3   308  HIS308      0.1621
    128  C         10.7530   51.2470  -19.3050 C.2   308  HIS308      0.2264
    129  O         10.1110   50.3800  -19.8900 O.2   308  HIS308     -0.2867
    130  CB        13.0900   51.1160  -20.1460 C.3   308  HIS308      0.0745
    131  CG        14.5360   51.1000  -19.8010 C.ar  308  HIS308      0.0817
    132  ND1       15.2190   52.2470  -19.4210 N.ar  308  HIS308     -0.2268
    133  CD2       15.4260   50.0810  -19.7200 C.ar  308  HIS308      0.1154
    134  CE1       16.4710   51.9270  -19.1500 C.ar  308  HIS308      0.1986
    135  NE2       16.6210   50.6170  -19.3070 N.ar  308  HIS308     -0.2212
@<TRIPOS>BOND
     1    75    73    1
     2    73    72    1
     3    56    54   ar
     4    55    54   ar
     5    72    74    1
     6    72    69    1
     7    54    53    1
     8    69    70    1
     9    69    68    1
    10    70    71    2
    11    76    77    1
    12    53    52    1
    13    60    59    2
    14    52    49    1
    15    78    79    2
    16    78    77    1
    17    68    59   am
    18    59    58    1
    19    77    80    1
    20    80    81    1
    21    49    50    1
    22    49    48    1
    23    57    50   am
    24    57    58    1
    25    50    51    2
    26    58    61    1
    27    81    82   ar
    28    81    83   ar
    29    61    62    1
    30    64    62   ar
    31    64    66   ar
    32    82    84   ar
    33    62    63   ar
    34    66    67   ar
    35    83    86   ar
    36    83    85   ar
    37    84    85   ar
    38    86    88   ar
    39    63    65   ar
    40    85    87   ar
    41    67    65   ar
    42   130   131    1
    43   130   127    1
    44   129   128    2
    45   131   133   ar
    46   131   132   ar
    47    88    89   ar
    48   133   135   ar
    49   132   134   ar
    50   135   134   ar
    51   128   127    1
    52    87    89   ar
    53   127   126    1
    54    44    43    2
    55    43    42    1
    56   115   113   ar
    57    42    41    1
    58    42    45    1
    59   106   104    1
    60    41    47    1
    61   112   113    1
    62   112   111    1
    63   113   114   ar
    64   104   103    2
    65   104   105    1
    66   103   102    1
    67    45    46    1
    68   119   118    2
    69   109   108    1
    70   109   110    2
    71   102   101    1
    72    47    46    1
    73   108   111    1
    74   108   107    1
    75   101   100    1
    76   118   117    1
    77    14    12    1
    78    34    33    1
    79   100    97    1
    80   117   120    1
    81   117   116    1
    82   120   121    1
    83    12    11    1
    84    97    96    1
    85    97    98    1
    86    11    13    1
    87    11     8    1
    88    96    92   am
    89    33    32   ar
    90    33    31   ar
    91   123   121   ar
    92   123   125   ar
    93    98    99    2
    94   121   122   ar
    95    32    30   ar
    96    94    91    1
    97    94    95    1
    98    31    29   ar
    99     8     7    1
   100     8     9    1
   101     5     6    1
   102     5     2    1
   103    92    91    1
   104    92    93    2
   105     3     4    2
   106     3     2    1
   107    91    90    1
   108   125   124   ar
   109   122   124   ar
   110    30    28   ar
   111     2     1    1
   112    29    28   ar
   113     9    15   am
   114     9    10    2
   115    15    16    1
   116    28    27    1
   117    18    17    2
   118    17    16    1
   119    17    19   am
   120    19    20    1
   121    20    21    1
   122    40    39    1
   123    39    36    1
   124    27    24    1
   125    23    24    1
   126    24    25    1
   127    21    22    2
   128    25    35   am
   129    25    26    2
   130    35    36    1
   131    36    37    1
   132    37    38    2
