@<TRIPOS>MOLECULE
tmp/3u1dA00.pdb
 97 94 0 0 0
SMALL
GASTEIGER

@<TRIPOS>ATOM
      1  N          8.1320   22.5670   54.6630 N.3    35  LEU35      -0.1231
      2  CA         9.5130   22.8670   54.9360 C.3    35  LEU35       0.1693
      3  C          9.7670   23.1700   56.4370 C.2    35  LEU35       0.2592
      4  O         10.8500   22.8610   56.9390 O.2    35  LEU35      -0.2718
      5  CB        10.0340   24.0260   54.0610 C.3    35  LEU35       0.0284
      6  CG        10.1590   23.7320   52.5600 C.3    35  LEU35       0.0019
      7  CD1       10.3170   25.0440   51.7630 C.3    35  LEU35       0.0001
      8  CD2       11.3180   22.7850   52.2960 C.3    35  LEU35       0.0001
      9  N          8.7930   23.7870   57.1110 N.am   36  ALA36      -0.1966
     10  CA         8.9190   24.1620   58.5080 C.3    36  ALA36       0.1728
     11  C          8.8540   22.9360   59.4560 C.2    36  ALA36       0.2616
     12  O          9.2880   23.0280   60.6130 O.2    36  ALA36      -0.2715
     13  CB         7.8320   25.1630   58.8850 C.3    36  ALA36       0.0334
     14  N          8.2840   21.8150   58.9910 N.am   37  GLN37      -0.1964
     15  CA         8.1910   20.5920   59.7900 C.3    37  GLN37       0.1718
     16  C          9.5920   20.0190   59.9500 C.2    37  GLN37       0.2458
     17  O         10.3500   19.9520   58.9930 O.2    37  GLN37      -0.2730
     18  CB         7.2590   19.5700   59.0920 C.3    37  GLN37       0.0407
     19  CG         6.9880   18.2730   59.8410 C.3    37  GLN37       0.0908
     20  CD         6.1150   18.5100   61.0630 C.2    37  GLN37       0.2608
     21  OE1        5.6550   19.6420   61.3120 O.2    37  GLN37      -0.2717
     22  NE2        5.8670   17.4570   61.8240 N.am   37  GLN37      -0.0878
     23  N          9.9500   19.6030   61.1720 N.am   38  PRO38      -0.2716
     24  CA        11.3470   19.2190   61.4110 C.3    38  PRO38       0.1536
     25  C         11.9030   18.1530   60.4590 C.2    38  PRO38       0.2599
     26  O         13.0350   18.2910   60.0250 O.2    38  PRO38      -0.2715
     27  CB        11.3230   18.7520   62.8710 C.3    38  PRO38       0.0310
     28  CG        10.3210   19.6820   63.4890 C.3    38  PRO38       0.0237
     29  CD         9.2300   19.8320   62.4370 C.3    38  PRO38       0.0939
     30  N         11.0930   17.1630   60.0670 N.am   39  ASP39      -0.1958
     31  CA        11.5280   16.1240   59.1010 C.3    39  ASP39       0.1840
     32  C         11.1090   16.4320   57.6400 C.2    39  ASP39       0.2622
     33  O         11.3870   15.6610   56.7160 O.2    39  ASP39      -0.2715
     34  CB        11.1180   14.7050   59.5730 C.3    39  ASP39       0.1450
     35  CG         9.6090   14.4960   59.6450 C.2    39  ASP39       0.3671
     36  OD1        8.8270   15.4090   59.2760 O.co2  39  ASP39      -0.2456
     37  OD2        9.1870   13.4060   60.0760 O.co2  39  ASP39      -0.2456
     38  N         10.4910   17.5920   57.4380 N.am   40  GLY40      -0.1954
     39  CA        10.1990   18.0710   56.0980 C.3    40  GLY40       0.1869
     40  C          9.2030   17.2390   55.2880 C.2    40  GLY40       0.2309
     41  O          9.2050   17.2750   54.0580 O.2    40  GLY40      -0.2863
     42  N         11.7640   30.9720   49.6130 N.3   106  TYR106     -0.1241
     43  CA        12.3080   29.7700   50.3030 C.3   106  TYR106      0.1605
     44  C         12.6560   30.0990   51.7510 C.2   106  TYR106      0.2264
     45  O         12.2500   29.3890   52.6910 O.2   106  TYR106     -0.2867
     46  CB        13.5410   29.2380   49.5720 C.3   106  TYR106      0.0534
     47  CG        14.1990   28.1520   50.3850 C.ar  106  TYR106     -0.0201
     48  CD1       13.5860   26.9230   50.5510 C.ar  106  TYR106     -0.0009
     49  CD2       15.3750   28.4010   51.0470 C.ar  106  TYR106     -0.0009
     50  CE1       14.1690   25.9480   51.3790 C.ar  106  TYR106      0.0417
     51  CE2       15.9560   27.4330   51.8600 C.ar  106  TYR106      0.0417
     52  CZ        15.3430   26.2110   51.9880 C.ar  106  TYR106      0.1957
     53  OH        15.9420   25.2530   52.7900 O.3   106  TYR106     -0.2866
     54  N          8.8980   27.9400   61.6370 N.3   113  ARG113     -0.1245
     55  CA         9.2070   26.7120   62.3640 C.3   113  ARG113      0.1563
     56  C          8.6710   26.7240   63.7910 C.2   113  ARG113      0.2260
     57  O          8.0320   25.7710   64.2420 O.2   113  ARG113     -0.2867
     58  CB        10.7190   26.4740   62.4320 C.3   113  ARG113      0.0307
     59  CG        11.3380   26.0070   61.1410 C.3   113  ARG113      0.0489
     60  CD        12.8540   26.1260   61.1330 C.3   113  ARG113      0.2205
     61  NE        13.3880   25.6230   59.8620 N.pl3 113  ARG113     -0.0865
     62  CZ        14.6380   25.7850   59.4280 C.cat 113  ARG113      0.5346
     63  NH1       14.9920   25.2660   58.2530 N.pl3 113  ARG113      0.1354
     64  NH2       15.5330   26.4640   60.1480 N.pl3 113  ARG113      0.1354
     65  N          5.9650   24.4090   65.5790 N.3   117  GLU117     -0.1245
     66  CA         6.4240   23.6660   66.7530 C.3   117  GLU117      0.1567
     67  C          5.5160   23.9130   67.9450 C.2   117  GLU117      0.2260
     68  O          5.2230   22.9640   68.6730 O.2   117  GLU117     -0.2867
     69  CB         7.8800   23.9850   67.1220 C.3   117  GLU117      0.0388
     70  CG         8.8770   22.8710   66.7800 C.3   117  GLU117      0.1160
     71  CD        10.1750   23.3860   66.1260 C.2   117  GLU117      0.3649
     72  OE1       10.8040   24.3450   66.6660 O.co2 117  GLU117     -0.2457
     73  OE2       10.5620   22.8330   65.0570 O.co2 117  GLU117     -0.2457
     74  N         17.3470   16.3550   52.8220 N.3   138  TYR138     -0.1241
     75  CA        17.1040   17.6960   52.3070 C.3   138  TYR138      0.1605
     76  C         18.4050   18.4110   51.9160 C.2   138  TYR138      0.2264
     77  O         18.4180   19.2430   51.0180 O.2   138  TYR138     -0.2867
     78  CB        16.2780   18.5220   53.3010 C.3   138  TYR138      0.0534
     79  CG        14.7640   18.4640   53.0020 C.ar  138  TYR138     -0.0201
     80  CD1       14.1890   19.2780   52.0090 C.ar  138  TYR138     -0.0009
     81  CD2       13.9330   17.5820   53.6820 C.ar  138  TYR138     -0.0009
     82  CE1       12.8320   19.2210   51.7150 C.ar  138  TYR138      0.0417
     83  CE2       12.5600   17.5300   53.3940 C.ar  138  TYR138      0.0417
     84  CZ        12.0220   18.3840   52.4260 C.ar  138  TYR138      0.1957
     85  OH        10.6630   18.3320   52.1550 O.3   138  TYR138     -0.2866
     86  N         18.6250   22.4430   50.3660 N.3   143  ALA143     -0.1231
     87  CA        18.0730   23.1330   51.5420 C.3   143  ALA143      0.1694
     88  C         19.1890   23.8070   52.3080 C.2   143  ALA143      0.2592
     89  O         20.3290   23.2950   52.3260 O.2   143  ALA143     -0.2718
     90  CB        17.3280   22.1480   52.4690 C.3   143  ALA143      0.0304
     91  N         18.8930   24.9290   52.9650 N.am  144  THR144     -0.1953
     92  CA        19.8860   25.5420   53.8650 C.3   144  THR144      0.1897
     93  C         19.9090   24.7570   55.1900 C.2   144  THR144      0.2313
     94  O         18.8500   24.4840   55.7550 O.2   144  THR144     -0.2863
     95  CB        19.5760   27.0240   54.1480 C.3   144  THR144      0.1794
     96  OG1       19.4690   27.7340   52.9110 O.3   144  THR144     -0.2208
     97  CG2       20.6880   27.6440   54.9880 C.3   144  THR144      0.0378
@<TRIPOS>BOND
     1    46    43    1
     2    46    47    1
     3    42    43    1
     4    43    44    1
     5    86    87    1
     6    47    48   ar
     7    47    49   ar
     8    48    50   ar
     9    77    76    2
    10    49    51   ar
    11    50    52   ar
    12    87    88    1
    13    87    90    1
    14    82    80   ar
    15    82    84   ar
    16    44    45    2
    17     7     6    1
    18    51    52   ar
    19    76    75    1
    20    52    53    1
    21    80    79   ar
    22    85    84    1
    23     8     6    1
    24    75    74    1
    25    75    78    1
    26    88    89    2
    27    88    91   am
    28    84    83   ar
    29     6     5    1
    30    96    95    1
    31    91    92    1
    32    79    78    1
    33    79    81   ar
    34    83    81   ar
    35    92    95    1
    36    92    93    1
    37    41    40    2
    38     5     2    1
    39    95    97    1
    40     1     2    1
    41     2     3    1
    42    93    94    2
    43    40    39    1
    44    39    38    1
    45     3     4    2
    46     3     9   am
    47    33    32    2
    48     9    10    1
    49    38    32   am
    50    32    31    1
    51    63    62    1
    52    10    13    1
    53    10    11    1
    54    14    11   am
    55    14    15    1
    56    17    16    2
    57    18    15    1
    58    18    19    1
    59    31    34    1
    60    31    30    1
    61    36    35   ar
    62    62    61    2
    63    62    64    1
    64    11    12    2
    65    34    35    1
    66    35    37   ar
    67    15    16    1
    68    19    20    1
    69    61    60    1
    70    16    23   am
    71    26    25    2
    72    30    25   am
    73    25    24    1
    74    20    21    2
    75    20    22   am
    76    60    59    1
    77    59    58    1
    78    23    24    1
    79    23    29    1
    80    24    27    1
    81    54    55    1
    82    55    58    1
    83    55    56    1
    84    29    28    1
    85    27    28    1
    86    56    57    2
    87    73    71   ar
    88    65    66    1
    89    71    72   ar
    90    71    70    1
    91    66    69    1
    92    66    67    1
    93    70    69    1
    94    67    68    2
