@<TRIPOS>MOLECULE
tmp/3u1iD00.pdb
 142 142 0 0 0
SMALL
GASTEIGER

@<TRIPOS>ATOM
      1  N         45.4590  -44.9090   44.8200 N.3    44  TRP44      -0.1227
      2  CA        45.5380  -45.7920   45.9640 C.3    44  TRP44       0.1737
      3  C         44.2330  -46.5520   46.1530 C.2    44  TRP44       0.2595
      4  O         44.2580  -47.7740   46.3200 O.2    44  TRP44      -0.2718
      5  CB        45.9000  -45.0310   47.2440 C.3    44  TRP44       0.0564
      6  CG        45.5690  -45.8140   48.4710 C.ar   44  TRP44       0.0003
      7  CD1       44.4670  -45.6660   49.2730 C.ar   44  TRP44       0.0946
      8  CD2       46.3090  -46.9140   49.0120 C.ar   44  TRP44       0.0152
      9  NE1       44.4950  -46.5800   50.2910 N.ar   44  TRP44      -0.2442
     10  CE2       45.6100  -47.3640   50.1550 C.ar   44  TRP44       0.0810
     11  CE3       47.5050  -47.5550   48.6480 C.ar   44  TRP44       0.0012
     12  CZ2       46.0670  -48.4250   50.9500 C.ar   44  TRP44       0.0191
     13  CZ3       47.9700  -48.6160   49.4440 C.ar   44  TRP44       0.0001
     14  CH2       47.2460  -49.0410   50.5820 C.ar   44  TRP44       0.0015
     15  N         43.0970  -45.8450   46.1120 N.am   45  HIS45      -0.1975
     16  CA        41.8060  -46.4960   46.4030 C.3    45  HIS45       0.1656
     17  C         41.4060  -47.5280   45.3610 C.2    45  HIS45       0.2291
     18  O         40.5400  -48.3460   45.6050 O.2    45  HIS45      -0.2864
     19  CB        40.6840  -45.4820   46.6480 C.3    45  HIS45       0.0771
     20  CG        40.0470  -44.9650   45.4010 C.ar   45  HIS45       0.0820
     21  ND1       40.4510  -43.7960   44.7880 N.ar   45  HIS45      -0.2267
     22  CD2       39.0200  -45.4460   44.6570 C.ar   45  HIS45       0.1154
     23  CE1       39.7020  -43.5810   43.7210 C.ar   45  HIS45       0.1986
     24  NE2       38.8300  -44.5710   43.6150 N.ar   45  HIS45      -0.2212
     25  N         44.6920  -50.4140   46.4740 N.3    48  ARG48      -0.1245
     26  CA        45.0150  -50.5790   47.8800 C.3    48  ARG48       0.1563
     27  C         46.2980  -51.3990   48.1130 C.2    48  ARG48       0.2260
     28  O         46.4360  -52.0880   49.1220 O.2    48  ARG48      -0.2867
     29  CB        43.8160  -51.1520   48.6330 C.3    48  ARG48       0.0307
     30  CG        42.6500  -50.1850   48.7550 C.3    48  ARG48       0.0489
     31  CD        41.7520  -50.6260   49.8910 C.3    48  ARG48       0.2205
     32  NE        40.6320  -49.7240   50.1570 N.pl3  48  ARG48      -0.0865
     33  CZ        39.4100  -49.8920   49.6520 C.cat  48  ARG48       0.5346
     34  NH1       39.1610  -50.9260   48.8500 N.pl3  48  ARG48       0.1354
     35  NH2       38.4370  -49.0270   49.9420 N.pl3  48  ARG48       0.1354
     36  N         48.2840  -42.2250   50.7350 N.3    66  VAL66      -0.1245
     37  CA        46.8560  -42.3800   50.9600 C.3    66  VAL66       0.1561
     38  C         46.1490  -41.0270   50.8420 C.2    66  VAL66       0.2260
     39  O         45.0970  -40.9170   50.2010 O.2    66  VAL66      -0.2867
     40  CB        46.5570  -43.0600   52.3210 C.3    66  VAL66       0.0252
     41  CG1       45.0390  -43.2400   52.5240 C.3    66  VAL66       0.0019
     42  CG2       47.2440  -44.4130   52.3860 C.3    66  VAL66       0.0019
     43  N         45.8830  -39.9510   47.5700 N.3    69  ASP69      -0.1239
     44  CA        45.2340  -41.0720   46.8800 C.3    69  ASP69       0.1674
     45  C         46.0250  -41.5780   45.6600 C.2    69  ASP69       0.2266
     46  O         45.4490  -41.8640   44.6020 O.2    69  ASP69      -0.2867
     47  CB        43.7880  -40.7190   46.5040 C.3    69  ASP69       0.1410
     48  CG        42.9510  -41.9350   46.2110 C.2    69  ASP69       0.3668
     49  OD1       43.2050  -43.0370   46.7680 O.co2  69  ASP69      -0.2456
     50  OD2       42.0160  -41.7870   45.4150 O.co2  69  ASP69      -0.2456
     51  N         31.6230  -36.2370   35.8610 N.3   123  ASP123     -0.1225
     52  CA        31.1670  -37.4350   36.5630 C.3   123  ASP123      0.1805
     53  C         31.2230  -38.6690   35.6350 C.2   123  ASP123      0.2598
     54  O         30.2540  -38.9750   34.9440 O.2   123  ASP123     -0.2718
     55  CB        29.7410  -37.2030   37.0930 C.3   123  ASP123      0.1424
     56  CG        29.2320  -38.3450   38.0020 C.2   123  ASP123      0.3668
     57  OD1       29.8560  -39.4310   38.0660 O.co2 123  ASP123     -0.2456
     58  OD2       28.1790  -38.1510   38.6640 O.co2 123  ASP123     -0.2456
     59  N         32.3560  -39.3710   35.6300 N.am  124  PHE124     -0.1962
     60  CA        32.5110  -40.5620   34.7920 C.3   124  PHE124      0.1771
     61  C         31.9760  -41.8110   35.4630 C.2   124  PHE124      0.2619
     62  O         31.7570  -41.8400   36.6720 O.2   124  PHE124     -0.2715
     63  CB        33.9810  -40.7580   34.3720 C.3   124  PHE124      0.0574
     64  CG        34.4690  -39.7190   33.3900 C.ar  124  PHE124     -0.0200
     65  CD1       33.9610  -39.6710   32.1000 C.ar  124  PHE124     -0.0042
     66  CD2       35.4130  -38.7800   33.7670 C.ar  124  PHE124     -0.0042
     67  CE1       34.3940  -38.7070   31.1990 C.ar  124  PHE124     -0.0003
     68  CE2       35.8530  -37.8010   32.8730 C.ar  124  PHE124     -0.0003
     69  CZ        35.3490  -37.7650   31.5880 C.ar  124  PHE124     -0.0000
     70  N         31.7600  -42.8430   34.6610 N.am  125  LYS125     -0.1964
     71  CA        31.2410  -44.1160   35.1450 C.3   125  LYS125      0.1713
     72  C         32.1760  -44.7550   36.1470 C.2   125  LYS125      0.2458
     73  O         33.3930  -44.5730   36.0570 O.2   125  LYS125     -0.2730
     74  CB        31.0340  -45.0810   33.9840 C.3   125  LYS125      0.0311
     75  CG        29.6450  -45.0210   33.3420 C.3   125  LYS125      0.0038
     76  CD        29.5220  -46.0670   32.2240 C.3   125  LYS125      0.0206
     77  CE        29.7700  -47.4910   32.7470 C.3   125  LYS125      0.1093
     78  NZ        30.1720  -48.4120   31.6420 N.3   125  LYS125     -0.1314
     79  N         31.6180  -45.5270   37.0970 N.am  126  PRO126     -0.2716
     80  CA        32.4600  -46.2370   38.0530 C.3   126  PRO126      0.1536
     81  C         33.5600  -47.0340   37.3580 C.2   126  PRO126      0.2599
     82  O         33.3130  -47.6440   36.3200 O.2   126  PRO126     -0.2715
     83  CB        31.4660  -47.1780   38.7470 C.3   126  PRO126      0.0310
     84  CG        30.2000  -46.3830   38.7670 C.3   126  PRO126      0.0237
     85  CD        30.1800  -45.7290   37.3870 C.3   126  PRO126      0.0939
     86  N         34.7620  -47.0200   37.9190 N.am  127  GLY127     -0.1941
     87  CA        35.8660  -47.7670   37.3460 C.3   127  GLY127      0.2014
     88  C         36.7250  -46.9160   36.4380 C.2   127  GLY127      0.2640
     89  O         37.6110  -47.4310   35.7650 O.2   127  GLY127     -0.2714
     90  N         36.4780  -45.6110   36.4390 N.am  128  THR128     -0.1936
     91  CA        37.2050  -44.6890   35.5790 C.3   128  THR128      0.2028
     92  C         38.3920  -44.0420   36.3280 C.2   128  THR128      0.2642
     93  O         39.2640  -43.4260   35.7170 O.2   128  THR128     -0.2714
     94  CB        36.2270  -43.6470   34.9400 C.3   128  THR128      0.1808
     95  OG1       35.1350  -44.3430   34.3010 O.3   128  THR128     -0.2208
     96  CG2       36.9080  -42.8060   33.8970 C.3   128  THR128      0.0379
     97  N         38.4340  -44.2200   37.6470 N.am  129  SER129     -0.1949
     98  CA        39.4600  -43.6120   38.4990 C.3   129  SER129      0.1924
     99  C         40.8750  -44.0000   38.0770 C.2   129  SER129      0.2314
    100  O         41.1610  -45.1660   37.7290 O.2   129  SER129     -0.2863
    101  CB        39.2380  -43.9980   39.9560 C.3   129  SER129      0.2116
    102  OG        38.0990  -43.3400   40.4710 O.3   129  SER129     -0.2180
    103  N         42.5410  -38.4530   37.5430 N.3   144  TYR144     -0.1227
    104  CA        41.1430  -38.1990   37.9170 C.3   144  TYR144      0.1736
    105  C         40.6270  -39.2800   38.8570 C.2   144  TYR144      0.2596
    106  O         40.9820  -40.4400   38.7090 O.2   144  TYR144     -0.2718
    107  CB        40.2710  -38.1480   36.6540 C.3   144  TYR144      0.0548
    108  CG        38.7790  -38.3360   36.8840 C.ar  144  TYR144     -0.0200
    109  CD1       37.9270  -37.2500   36.9420 C.ar  144  TYR144     -0.0009
    110  CD2       38.2310  -39.6120   37.0290 C.ar  144  TYR144     -0.0009
    111  CE1       36.5530  -37.4210   37.1400 C.ar  144  TYR144      0.0417
    112  CE2       36.8740  -39.8010   37.2320 C.ar  144  TYR144      0.0417
    113  CZ        36.0410  -38.7030   37.2890 C.ar  144  TYR144      0.1957
    114  OH        34.6920  -38.8960   37.4820 O.3   144  TYR144     -0.2866
    115  N         39.7830  -38.9060   39.8160 N.am  145  GLY145     -0.1942
    116  CA        39.1020  -39.8890   40.6460 C.3   145  GLY145      0.2014
    117  C         39.1700  -39.7530   42.1580 C.2   145  GLY145      0.2639
    118  O         38.7960  -40.6910   42.8550 O.2   145  GLY145     -0.2714
    119  N         39.6500  -38.6190   42.6680 N.am  146  ASN146     -0.1958
    120  CA        39.5040  -38.2800   44.0920 C.3   146  ASN146      0.1819
    121  C         38.9270  -36.8840   44.2000 C.2   146  ASN146      0.2621
    122  O         39.5950  -35.8930   43.8870 O.2   146  ASN146     -0.2715
    123  CB        40.8200  -38.3820   44.8950 C.3   146  ASN146      0.1195
    124  CG        40.5920  -38.3170   46.4280 C.2   146  ASN146      0.2630
    125  OD1       39.5490  -38.7510   46.9320 O.2   146  ASN146     -0.2716
    126  ND2       41.5710  -37.7680   47.1650 N.am  146  ASN146     -0.0877
    127  N         37.6650  -36.8080   44.6100 N.am  147  GLY147     -0.1954
    128  CA        37.0060  -35.5190   44.6820 C.3   147  GLY147      0.1869
    129  C         35.8990  -35.4570   45.6960 C.2   147  GLY147      0.2309
    130  O         35.8680  -36.2350   46.6420 O.2   147  GLY147     -0.2863
    131  N         29.6230  -34.4940   40.9500 N.3   155  TYR155     -0.1241
    132  CA        30.9150  -34.9500   41.3920 C.3   155  TYR155      0.1605
    133  C         31.9840  -34.0700   40.7820 C.2   155  TYR155      0.2264
    134  O         31.9500  -33.8000   39.5950 O.2   155  TYR155     -0.2867
    135  CB        31.1280  -36.4020   40.9710 C.3   155  TYR155      0.0534
    136  CG        32.5030  -36.9190   41.3140 C.ar  155  TYR155     -0.0201
    137  CD1       32.8060  -37.3450   42.6080 C.ar  155  TYR155     -0.0009
    138  CD2       33.5070  -36.9670   40.3440 C.ar  155  TYR155     -0.0009
    139  CE1       34.0740  -37.8240   42.9190 C.ar  155  TYR155      0.0417
    140  CE2       34.7660  -37.4180   40.6460 C.ar  155  TYR155      0.0417
    141  CZ        35.0480  -37.8630   41.9370 C.ar  155  TYR155      0.1957
    142  OH        36.3240  -38.3260   42.2410 O.3   155  TYR155     -0.2866
@<TRIPOS>BOND
     1    67    69   ar
     2    67    65   ar
     3    69    68   ar
     4    78    77    1
     5    65    64   ar
     6    76    77    1
     7    76    75    1
     8    68    66   ar
     9    75    74    1
    10    64    66   ar
    11    64    63    1
    12    96    94    1
    13    74    71    1
    14    95    94    1
    15    63    60    1
    16    70    71    1
    17    70    61   am
    18    60    61    1
    19    60    59    1
    20    94    91    1
    21    54    53    2
    22    71    72    1
    23    61    62    2
    24    91    92    1
    25    91    90    1
    26    59    53   am
    27    53    52    1
    28    93    92    2
    29    89    88    2
    30    51    52    1
    31    73    72    2
    32    72    79   am
    33    82    81    2
    34    92    97   am
    35    88    90   am
    36    88    87    1
    37    52    55    1
    38   107   108    1
    39   107   104    1
    40   108   109   ar
    41   108   110   ar
    42   109   111   ar
    43   110   112   ar
    44    55    56    1
    45    79    85    1
    46    79    80    1
    47   111   113   ar
    48   112   113   ar
    49   113   114    1
    50    87    86    1
    51    81    86   am
    52    81    80    1
    53    85    84    1
    54   103   104    1
    55    97    98    1
    56   100    99    2
    57   104   105    1
    58    56    57   ar
    59    56    58   ar
    60    80    83    1
    61    99    98    1
    62    98   101    1
    63   106   105    2
    64    83    84    1
    65   105   115   am
    66   134   133    2
    67   115   116    1
    68   101   102    1
    69   138   140   ar
    70   138   136   ar
    71   116   117    1
    72   140   141   ar
    73   133   132    1
    74   131   132    1
    75   135   136    1
    76   135   132    1
    77   136   137   ar
    78   141   142    1
    79   141   139   ar
    80   117   119   am
    81   117   118    2
    82   137   139   ar
    83   119   120    1
    84    24    23   ar
    85    24    22   ar
    86    23    21   ar
    87   122   121    2
    88   120   121    1
    89   120   123    1
    90   121   127   am
    91    46    45    2
    92   127   128    1
    93    22    20   ar
    94   128   129    1
    95    21    20   ar
    96     1     2    1
    97   123   124    1
    98    17    18    2
    99    17    16    1
   100    20    19    1
   101    50    48   ar
   102    45    44    1
   103   129   130    2
   104     2     3    1
   105     2     5    1
   106    15     3   am
   107    15    16    1
   108     3     4    2
   109    48    47    1
   110    48    49   ar
   111    16    19    1
   112   124   125    2
   113   124   126   am
   114    25    26    1
   115    47    44    1
   116    44    43    1
   117     5     6    1
   118    26    27    1
   119    26    29    1
   120    27    28    2
   121     6     8   ar
   122     6     7   ar
   123    29    30    1
   124    11     8   ar
   125    11    13   ar
   126    30    31    1
   127    34    33    1
   128     8    10   ar
   129     7     9   ar
   130    13    14   ar
   131    33    35    1
   132    33    32    2
   133    31    32    1
   134    10     9   ar
   135    10    12   ar
   136    39    38    2
   137    14    12   ar
   138    36    37    1
   139    38    37    1
   140    37    40    1
   141    40    42    1
   142    40    41    1
