@<TRIPOS>MOLECULE
tmp/3u1iB00.pdb
 163 161 0 0 0
SMALL
GASTEIGER

@<TRIPOS>ATOM
      1  N         13.2990  -13.0900   15.4230 N.3    33  VAL33      -0.1245
      2  CA        14.0400  -13.3090   14.1940 C.3    33  VAL33       0.1561
      3  C         15.5240  -13.1810   14.4840 C.2    33  VAL33       0.2260
      4  O         16.3550  -13.5390   13.6620 O.2    33  VAL33      -0.2867
      5  CB        13.6250  -12.3420   13.0320 C.3    33  VAL33       0.0252
      6  CG1       12.1620  -12.5220   12.6770 C.3    33  VAL33       0.0019
      7  CG2       13.8870  -10.8820   13.3890 C.3    33  VAL33       0.0019
      8  N         23.6010   -8.3020    9.7260 N.3    47  TRP47      -0.1227
      9  CA        22.9070   -7.8610    8.5170 C.3    47  TRP47       0.1737
     10  C         21.7140   -8.7590    8.1400 C.2    47  TRP47       0.2595
     11  O         20.6230   -8.2560    7.8610 O.2    47  TRP47      -0.2718
     12  CB        23.8770   -7.7280    7.3400 C.3    47  TRP47       0.0564
     13  CG        23.1740   -7.7360    6.0380 C.ar   47  TRP47       0.0003
     14  CD1       23.0900   -8.7720    5.1620 C.ar   47  TRP47       0.0946
     15  CD2       22.4370   -6.6530    5.4590 C.ar   47  TRP47       0.0152
     16  NE1       22.3210   -8.4190    4.0830 N.ar   47  TRP47      -0.2442
     17  CE2       21.9040   -7.1230    4.2390 C.ar   47  TRP47       0.0810
     18  CE3       22.1430   -5.3470    5.8750 C.ar   47  TRP47       0.0012
     19  CZ2       21.1140   -6.3340    3.4150 C.ar   47  TRP47       0.0191
     20  CZ3       21.3480   -4.5570    5.0640 C.ar   47  TRP47       0.0001
     21  CH2       20.8410   -5.0560    3.8380 C.ar   47  TRP47       0.0015
     22  N         21.9090  -10.0780    8.1450 N.am   48  HIS48      -0.1961
     23  CA        20.9060  -10.9750    7.5770 C.3    48  HIS48       0.1787
     24  C         19.6580  -11.0860    8.4530 C.2    48  HIS48       0.2620
     25  O         18.6420  -11.6030    8.0100 O.2    48  HIS48      -0.2715
     26  CB        21.4990  -12.3550    7.2380 C.3    48  HIS48       0.0785
     27  CG        21.6560  -13.2550    8.4270 C.ar   48  HIS48       0.0821
     28  ND1       22.8660  -13.4430    9.0660 N.ar   48  HIS48      -0.2267
     29  CD2       20.7480  -13.9970    9.1090 C.ar   48  HIS48       0.1154
     30  CE1       22.6950  -14.2630   10.0910 C.ar   48  HIS48       0.1986
     31  NE2       21.4200  -14.6160   10.1380 N.ar   48  HIS48      -0.2212
     32  N         19.7300  -10.5870    9.6870 N.am   49  VAL49      -0.1977
     33  CA        18.5870  -10.6110   10.6070 C.3    49  VAL49       0.1596
     34  C         17.5340   -9.5470   10.2410 C.2    49  VAL49       0.2287
     35  O         16.3320   -9.8300   10.2420 O.2    49  VAL49      -0.2864
     36  CB        19.0480  -10.4930   12.0960 C.3    49  VAL49       0.0276
     37  CG1       17.9090  -10.1060   13.0160 C.3    49  VAL49       0.0022
     38  CG2       19.6730  -11.8110   12.5700 C.3    49  VAL49       0.0022
     39  N         18.1770   -7.0020    7.4990 N.3    51  ARG51      -0.1245
     40  CA        18.4030   -6.4930    6.1380 C.3    51  ARG51       0.1563
     41  C         18.1530   -4.9780    6.0150 C.2    51  ARG51       0.2260
     42  O         17.7420   -4.4810    4.9640 O.2    51  ARG51      -0.2867
     43  CB        17.6290   -7.3090    5.0790 C.3    51  ARG51       0.0307
     44  CG        17.9730   -8.7910    5.0940 C.3    51  ARG51       0.0489
     45  CD        17.6380   -9.5730    3.8110 C.3    51  ARG51       0.2205
     46  NE        18.2370  -10.9160    3.8750 N.pl3  51  ARG51      -0.0865
     47  CZ        17.6780  -11.9740    4.4710 C.cat  51  ARG51       0.5346
     48  NH1       16.4810  -11.8970    5.0500 N.pl3  51  ARG51       0.1354
     49  NH2       18.3190  -13.1300    4.4900 N.pl3  51  ARG51       0.1354
     50  N         27.5200   -6.1800    4.1820 N.3    69  VAL69      -0.1245
     51  CA        27.0940   -7.5370    3.7940 C.3    69  VAL69       0.1561
     52  C         28.1840   -8.6120    3.9880 C.2    69  VAL69       0.2260
     53  O         27.9080   -9.6670    4.5520 O.2    69  VAL69      -0.2867
     54  CB        26.5060   -7.5850    2.3540 C.3    69  VAL69       0.0252
     55  CG1       26.0360   -8.9990    2.0130 C.3    69  VAL69       0.0019
     56  CG2       25.3230   -6.6360    2.2500 C.3    69  VAL69       0.0019
     57  N         28.4790   -9.2380    7.3850 N.3    72  ASP72      -0.1239
     58  CA        27.1710   -9.6360    7.9130 C.3    72  ASP72       0.1674
     59  C         26.9120   -8.9590    9.2410 C.2    72  ASP72       0.2266
     60  O         26.5520   -9.6160   10.2220 O.2    72  ASP72      -0.2867
     61  CB        27.0450  -11.1590    8.0710 C.3    72  ASP72       0.1410
     62  CG        25.5950  -11.6150    8.2180 C.2    72  ASP72       0.3668
     63  OD1       24.6650  -10.8210    7.9020 O.co2  72  ASP72      -0.2456
     64  OD2       25.3790  -12.7750    8.6540 O.co2  72  ASP72      -0.2456
     65  N         25.6800  -24.9020   18.1260 N.3   126  ASP126     -0.1225
     66  CA        24.5750  -24.9350   17.2080 C.3   126  ASP126      0.1805
     67  C         23.2580  -24.5330   17.8910 C.2   126  ASP126      0.2598
     68  O         22.5790  -25.3570   18.5030 O.2   126  ASP126     -0.2718
     69  CB        24.4880  -26.3500   16.6040 C.3   126  ASP126      0.1424
     70  CG        23.3900  -26.4940   15.5580 C.2   126  ASP126      0.3668
     71  OD1       22.7050  -25.5130   15.2230 O.co2 126  ASP126     -0.2456
     72  OD2       23.2110  -27.6050   15.0490 O.co2 126  ASP126     -0.2456
     73  N         22.8870  -23.2650   17.7540 N.am  127  PHE127     -0.1962
     74  CA        21.6610  -22.7670   18.3580 C.3   127  PHE127      0.1771
     75  C         20.5450  -22.6910   17.3250 C.2   127  PHE127      0.2619
     76  O         20.8270  -22.7420   16.1350 O.2   127  PHE127     -0.2715
     77  CB        21.9250  -21.4320   19.0510 C.3   127  PHE127      0.0574
     78  CG        22.9490  -21.5270   20.1370 C.ar  127  PHE127     -0.0200
     79  CD1       22.7010  -22.2920   21.2810 C.ar  127  PHE127     -0.0042
     80  CD2       24.1720  -20.8820   20.0170 C.ar  127  PHE127     -0.0042
     81  CE1       23.6620  -22.3990   22.3000 C.ar  127  PHE127     -0.0003
     82  CE2       25.1470  -20.9860   21.0260 C.ar  127  PHE127     -0.0003
     83  CZ        24.8940  -21.7460   22.1680 C.ar  127  PHE127     -0.0000
     84  N         19.2920  -22.6050   17.7740 N.am  128  LYS128     -0.1964
     85  CA        18.1400  -22.6600   16.8670 C.3   128  LYS128      0.1713
     86  C         18.0970  -21.4420   15.9270 C.2   128  LYS128      0.2458
     87  O         18.6920  -20.4070   16.2150 O.2   128  LYS128     -0.2730
     88  CB        16.8320  -22.7070   17.6630 C.3   128  LYS128      0.0311
     89  CG        16.5560  -24.0020   18.4420 C.3   128  LYS128      0.0038
     90  CD        16.2390  -25.1900   17.5310 C.3   128  LYS128      0.0206
     91  CE        15.9030  -26.4380   18.3510 C.3   128  LYS128      0.1093
     92  NZ        14.4730  -26.4630   18.8610 N.3   128  LYS128     -0.1314
     93  N         17.3830  -21.5570   14.7880 N.am  129  PRO129     -0.2716
     94  CA        17.1390  -20.3180   14.0670 C.3   129  PRO129      0.1536
     95  C         16.5290  -19.2590   14.9890 C.2   129  PRO129      0.2599
     96  O         15.7710  -19.5850   15.9170 O.2   129  PRO129     -0.2715
     97  CB        16.1460  -20.7380   13.0060 C.3   129  PRO129      0.0310
     98  CG        16.4930  -22.1900   12.7400 C.3   129  PRO129      0.0237
     99  CD        16.9230  -22.7470   14.0450 C.3   129  PRO129      0.0939
    100  N         16.8700  -17.9990   14.7460 N.am  130  GLY130     -0.1955
    101  CA        16.3610  -16.8960   15.5510 C.3   130  GLY130      0.1869
    102  C         17.3840  -16.3770   16.5440 C.2   130  GLY130      0.2309
    103  O         17.1770  -15.3430   17.2030 O.2   130  GLY130     -0.2863
    104  N         20.7010  -15.7620   15.8230 N.3   132  SER132     -0.1217
    105  CA        21.7800  -14.9850   15.1870 C.3   132  SER132      0.1889
    106  C         21.8330  -13.5500   15.7500 C.2   132  SER132      0.2288
    107  O         20.8050  -12.9110   15.9960 O.2   132  SER132     -0.2866
    108  CB        21.6330  -14.9660   13.6620 C.3   132  SER132      0.2089
    109  OG        21.8500  -16.2600   13.0980 O.3   132  SER132     -0.2183
    110  N         27.3450  -13.9690   16.8220 N.3   147  TYR147     -0.1227
    111  CA        27.2140  -15.3610   16.4100 C.3   147  TYR147      0.1736
    112  C         26.1390  -15.5160   15.3430 C.2   147  TYR147      0.2596
    113  O         25.0800  -14.8950   15.4340 O.2   147  TYR147     -0.2718
    114  CB        26.8820  -16.2190   17.6420 C.3   147  TYR147      0.0548
    115  CG        26.3440  -17.5890   17.3400 C.ar  147  TYR147     -0.0200
    116  CD1       27.1670  -18.6950   17.3920 C.ar  147  TYR147     -0.0009
    117  CD2       24.9910  -17.7760   16.9910 C.ar  147  TYR147     -0.0009
    118  CE1       26.6930  -19.9710   17.0960 C.ar  147  TYR147      0.0417
    119  CE2       24.4960  -19.0330   16.7010 C.ar  147  TYR147      0.0417
    120  CZ        25.3530  -20.1340   16.7710 C.ar  147  TYR147      0.1957
    121  OH        24.8750  -21.3950   16.4850 O.3   147  TYR147     -0.2866
    122  N         26.3880  -16.3520   14.3370 N.am  148  GLY148     -0.1942
    123  CA        25.3210  -16.7010   13.4190 C.3   148  GLY148      0.2014
    124  C         25.6420  -16.7190   11.9390 C.2   148  GLY148      0.2639
    125  O         24.7450  -16.9560   11.1250 O.2   148  GLY148     -0.2714
    126  N         26.8910  -16.4440   11.5790 N.am  149  ASN149     -0.1957
    127  CA        27.3120  -16.5840   10.1930 C.3   149  ASN149      0.1823
    128  C         28.4690  -17.5590   10.1450 C.2   149  ASN149      0.2661
    129  O         29.5260  -17.3040   10.7460 O.2   149  ASN149     -0.2711
    130  CB        27.6770  -15.2210    9.5670 C.3   149  ASN149      0.1195
    131  CG        28.0390  -15.3230    8.0830 C.2   149  ASN149      0.2630
    132  OD1       27.6020  -16.2260    7.3780 O.2   149  ASN149     -0.2716
    133  ND2       28.8370  -14.3910    7.6120 N.am  149  ASN149     -0.0877
    134  N         28.2710  -18.6830    9.4620 N.am  150  GLY150     -0.1716
    135  CA        29.2890  -19.7290    9.4700 C.2   150  GLY150      0.1480
    136  C         29.2370  -20.7870    8.3880 C.2   150  GLY150      0.2820
    137  O         28.8060  -20.5170    7.2600 O.2   150  GLY150     -0.2669
    138  N         29.7200  -21.9850    8.7190 N.am  151  VAL151     -0.1929
    139  CA        29.8030  -23.0910    7.7540 C.3   151  VAL151      0.1730
    140  C         29.3350  -24.3870    8.3740 C.2   151  VAL151      0.2616
    141  O         29.2190  -24.4890    9.5850 O.2   151  VAL151     -0.2715
    142  CB        31.2560  -23.3240    7.2480 C.3   151  VAL151      0.0290
    143  CG1       31.7820  -22.1010    6.5280 C.3   151  VAL151      0.0023
    144  CG2       32.1910  -23.7250    8.4080 C.3   151  VAL151      0.0023
    145  N         29.0830  -25.3820    7.5370 N.am  152  VAL152     -0.1977
    146  CA        28.7950  -26.7270    8.0050 C.3   152  VAL152      0.1596
    147  C         30.0050  -27.5950    7.6890 C.2   152  VAL152      0.2287
    148  O         30.5490  -27.5060    6.5840 O.2   152  VAL152     -0.2864
    149  CB        27.5110  -27.2750    7.3520 C.3   152  VAL152      0.0276
    150  CG1       27.2510  -28.7320    7.7650 C.3   152  VAL152      0.0022
    151  CG2       26.3080  -26.3800    7.7200 C.3   152  VAL152      0.0022
    152  N         27.7250  -27.5620   12.7810 N.3   158  TYR158     -0.1241
    153  CA        27.6030  -26.1610   12.4830 C.3   158  TYR158      0.1605
    154  C         28.6430  -25.3730   13.2540 C.2   158  TYR158      0.2264
    155  O         28.8050  -25.5810   14.4570 O.2   158  TYR158     -0.2867
    156  CB        26.2230  -25.6370   12.8300 C.3   158  TYR158      0.0534
    157  CG        26.1320  -24.1760   12.5200 C.ar  158  TYR158     -0.0201
    158  CD1       25.9850  -23.7430   11.2230 C.ar  158  TYR158     -0.0009
    159  CD2       26.2300  -23.2280   13.5190 C.ar  158  TYR158     -0.0009
    160  CE1       25.9020  -22.3900   10.9130 C.ar  158  TYR158      0.0417
    161  CE2       26.1670  -21.8810   13.2330 C.ar  158  TYR158      0.0417
    162  CZ        25.9970  -21.4720   11.9120 C.ar  158  TYR158      0.1957
    163  OH        25.9330  -20.1260   11.6110 O.3   158  TYR158     -0.2866
@<TRIPOS>BOND
     1    55    54    1
     2    56    54    1
     3    54    51    1
     4    19    21   ar
     5    19    17   ar
     6    51    52    1
     7    51    50    1
     8    45    46    1
     9    45    44    1
    10    21    20   ar
    11    46    47    2
    12    52    53    2
    13    16    17   ar
    14    16    14   ar
    15    17    15   ar
    16    47    49    1
    17    47    48    1
    18    42    41    2
    19    20    18   ar
    20    43    44    1
    21    43    40    1
    22    14    13   ar
    23    15    18   ar
    24    15    13   ar
    25    41    40    1
    26    13    12    1
    27    40    39    1
    28   143   142    1
    29   148   147    2
    30    26    23    1
    31    26    27    1
    32   142   139    1
    33   142   144    1
    34   137   136    2
    35    12     9    1
    36   149   151    1
    37   149   150    1
    38   149   146    1
    39   132   131    2
    40    57    58    1
    41   145   146    1
    42   145   140   am
    43    23    22    1
    44    23    24    1
    45   133   131   am
    46   147   146    1
    47   139   140    1
    48   139   138    1
    49    11    10    2
    50    63    62   ar
    51    58    61    1
    52    58    59    1
    53    25    24    2
    54    61    62    1
    55   131   130    1
    56    10    22   am
    57    10     9    1
    58    62    64   ar
    59   140   141    2
    60   136   138   am
    61   136   135    1
    62    27    28   ar
    63    27    29   ar
    64    24    32   am
    65     9     8    1
    66    28    30   ar
    67    29    31   ar
    68    59    60    2
    69   134   135    2
    70   134   128    1
    71   130   127    1
    72    32    33    1
    73    30    31   ar
    74   128   127    1
    75   128   129    2
    76   127   126    1
    77    34    35    2
    78    34    33    1
    79    33    36    1
    80   160   158   ar
    81   160   162   ar
    82   125   124    2
    83   158   157   ar
    84   126   124   am
    85   163   162    1
    86   162   161   ar
    87   124   123    1
    88    36    38    1
    89    36    37    1
    90   153   152    1
    91   153   156    1
    92   153   154    1
    93   157   156    1
    94   157   159   ar
    95     6     5    1
    96    98    97    1
    97    98    99    1
    98    97    94    1
    99     5     7    1
   100     5     2    1
   101   109   108    1
   102   161   159   ar
   103   154   155    2
   104   123   122    1
   105     4     3    2
   106   108   105    1
   107    99    93    1
   108    94    93    1
   109    94    95    1
   110     2     3    1
   111     2     1    1
   112   122   112   am
   113   100    95   am
   114   100   101    1
   115    93    86   am
   116    95    96    2
   117    72    70   ar
   118   105   106    1
   119   105   104    1
   120    71    70   ar
   121   112   113    2
   122   112   111    1
   123   101   102    1
   124    70    69    1
   125   106   107    2
   126    86    87    2
   127    86    85    1
   128    76    75    2
   129   111   110    1
   130   111   114    1
   131   121   120    1
   132   102   103    2
   133    69    66    1
   134   119   120   ar
   135   119   117   ar
   136   120   118   ar
   137    85    88    1
   138    85    84    1
   139   117   115   ar
   140   118   116   ar
   141    66    67    1
   142    66    65    1
   143    75    84   am
   144    75    74    1
   145   115   116   ar
   146   115   114    1
   147    90    91    1
   148    90    89    1
   149    88    89    1
   150    73    67   am
   151    73    74    1
   152    67    68    2
   153    91    92    1
   154    74    77    1
   155    77    78    1
   156    80    78   ar
   157    80    82   ar
   158    78    79   ar
   159    82    83   ar
   160    79    81   ar
   161    83    81   ar
