@<TRIPOS>MOLECULE
tmp/3u1kB00.pdb
 94 85 0 0 0
SMALL
GASTEIGER

@<TRIPOS>ATOM
      1  N        -52.9790  -39.6430   23.5350 N.3    90  ARG90      -0.1245
      2  CA       -53.2720  -39.8870   24.9370 C.3    90  ARG90       0.1563
      3  C        -52.0390  -39.7120   25.8260 C.2    90  ARG90       0.2260
      4  O        -52.1390  -39.1880   26.9270 O.2    90  ARG90      -0.2867
      5  CB       -53.9190  -41.2690   25.1260 C.3    90  ARG90       0.0307
      6  CG       -55.3810  -41.3190   24.6360 C.3    90  ARG90       0.0489
      7  CD       -55.9700  -42.7400   24.6800 C.3    90  ARG90       0.2205
      8  NE       -56.1120  -43.2750   26.0380 N.pl3  90  ARG90      -0.0865
      9  CZ       -57.1270  -42.9870   26.8520 C.cat  90  ARG90       0.5346
     10  NH1      -58.0850  -42.1610   26.4490 N.pl3  90  ARG90       0.1354
     11  NH2      -57.1890  -43.5240   28.0640 N.pl3  90  ARG90       0.1354
     12  N        -51.8060  -36.9090   28.8090 N.3    94  ARG94      -0.1245
     13  CA       -51.4580  -37.1700   30.2050 C.3    94  ARG94       0.1563
     14  C        -50.2020  -36.4090   30.6480 C.2    94  ARG94       0.2260
     15  O        -50.0200  -36.1660   31.8380 O.2    94  ARG94      -0.2867
     16  CB       -51.3130  -38.6790   30.4740 C.3    94  ARG94       0.0307
     17  CG       -52.6530  -39.4380   30.4360 C.3    94  ARG94       0.0489
     18  CD       -52.5400  -40.8550   30.9750 C.3    94  ARG94       0.2205
     19  NE       -51.7070  -41.7100   30.1370 N.pl3  94  ARG94      -0.0865
     20  CZ       -52.1650  -42.4380   29.1260 C.cat  94  ARG94       0.5346
     21  NH1      -53.4690  -42.4410   28.8320 N.pl3  94  ARG94       0.1354
     22  NH2      -51.3170  -43.1730   28.4110 N.pl3  94  ARG94       0.1354
     23  N        -60.7320  -44.2590   24.8300 N.3   404  ARG404     -0.1245
     24  CA       -60.4100  -44.8180   26.1290 C.3   404  ARG404      0.1563
     25  C        -60.3710  -46.3400   26.0510 C.2   404  ARG404      0.2260
     26  O        -59.4970  -46.9830   26.6370 O.2   404  ARG404     -0.2867
     27  CB       -61.4440  -44.3750   27.1530 C.3   404  ARG404      0.0307
     28  CG       -61.2530  -44.9720   28.5270 C.3   404  ARG404      0.0489
     29  CD       -62.1340  -44.2450   29.5120 C.3   404  ARG404      0.2205
     30  NE       -61.8700  -44.6520   30.8840 N.pl3 404  ARG404     -0.0865
     31  CZ       -62.0710  -43.8700   31.9400 C.cat 404  ARG404      0.5346
     32  NH1      -62.5310  -42.6330   31.7770 N.pl3 404  ARG404      0.1354
     33  NH2      -61.8050  -44.3230   33.1560 N.pl3 404  ARG404      0.1354
     34  N        -57.1850  -48.6370   26.8590 N.3   408  HIS408     -0.1241
     35  CA       -57.2430  -49.6620   27.8920 C.3   408  HIS408      0.1621
     36  C        -56.9140  -51.0360   27.3180 C.2   408  HIS408      0.2264
     37  O        -56.2330  -51.8210   27.9520 O.2   408  HIS408     -0.2867
     38  CB       -58.6010  -49.6500   28.5880 C.3   408  HIS408      0.0745
     39  CG       -58.8030  -48.4590   29.4690 C.ar  408  HIS408      0.0817
     40  ND1      -59.8540  -48.3490   30.3500 N.ar  408  HIS408     -0.2268
     41  CD2      -58.0760  -47.3220   29.6050 C.ar  408  HIS408      0.1154
     42  CE1      -59.7710  -47.1940   30.9910 C.ar  408  HIS408      0.1986
     43  NE2      -58.7010  -46.5540   30.5590 N.ar  408  HIS408     -0.2212
     44  N        -60.0490  -43.0770   43.0710 N.3   493  ASP493     -0.1239
     45  CA       -59.4250  -42.5690   41.8610 C.3   493  ASP493      0.1674
     46  C        -59.8550  -41.1100   41.6390 C.2   493  ASP493      0.2266
     47  O        -59.0090  -40.2180   41.5680 O.2   493  ASP493     -0.2867
     48  CB       -59.8010  -43.4440   40.6670 C.3   493  ASP493      0.1410
     49  CG       -58.9810  -43.1410   39.4280 C.2   493  ASP493      0.3668
     50  OD1      -58.1820  -42.1870   39.4460 O.co2 493  ASP493     -0.2456
     51  OD2      -59.1420  -43.8650   38.4250 O.co2 493  ASP493     -0.2456
     52  N        -53.8500  -42.7540   39.1120 N.3   499  ASP499     -0.1239
     53  CA       -54.3010  -44.1050   38.8060 C.3   499  ASP499      0.1674
     54  C        -53.0780  -44.7990   38.2310 C.2   499  ASP499      0.2266
     55  O        -52.7650  -44.6670   37.0480 O.2   499  ASP499     -0.2867
     56  CB       -55.4680  -44.0790   37.8050 C.3   499  ASP499      0.1410
     57  CG       -56.1600  -45.4290   37.6700 C.2   499  ASP499      0.3668
     58  OD1      -55.9010  -46.3130   38.5140 O.co2 499  ASP499     -0.2456
     59  OD2      -56.9740  -45.6040   36.7290 O.co2 499  ASP499     -0.2456
     60  N        -51.3380  -47.8030   37.1780 N.3   501  LYS501     -0.1245
     61  CA       -51.7080  -49.1480   36.7510 C.3   501  LYS501      0.1561
     62  C        -50.4760  -49.9000   36.2940 C.2   501  LYS501      0.2260
     63  O        -49.8210  -49.5220   35.3270 O.2   501  LYS501     -0.2867
     64  CB       -52.7760  -49.1000   35.6500 C.3   501  LYS501      0.0271
     65  CG       -54.0560  -48.3770   36.0980 C.3   501  LYS501      0.0035
     66  CD       -55.0260  -48.1170   34.9550 C.3   501  LYS501      0.0206
     67  CE       -54.5940  -46.9190   34.1400 C.3   501  LYS501      0.1093
     68  NZ       -55.5690  -46.5920   33.0520 N.3   501  LYS501     -0.1314
     69  N        -48.8570  -47.9000   33.3260 N.3   513  GLN513     -0.1245
     70  CA       -49.4820  -46.6480   32.9060 C.3   513  GLN513      0.1566
     71  C        -49.8260  -45.8330   34.1420 C.2   513  GLN513      0.2260
     72  O        -50.7420  -46.1740   34.8890 O.2   513  GLN513     -0.2867
     73  CB       -50.7270  -46.9050   32.0690 C.3   513  GLN513      0.0367
     74  CG       -51.5400  -45.6620   31.7490 C.3   513  GLN513      0.0905
     75  CD       -52.5660  -45.9310   30.6610 C.2   513  GLN513      0.2608
     76  OE1      -53.7670  -45.7050   30.8460 O.2   513  GLN513     -0.2717
     77  NE2      -52.0950  -46.4370   29.5170 N.am  513  GLN513     -0.0878
     78  N        -51.2450  -42.5720   35.4860 N.3   515  ASP515     -0.1239
     79  CA       -52.0480  -41.3880   35.2300 C.3   515  ASP515      0.1674
     80  C        -51.9970  -40.5260   36.4770 C.2   515  ASP515      0.2266
     81  O        -52.6510  -40.8180   37.4710 O.2   515  ASP515     -0.2867
     82  CB       -53.5020  -41.7600   34.9260 C.3   515  ASP515      0.1410
     83  CG       -53.6250  -42.8150   33.8340 C.2   515  ASP515      0.3668
     84  OD1      -53.6330  -42.4500   32.6410 O.co2 515  ASP515     -0.2456
     85  OD2      -53.7300  -44.0190   34.1650 O.co2 515  ASP515     -0.2456
     86  N        -52.4980  -37.0200   38.4950 N.3   517  LYS517     -0.1245
     87  CA       -53.3640  -35.8390   38.4440 C.3   517  LYS517      0.1561
     88  C        -52.7810  -34.6130   39.1540 C.2   517  LYS517      0.2260
     89  O        -53.1150  -33.4810   38.8180 O.2   517  LYS517     -0.2867
     90  CB       -54.7680  -36.1640   38.9770 C.3   517  LYS517      0.0271
     91  CG       -55.6530  -36.8820   37.9660 C.3   517  LYS517      0.0035
     92  CD       -55.8260  -38.3620   38.2760 C.3   517  LYS517      0.0206
     93  CE       -56.7270  -38.5870   39.4950 C.3   517  LYS517      0.1093
     94  NZ       -57.9830  -37.7590   39.4580 N.3   517  LYS517     -0.1314
@<TRIPOS>BOND
     1     1     2    1
     2     6     7    1
     3     6     5    1
     4     7     8    1
     5    23    24    1
     6     2     5    1
     7     2     3    1
     8     3     4    2
     9     8     9    2
    10    25    24    1
    11    25    26    2
    12    24    27    1
    13    10     9    1
    14     9    11    1
    15    34    35    1
    16    27    28    1
    17    36    35    1
    18    36    37    2
    19    35    38    1
    20    22    20    1
    21    28    29    1
    22    38    39    1
    23    12    13    1
    24    21    20    1
    25    20    19    2
    26    39    41   ar
    27    39    40   ar
    28    29    30    1
    29    77    75   am
    30    41    43   ar
    31    19    18    1
    32    13    16    1
    33    13    14    1
    34    40    42   ar
    35    17    16    1
    36    17    18    1
    37    43    42   ar
    38    14    15    2
    39    75    76    2
    40    75    74    1
    41    30    31    2
    42    74    73    1
    43    32    31    1
    44    31    33    1
    45    73    70    1
    46    84    83   ar
    47    70    69    1
    48    70    71    1
    49    68    67    1
    50    83    85   ar
    51    83    82    1
    52    67    66    1
    53    71    72    2
    54    82    79    1
    55    66    65    1
    56    79    78    1
    57    79    80    1
    58    63    62    2
    59    64    65    1
    60    64    61    1
    61    62    61    1
    62    80    81    2
    63    59    57   ar
    64    61    60    1
    65    55    54    2
    66    57    56    1
    67    57    58   ar
    68    56    53    1
    69    91    92    1
    70    91    90    1
    71    54    53    1
    72    92    93    1
    73    51    49   ar
    74    87    86    1
    75    87    90    1
    76    87    88    1
    77    53    52    1
    78    89    88    2
    79    49    50   ar
    80    49    48    1
    81    94    93    1
    82    48    45    1
    83    47    46    2
    84    46    45    1
    85    45    44    1
