@<TRIPOS>MOLECULE
tmp/3u1kB01.pdb
 101 94 0 0 0
SMALL
GASTEIGER

@<TRIPOS>ATOM
      1  N        -60.6890  -54.4370   24.0540 N.3   385  TYR385     -0.1241
      2  CA       -61.3120  -54.1740   25.3390 C.3   385  TYR385      0.1605
      3  C        -62.5730  -53.3740   25.1010 C.2   385  TYR385      0.2264
      4  O        -62.6140  -52.4980   24.2440 O.2   385  TYR385     -0.2867
      5  CB       -60.3070  -53.4400   26.2260 C.3   385  TYR385      0.0534
      6  CG       -60.8120  -52.6710   27.4300 C.ar  385  TYR385     -0.0201
      7  CD1      -61.4620  -51.4470   27.2870 C.ar  385  TYR385     -0.0009
      8  CD2      -60.5420  -53.1180   28.7180 C.ar  385  TYR385     -0.0009
      9  CE1      -61.8780  -50.7160   28.4030 C.ar  385  TYR385      0.0417
     10  CE2      -60.9510  -52.4030   29.8310 C.ar  385  TYR385      0.0417
     11  CZ       -61.6130  -51.1970   29.6680 C.ar  385  TYR385      0.1957
     12  OH       -62.0090  -50.4790   30.7790 O.3   385  TYR385     -0.2866
     13  N        -65.9090  -51.4860   27.2930 N.3   387  PHE387     -0.1241
     14  CA       -66.4380  -51.0160   28.5600 C.3   387  PHE387      0.1605
     15  C        -67.8730  -50.5780   28.2930 C.2   387  PHE387      0.2264
     16  O        -68.1350  -49.3940   28.0970 O.2   387  PHE387     -0.2867
     17  CB       -65.5930  -49.8300   29.0460 C.3   387  PHE387      0.0534
     18  CG       -65.8460  -49.4280   30.4770 C.ar  387  PHE387     -0.0203
     19  CD1      -67.1270  -49.4020   30.9970 C.ar  387  PHE387     -0.0042
     20  CD2      -64.7940  -49.0640   31.2950 C.ar  387  PHE387     -0.0042
     21  CE1      -67.3520  -49.0210   32.3060 C.ar  387  PHE387     -0.0003
     22  CE2      -65.0160  -48.6830   32.6090 C.ar  387  PHE387     -0.0003
     23  CZ       -66.2940  -48.6620   33.1120 C.ar  387  PHE387     -0.0000
     24  N        -60.7320  -44.2590   24.8300 N.3   404  ARG404     -0.1245
     25  CA       -60.4100  -44.8180   26.1290 C.3   404  ARG404      0.1563
     26  C        -60.3710  -46.3400   26.0510 C.2   404  ARG404      0.2260
     27  O        -59.4970  -46.9830   26.6370 O.2   404  ARG404     -0.2867
     28  CB       -61.4440  -44.3750   27.1530 C.3   404  ARG404      0.0307
     29  CG       -61.2530  -44.9720   28.5270 C.3   404  ARG404      0.0489
     30  CD       -62.1340  -44.2450   29.5120 C.3   404  ARG404      0.2205
     31  NE       -61.8700  -44.6520   30.8840 N.pl3 404  ARG404     -0.0865
     32  CZ       -62.0710  -43.8700   31.9400 C.cat 404  ARG404      0.5346
     33  NH1      -62.5310  -42.6330   31.7770 N.pl3 404  ARG404      0.1354
     34  NH2      -61.8050  -44.3230   33.1560 N.pl3 404  ARG404      0.1354
     35  N        -57.1850  -48.6370   26.8590 N.3   408  HIS408     -0.1241
     36  CA       -57.2430  -49.6620   27.8920 C.3   408  HIS408      0.1621
     37  C        -56.9140  -51.0360   27.3180 C.2   408  HIS408      0.2264
     38  O        -56.2330  -51.8210   27.9520 O.2   408  HIS408     -0.2867
     39  CB       -58.6010  -49.6500   28.5880 C.3   408  HIS408      0.0745
     40  CG       -58.8030  -48.4590   29.4690 C.ar  408  HIS408      0.0817
     41  ND1      -59.8540  -48.3490   30.3500 N.ar  408  HIS408     -0.2268
     42  CD2      -58.0760  -47.3220   29.6050 C.ar  408  HIS408      0.1154
     43  CE1      -59.7710  -47.1940   30.9910 C.ar  408  HIS408      0.1986
     44  NE2      -58.7010  -46.5540   30.5590 N.ar  408  HIS408     -0.2212
     45  N        -68.2270  -52.2950   36.9260 N.3   437  SER437     -0.1217
     46  CA       -67.0510  -51.4720   37.1930 C.3   437  SER437      0.1889
     47  C        -67.0770  -50.7430   38.5360 C.2   437  SER437      0.2288
     48  O        -67.8280  -49.7870   38.7210 O.2   437  SER437     -0.2866
     49  CB       -66.8490  -50.4600   36.0620 C.3   437  SER437      0.2089
     50  OG       -65.7510  -49.6070   36.3290 O.3   437  SER437     -0.2183
     51  N        -64.0140  -50.0170   39.3210 N.3   439  GLY439     -0.1210
     52  CA       -62.7070  -49.4690   38.9850 C.3   439  GLY439      0.1956
     53  C        -61.6570  -50.4810   38.5380 C.2   439  GLY439      0.2613
     54  O        -61.8390  -51.6890   38.6890 O.2   439  GLY439     -0.2717
     55  N        -60.5490  -49.9760   37.9960 N.am  440  SER440     -0.1938
     56  CA       -59.4310  -50.8090   37.5280 C.3   440  SER440      0.2055
     57  C        -59.7530  -51.8860   36.4790 C.2   440  SER440      0.2644
     58  O        -59.2990  -53.0240   36.6000 O.2   440  SER440     -0.2714
     59  CB       -58.7110  -51.4470   38.7190 C.3   440  SER440      0.2130
     60  OG       -57.5250  -52.1000   38.3020 O.3   440  SER440     -0.2179
     61  N        -60.5340  -51.5330   35.4620 N.am  441  SER441     -0.1935
     62  CA       -60.9190  -52.4860   34.4150 C.3   441  SER441      0.2055
     63  C        -59.7750  -53.0750   33.5660 C.2   441  SER441      0.2643
     64  O        -59.7670  -54.2760   33.2980 O.2   441  SER441     -0.2714
     65  CB       -61.9730  -51.8600   33.4980 C.3   441  SER441      0.2130
     66  OG       -61.4940  -50.6610   32.9170 O.3   441  SER441     -0.2179
     67  N        -58.8160  -52.2490   33.1500 N.am  442  SER442     -0.1949
     68  CA       -57.6910  -52.7300   32.3590 C.3   442  SER442      0.1924
     69  C        -56.8650  -53.7950   33.0650 C.2   442  SER442      0.2314
     70  O        -56.4310  -54.7630   32.4430 O.2   442  SER442     -0.2863
     71  CB       -56.7910  -51.5620   31.9460 C.3   442  SER442      0.2116
     72  OG       -56.2270  -50.9290   33.0790 O.3   442  SER442     -0.2180
     73  N        -63.3260  -46.7600   42.5040 N.3   490  GLY490     -0.1225
     74  CA       -63.5970  -45.6270   41.6460 C.3   490  GLY490      0.1811
     75  C        -63.4010  -44.3360   42.4160 C.2   490  GLY490      0.2280
     76  O        -62.6670  -43.4430   41.9770 O.2   490  GLY490     -0.2866
     77  N        -60.0490  -43.0770   43.0710 N.3   493  ASP493     -0.1239
     78  CA       -59.4250  -42.5690   41.8610 C.3   493  ASP493      0.1674
     79  C        -59.8550  -41.1100   41.6390 C.2   493  ASP493      0.2266
     80  O        -59.0090  -40.2180   41.5680 O.2   493  ASP493     -0.2867
     81  CB       -59.8010  -43.4440   40.6670 C.3   493  ASP493      0.1410
     82  CG       -58.9810  -43.1410   39.4280 C.2   493  ASP493      0.3668
     83  OD1      -58.1820  -42.1870   39.4460 O.co2 493  ASP493     -0.2456
     84  OD2      -59.1420  -43.8650   38.4250 O.co2 493  ASP493     -0.2456
     85  N        -53.8500  -42.7540   39.1120 N.3   499  ASP499     -0.1239
     86  CA       -54.3010  -44.1050   38.8060 C.3   499  ASP499      0.1674
     87  C        -53.0780  -44.7990   38.2310 C.2   499  ASP499      0.2266
     88  O        -52.7650  -44.6670   37.0480 O.2   499  ASP499     -0.2867
     89  CB       -55.4680  -44.0790   37.8050 C.3   499  ASP499      0.1410
     90  CG       -56.1600  -45.4290   37.6700 C.2   499  ASP499      0.3668
     91  OD1      -55.9010  -46.3130   38.5140 O.co2 499  ASP499     -0.2456
     92  OD2      -56.9740  -45.6040   36.7290 O.co2 499  ASP499     -0.2456
     93  N        -51.3380  -47.8030   37.1780 N.3   501  LYS501     -0.1245
     94  CA       -51.7080  -49.1480   36.7510 C.3   501  LYS501      0.1561
     95  C        -50.4760  -49.9000   36.2940 C.2   501  LYS501      0.2260
     96  O        -49.8210  -49.5220   35.3270 O.2   501  LYS501     -0.2867
     97  CB       -52.7760  -49.1000   35.6500 C.3   501  LYS501      0.0271
     98  CG       -54.0560  -48.3770   36.0980 C.3   501  LYS501      0.0035
     99  CD       -55.0260  -48.1170   34.9550 C.3   501  LYS501      0.0206
    100  CE       -54.5940  -46.9190   34.1400 C.3   501  LYS501      0.1093
    101  NZ       -55.5690  -46.5920   33.0520 N.3   501  LYS501     -0.1314
@<TRIPOS>BOND
     1     1     2    1
     2     4     3    2
     3    24    25    1
     4     3     2    1
     5     2     5    1
     6    26    25    1
     7    26    27    2
     8    25    28    1
     9     5     6    1
    10    35    36    1
    11    28    29    1
    12     7     6   ar
    13     7     9   ar
    14    13    14    1
    15    37    36    1
    16    37    38    2
    17     6     8   ar
    18    36    39    1
    19    16    15    2
    20    15    14    1
    21     9    11   ar
    22    29    30    1
    23    14    17    1
    24    39    40    1
    25     8    10   ar
    26    17    18    1
    27    40    42   ar
    28    40    41   ar
    29    30    31    1
    30    42    44   ar
    31    11    10   ar
    32    11    12    1
    33    41    43   ar
    34    18    19   ar
    35    18    20   ar
    36    44    43   ar
    37    31    32    2
    38    19    21   ar
    39    20    22   ar
    40    33    32    1
    41    32    34    1
    42    71    68    1
    43    71    72    1
    44    21    23   ar
    45    68    69    1
    46    68    67    1
    47    70    69    2
    48    22    23   ar
    49    66    65    1
    50   101   100    1
    51    67    63   am
    52    64    63    2
    53    65    62    1
    54    63    62    1
    55   100    99    1
    56    62    61    1
    57    99    98    1
    58    96    95    2
    59    61    57   am
    60    97    98    1
    61    97    94    1
    62    49    50    1
    63    49    46    1
    64    95    94    1
    65    57    58    2
    66    57    56    1
    67    92    90   ar
    68    94    93    1
    69    45    46    1
    70    88    87    2
    71    46    47    1
    72    56    55    1
    73    56    59    1
    74    90    89    1
    75    90    91   ar
    76    89    86    1
    77    55    53   am
    78    87    86    1
    79    60    59    1
    80    84    82   ar
    81    47    48    2
    82    53    54    2
    83    53    52    1
    84    86    85    1
    85    52    51    1
    86    82    83   ar
    87    82    81    1
    88    81    78    1
    89    80    79    2
    90    79    78    1
    91    74    75    1
    92    74    73    1
    93    78    77    1
    94    76    75    2
