@<TRIPOS>MOLECULE
tmp/3u1qB03.pdb
 90 92 0 0 0
SMALL
GASTEIGER

@<TRIPOS>ATOM
      1  N         27.1180  -27.4690   23.7650 N.3    45  PRO45      -0.2116
      2  CA        28.2920  -26.7600   24.2660 C.3    45  PRO45       0.1372
      3  C         27.9820  -26.0730   25.5780 C.2    45  PRO45       0.2244
      4  O         26.8980  -25.4870   25.7300 O.2    45  PRO45      -0.2868
      5  CB        28.5940  -25.7040   23.1780 C.3    45  PRO45       0.0268
      6  CG        27.9330  -26.2160   21.9030 C.3    45  PRO45       0.0207
      7  CD        26.7390  -27.0320   22.4000 C.3    45  PRO45       0.0892
      8  N         27.6760  -23.5860   28.7540 N.3    47  VAL47      -0.1231
      9  CA        27.3170  -22.2070   28.7400 C.3    47  VAL47       0.1692
     10  C         26.9760  -21.9010   30.1940 C.2    47  VAL47       0.2591
     11  O         26.4360  -22.7670   30.8840 O.2    47  VAL47      -0.2718
     12  CB        26.0930  -21.9720   27.7840 C.3    47  VAL47       0.0266
     13  CG1       24.7730  -22.4990   28.3840 C.3    47  VAL47       0.0020
     14  CG2       25.9940  -20.5290   27.4160 C.3    47  VAL47       0.0020
     15  N         27.3630  -20.7200   30.6720 N.am   48  GLU48      -0.1979
     16  CA        27.0270  -20.2650   32.0420 C.3    48  GLU48       0.1602
     17  C         25.4870  -20.0430   32.2410 C.2    48  GLU48       0.2287
     18  O         24.8180  -19.5270   31.3130 O.2    48  GLU48      -0.2864
     19  CB        27.7490  -18.9120   32.3530 C.3    48  GLU48       0.0415
     20  CG        27.9800  -18.7050   33.9040 C.3    48  GLU48       0.1163
     21  CD        27.8720  -17.2390   34.4860 C.2    48  GLU48       0.3649
     22  OE1       28.3900  -16.2830   33.8390 O.co2  48  GLU48      -0.2457
     23  OE2       27.2750  -17.0860   35.6190 O.co2  48  GLU48      -0.2457
     24  N         20.6710  -19.3540   30.7480 N.3    63  PRO63      -0.2102
     25  CA        21.8750  -18.5780   30.4040 C.3    63  PRO63       0.1504
     26  C         21.5360  -17.1010   30.2730 C.2    63  PRO63       0.2576
     27  O         20.3610  -16.6680   30.4920 O.2    63  PRO63      -0.2718
     28  CB        22.3080  -19.0990   29.0170 C.3    63  PRO63       0.0282
     29  CG        21.2940  -20.1990   28.6430 C.3    63  PRO63       0.0208
     30  CD        20.1330  -20.1450   29.6130 C.3    63  PRO63       0.0893
     31  N         22.5590  -16.3330   29.8980 N.am   64  GLU64      -0.1966
     32  CA        22.4370  -14.9030   29.8130 C.3    64  GLU64       0.1733
     33  C         21.6730  -14.5620   28.5540 C.2    64  GLU64       0.2616
     34  O         20.8010  -13.7360   28.6030 O.2    64  GLU64      -0.2715
     35  CB        23.8290  -14.2290   29.7880 C.3    64  GLU64       0.0429
     36  CG        23.7780  -12.7180   29.6240 C.3    64  GLU64       0.1163
     37  CD        25.1960  -11.9750   29.6160 C.2    64  GLU64       0.3649
     38  OE1       26.2770  -12.6140   29.8510 O.co2  64  GLU64      -0.2457
     39  OE2       25.1830  -10.7280   29.3760 O.co2  64  GLU64      -0.2457
     40  N         22.1000  -15.1370   27.4400 N.am   65  HIS65      -0.1959
     41  CA        21.5050  -15.0130   26.1390 C.3    65  HIS65       0.1787
     42  C         20.6760  -16.2740   25.7700 C.2    65  HIS65       0.2620
     43  O         20.8520  -17.3210   26.3610 O.2    65  HIS65      -0.2715
     44  CB        22.6070  -14.7970   25.0980 C.3    65  HIS65       0.0785
     45  CG        23.3690  -13.5270   25.3270 C.ar   65  HIS65       0.0821
     46  ND1       22.7880  -12.2760   25.1780 N.ar   65  HIS65      -0.2267
     47  CD2       24.6450  -13.3110   25.7600 C.ar   65  HIS65       0.1154
     48  CE1       23.6860  -11.3490   25.4840 C.ar   65  HIS65       0.1986
     49  NE2       24.8160  -11.9510   25.8400 N.ar   65  HIS65      -0.2212
     50  N         19.7670  -16.1240   24.8090 N.am   66  PHE66      -0.1960
     51  CA        19.0410  -17.2350   24.2510 C.3    66  PHE66       0.1771
     52  C         20.0360  -18.4160   24.0160 C.2    66  PHE66       0.2620
     53  O         21.2450  -18.1740   23.7820 O.2    66  PHE66      -0.2715
     54  CB        18.3960  -16.8140   22.9290 C.3    66  PHE66       0.0574
     55  CG        17.3400  -15.7710   23.0790 C.ar   66  PHE66      -0.0200
     56  CD1       16.6230  -15.6380   24.2740 C.ar   66  PHE66      -0.0042
     57  CD2       17.0470  -14.9030   22.0270 C.ar   66  PHE66      -0.0042
     58  CE1       15.6030  -14.7280   24.4170 C.ar   66  PHE66      -0.0003
     59  CE2       16.0360  -13.9680   22.1740 C.ar   66  PHE66      -0.0003
     60  CZ        15.2950  -13.8810   23.3880 C.ar   66  PHE66      -0.0000
     61  N         19.5420  -19.6620   24.0950 N.am   67  TRP67      -0.1960
     62  CA        20.3760  -20.8130   23.8240 C.3    67  TRP67       0.1771
     63  C         20.8350  -20.7780   22.3770 C.2    67  TRP67       0.2619
     64  O         20.1350  -20.2350   21.4940 O.2    67  TRP67      -0.2715
     65  CB        19.6290  -22.1430   24.0340 C.3    67  TRP67       0.0590
     66  CG        19.0420  -22.4230   25.3230 C.ar   67  TRP67       0.0006
     67  CD1       17.7450  -22.2740   25.6610 C.ar   67  TRP67       0.0946
     68  CD2       19.6810  -23.0410   26.4430 C.ar   67  TRP67       0.0152
     69  NE1       17.5320  -22.7090   26.9410 N.ar   67  TRP67      -0.2442
     70  CE2       18.7020  -23.2070   27.4370 C.ar   67  TRP67       0.0810
     71  CE3       21.0060  -23.4820   26.6970 C.ar   67  TRP67       0.0012
     72  CZ2       18.9720  -23.7500   28.6720 C.ar   67  TRP67       0.0191
     73  CZ3       21.2850  -24.0480   27.9340 C.ar   67  TRP67       0.0001
     74  CH2       20.2760  -24.1570   28.9180 C.ar   67  TRP67       0.0015
     75  N         21.9870  -21.3920   22.1300 N.am   68  LYS68      -0.1977
     76  CA        22.4720  -21.6980   20.7900 C.3    68  LYS68       0.1596
     77  C         21.7460  -22.9600   20.2490 C.2    68  LYS68       0.2287
     78  O         21.6620  -23.9550   20.9400 O.2    68  LYS68      -0.2864
     79  CB        24.0250  -21.9610   20.8830 C.3    68  LYS68       0.0298
     80  CG        24.7030  -22.1070   19.5500 C.3    68  LYS68       0.0038
     81  CD        26.2400  -22.5550   19.6290 C.3    68  LYS68       0.0206
     82  CE        26.8670  -22.8020   18.1890 C.3    68  LYS68       0.1093
     83  NZ        27.5210  -21.5530   17.5450 N.3    68  LYS68      -0.1314
     84  N         22.1850  -27.1330   21.1770 N.3    71  THR71      -0.1218
     85  CA        22.6300  -27.3870   22.5540 C.3    71  THR71       0.1862
     86  C         21.8030  -28.5090   23.2190 C.2    71  THR71       0.2287
     87  O         20.6390  -28.6250   22.9820 O.2    71  THR71      -0.2866
     88  CB        22.5620  -26.1200   23.4160 C.3    71  THR71       0.1770
     89  OG1       23.2950  -25.0710   22.7790 O.3    71  THR71      -0.2211
     90  CG2       23.1610  -26.3430   24.7770 C.3    71  THR71       0.0375
@<TRIPOS>BOND
     1    83    82    1
     2    82    81    1
     3    80    81    1
     4    80    79    1
     5    77    76    1
     6    77    78    2
     7    76    79    1
     8    76    75    1
     9    84    85    1
    10    64    63    2
    11     6     7    1
    12     6     5    1
    13    57    59   ar
    14    57    55   ar
    15    75    63   am
    16    59    60   ar
    17    63    62    1
    18     7     1    1
    19    85    86    1
    20    85    88    1
    21    89    88    1
    22    54    55    1
    23    54    51    1
    24    87    86    2
    25    55    56   ar
    26     5     2    1
    27    60    58   ar
    28    88    90    1
    29     1     2    1
    30    53    52    2
    31    62    65    1
    32    62    61    1
    33    52    61   am
    34    52    51    1
    35    65    66    1
    36    51    50    1
    37     2     3    1
    38    56    58   ar
    39    50    42   am
    40    44    45    1
    41    44    41    1
    42    46    45   ar
    43    46    48   ar
    44    66    67   ar
    45    66    68   ar
    46    45    47   ar
    47    48    49   ar
    48     3     4    2
    49    67    69   ar
    50    47    49   ar
    51    42    41    1
    52    42    43    2
    53    41    40    1
    54    68    71   ar
    55    68    70   ar
    56    71    73   ar
    57    69    70   ar
    58    14    12    1
    59    70    72   ar
    60    40    33   am
    61    12    13    1
    62    12     9    1
    63    73    74   ar
    64    33    34    2
    65    33    32    1
    66    29    28    1
    67    29    30    1
    68    72    74   ar
    69     9     8    1
    70     9    10    1
    71    28    25    1
    72    39    37   ar
    73    30    24    1
    74    37    36    1
    75    37    38   ar
    76    36    35    1
    77    35    32    1
    78    32    31    1
    79    31    26   am
    80    10    15   am
    81    10    11    2
    82    26    25    1
    83    26    27    2
    84    25    24    1
    85    15    16    1
    86    18    17    2
    87    16    17    1
    88    16    19    1
    89    19    20    1
    90    22    21   ar
    91    20    21    1
    92    21    23   ar
