@<TRIPOS>MOLECULE
tmp/3u1tB00.pdb
 107 102 0 0 0
SMALL
GASTEIGER

@<TRIPOS>ATOM
      1  N         23.2130   -5.7300   76.4430 N.3    36  ASN36      -0.1240
      2  CA        23.6250   -7.1230   76.6210 C.3    36  ASN36       0.1653
      3  C         25.0740   -7.3450   76.1890 C.2    36  ASN36       0.2266
      4  O         25.4580   -6.8660   75.1250 O.2    36  ASN36      -0.2867
      5  CB        22.7050   -8.0410   75.8060 C.3    36  ASN36       0.1155
      6  CG        22.8350   -9.5030   76.2020 C.2    36  ASN36       0.2627
      7  OD1       22.8220   -9.8330   77.3880 O.2    36  ASN36      -0.2716
      8  ND2       22.9380  -10.3910   75.2070 N.am   36  ASN36      -0.0877
      9  N         22.7620   -0.0680   72.8640 N.3    99  ASP99      -0.1239
     10  CA        22.1950   -1.4140   72.6370 C.3    99  ASP99       0.1674
     11  C         20.7410   -1.4780   73.1420 C.2    99  ASP99       0.2266
     12  O         19.9460   -0.6090   72.8010 O.2    99  ASP99      -0.2867
     13  CB        23.0990   -2.4910   73.2840 C.3    99  ASP99       0.1410
     14  CG        22.6600   -3.9180   72.9590 C.2    99  ASP99       0.3668
     15  OD1       22.6960   -4.2990   71.7700 O.co2  99  ASP99      -0.2456
     16  OD2       22.2920   -4.6630   73.8980 O.co2  99  ASP99      -0.2456
     17  N         26.4980  -10.8060   61.9330 N.3   138  LEU138     -0.1245
     18  CA        25.4110  -10.7590   62.9130 C.3   138  LEU138      0.1561
     19  C         24.2930  -11.7430   62.5670 C.2   138  LEU138      0.2260
     20  O         23.7330  -12.3930   63.4540 O.2   138  LEU138     -0.2867
     21  CB        24.8470   -9.3380   63.0350 C.3   138  LEU138      0.0270
     22  CG        25.8010   -8.2020   63.4250 C.3   138  LEU138      0.0019
     23  CD1       25.1550   -6.8530   63.1460 C.3   138  LEU138      0.0001
     24  CD2       26.2370   -8.3070   64.8800 C.3   138  LEU138      0.0001
     25  N         25.0950  -15.3690   63.6040 N.3   141  LEU141     -0.1231
     26  CA        25.1820  -15.3060   65.0590 C.3   141  LEU141      0.1693
     27  C         23.8030  -15.2380   65.7100 C.2   141  LEU141      0.2592
     28  O         23.4800  -16.0670   66.5630 O.2   141  LEU141     -0.2718
     29  CB        26.0340  -14.1160   65.4940 C.3   141  LEU141      0.0284
     30  CG        26.3980  -14.0210   66.9760 C.3   141  LEU141      0.0019
     31  CD1       27.4520  -15.0680   67.3420 C.3   141  LEU141      0.0001
     32  CD2       26.8890  -12.6090   67.2980 C.3   141  LEU141      0.0001
     33  N         22.9910  -14.2620   65.3120 N.am  142  PHE142     -0.1976
     34  CA        21.6440  -14.1490   65.8630 C.3   142  PHE142      0.1639
     35  C         20.7750  -15.3590   65.4940 C.2   142  PHE142      0.2290
     36  O         19.9880  -15.8220   66.3120 O.2   142  PHE142     -0.2864
     37  CB        20.9660  -12.8220   65.4760 C.3   142  PHE142      0.0560
     38  CG        21.4250  -11.6400   66.2960 C.ar  142  PHE142     -0.0200
     39  CD1       22.2190  -10.6470   65.7270 C.ar  142  PHE142     -0.0042
     40  CD2       21.0630  -11.5160   67.6350 C.ar  142  PHE142     -0.0042
     41  CE1       22.6500   -9.5460   66.4820 C.ar  142  PHE142     -0.0003
     42  CE2       21.4930  -10.4220   68.4030 C.ar  142  PHE142     -0.0003
     43  CZ        22.2880   -9.4400   67.8250 C.ar  142  PHE142     -0.0000
     44  N         27.9570  -15.3540   75.2330 N.3   160  PHE160     -0.1241
     45  CA        27.8320  -13.9080   74.9930 C.3   160  PHE160      0.1605
     46  C         28.8900  -13.1320   75.7740 C.2   160  PHE160      0.2264
     47  O         29.5050  -12.2040   75.2470 O.2   160  PHE160     -0.2867
     48  CB        26.4310  -13.3730   75.3180 C.3   160  PHE160      0.0534
     49  CG        25.9060  -12.4090   74.2930 C.ar  160  PHE160     -0.0203
     50  CD1       26.5410  -11.1860   74.0630 C.ar  160  PHE160     -0.0042
     51  CD2       24.7860  -12.7290   73.5390 C.ar  160  PHE160     -0.0042
     52  CE1       26.0490  -10.3000   73.0930 C.ar  160  PHE160     -0.0003
     53  CE2       24.2960  -11.8530   72.5660 C.ar  160  PHE160     -0.0003
     54  CZ        24.9240  -10.6410   72.3430 C.ar  160  PHE160     -0.0000
     55  N         31.5290  -13.2510   72.5320 N.3   164  ILE164     -0.1245
     56  CA        30.9390  -12.1540   71.7610 C.3   164  ILE164      0.1561
     57  C         31.4040  -10.7850   72.2630 C.2   164  ILE164      0.2260
     58  O         31.8320   -9.9400   71.4690 O.2   164  ILE164     -0.2867
     59  CB        29.3920  -12.2250   71.7100 C.3   164  ILE164      0.0252
     60  CG1       28.9460  -13.5290   71.0300 C.3   164  ILE164      0.0019
     61  CG2       28.8300  -11.0180   70.9690 C.3   164  ILE164      0.0019
     62  CD1       27.4260  -13.7000   70.9070 C.3   164  ILE164      0.0001
     63  N         32.9810   -7.8480   69.9360 N.3   168  GLY168     -0.1225
     64  CA        32.4200   -6.5310   70.2410 C.3   168  GLY168      0.1811
     65  C         33.4110   -5.4880   70.7160 C.2   168  GLY168      0.2280
     66  O         33.0640   -4.3190   70.8460 O.2   168  GLY168     -0.2866
     67  N         28.8190   -2.1250   64.3150 N.3   235  ALA235     -0.1231
     68  CA        28.0460   -3.3550   64.1940 C.3   235  ALA235      0.1694
     69  C         26.5890   -3.0250   63.8650 C.2   235  ALA235      0.2591
     70  O         26.1500   -3.2180   62.7290 O.2   235  ALA235     -0.2718
     71  CB        28.1600   -4.2090   65.4630 C.3   235  ALA235      0.0304
     72  N         25.8540   -2.5050   64.8500 N.am  236  LEU236     -0.1980
     73  CA        24.4830   -2.0670   64.6290 C.3   236  LEU236      0.1596
     74  C         24.4330   -0.7750   63.8270 C.2   236  LEU236      0.2287
     75  O         23.4560   -0.5190   63.1300 O.2   236  LEU236     -0.2864
     76  CB        23.7330   -1.9010   65.9520 C.3   236  LEU236      0.0297
     77  CG        23.5230   -3.1710   66.7850 C.3   236  LEU236      0.0022
     78  CD1       22.6850   -2.8800   68.0170 C.3   236  LEU236      0.0001
     79  CD2       22.8930   -4.2830   65.9630 C.3   236  LEU236      0.0001
     80  N         33.6320   -1.8570   67.0260 N.3   261  THR261     -0.1203
     81  CA        32.4790   -2.5880   66.5240 C.3   261  THR261      0.1994
     82  C         31.2320   -2.2120   67.3360 C.2   261  THR261      0.2618
     83  O         30.4630   -1.3450   66.9090 O.2   261  THR261     -0.2717
     84  CB        32.7260   -4.1160   66.4720 C.3   261  THR261      0.1784
     85  OG1       33.1570   -4.5770   67.7570 O.3   261  THR261     -0.2211
     86  CG2       33.8060   -4.4610   65.4330 C.3   261  THR261      0.0376
     87  N         31.0410   -2.8290   68.5030 N.am  262  HIS262     -0.1961
     88  CA        29.8020   -2.6300   69.2670 C.3   262  HIS262      0.1787
     89  C         29.9670   -1.9330   70.6190 C.2   262  HIS262      0.2620
     90  O         29.2750   -0.9530   70.9030 O.2   262  HIS262     -0.2715
     91  CB        29.0310   -3.9510   69.4590 C.3   262  HIS262      0.0785
     92  CG        27.7070   -3.7670   70.1430 C.ar  262  HIS262      0.0821
     93  ND1       26.6640   -3.0780   69.5620 N.ar  262  HIS262     -0.2267
     94  CD2       27.2690   -4.1540   71.3640 C.ar  262  HIS262      0.1154
     95  CE1       25.6360   -3.0560   70.3920 C.ar  262  HIS262      0.1986
     96  NE2       25.9760   -3.7060   71.4910 N.ar  262  HIS262     -0.2212
     97  N         30.8530   -2.4510   71.4640 N.am  263  PHE263     -0.1974
     98  CA        31.0430   -1.8800   72.7990 C.3   263  PHE263      0.1639
     99  C         32.0730   -0.7550   72.7600 C.2   263  PHE263      0.2290
    100  O         33.2070   -0.9000   73.2530 O.2   263  PHE263     -0.2864
    101  CB        31.4250   -2.9700   73.8070 C.3   263  PHE263      0.0560
    102  CG        30.4260   -4.0840   73.8920 C.ar  263  PHE263     -0.0200
    103  CD1       29.3360   -3.9960   74.7650 C.ar  263  PHE263     -0.0042
    104  CD2       30.5590   -5.2240   73.0880 C.ar  263  PHE263     -0.0042
    105  CE1       28.4070   -5.0260   74.8390 C.ar  263  PHE263     -0.0003
    106  CE2       29.6300   -6.2670   73.1640 C.ar  263  PHE263     -0.0003
    107  CZ        28.5500   -6.1640   74.0380 C.ar  263  PHE263     -0.0000
@<TRIPOS>BOND
     1    17    18    1
     2    19    18    1
     3    19    20    2
     4    70    69    2
     5    18    21    1
     6    21    22    1
     7    75    74    2
     8    23    22    1
     9    22    24    1
    10    25    26    1
    11    74    73    1
    12    69    68    1
    13    69    72   am
    14    68    67    1
    15    68    71    1
    16    73    72    1
    17    73    76    1
    18    26    29    1
    19    26    27    1
    20    33    27   am
    21    33    34    1
    22    86    84    1
    23    37    34    1
    24    37    38    1
    25    35    34    1
    26    35    36    2
    27    29    30    1
    28    27    28    2
    29    39    38   ar
    30    39    41   ar
    31    76    77    1
    32    79    77    1
    33    38    40   ar
    34    84    81    1
    35    84    85    1
    36    41    43   ar
    37    81    80    1
    38    81    82    1
    39    77    78    1
    40    83    82    2
    41    30    32    1
    42    30    31    1
    43    82    87   am
    44    40    42   ar
    45    43    42   ar
    46    87    88    1
    47    88    91    1
    48    88    89    1
    49    91    92    1
    50    93    92   ar
    51    93    95   ar
    52    63    64    1
    53    92    94   ar
    54    64    65    1
    55    95    96   ar
    56    89    90    2
    57    89    97   am
    58    65    66    2
    59    62    60    1
    60    61    59    1
    61    60    59    1
    62    94    96   ar
    63    97    98    1
    64    58    57    2
    65    59    56    1
    66    56    57    1
    67    56    55    1
    68    15    14   ar
    69    54    53   ar
    70    54    52   ar
    71    53    51   ar
    72    10     9    1
    73    10    11    1
    74    10    13    1
    75    99    98    1
    76    99   100    2
    77    98   101    1
    78    12    11    2
    79    14    13    1
    80    14    16   ar
    81   104   106   ar
    82   104   102   ar
    83    52    50   ar
    84   106   107   ar
    85    51    49   ar
    86   101   102    1
    87   102   103   ar
    88   107   105   ar
    89    50    49   ar
    90    49    48    1
    91   103   105   ar
    92    45    44    1
    93    45    48    1
    94    45    46    1
    95     4     3    2
    96     8     6   am
    97    47    46    2
    98     5     6    1
    99     5     2    1
   100     3     2    1
   101     6     7    2
   102     1     2    1
