@<TRIPOS>MOLECULE
tmp/3u1xA00.pdb
 119 113 0 0 0
SMALL
GASTEIGER

@<TRIPOS>ATOM
      1  N         -5.9980   -6.9670   47.4590 N.3    75  ASN75      -0.1240
      2  CA        -5.4070   -7.1130   48.7870 C.3    75  ASN75       0.1653
      3  C         -3.9160   -6.9080   48.6450 C.2    75  ASN75       0.2266
      4  O         -3.2070   -7.8170   48.2220 O.2    75  ASN75      -0.2867
      5  CB        -5.7070   -8.4830   49.3990 C.3    75  ASN75       0.1155
      6  CG        -5.0000   -8.7260   50.7210 C.2    75  ASN75       0.2627
      7  OD1       -4.2890   -7.8710   51.2490 O.2    75  ASN75      -0.2716
      8  ND2       -5.1650   -9.9200   51.2400 N.am   75  ASN75      -0.0877
      9  N          5.6560  -10.3430   55.2640 N.3    92  PHE92      -0.1241
     10  CA         4.8200  -10.1180   56.4610 C.3    92  PHE92       0.1605
     11  C          5.3750  -10.7940   57.7290 C.2    92  PHE92       0.2264
     12  O          5.0160  -10.4190   58.8300 O.2    92  PHE92      -0.2867
     13  CB         3.3500  -10.5320   56.2080 C.3    92  PHE92       0.0534
     14  CG         3.1150  -12.0160   56.1860 C.ar   92  PHE92      -0.0203
     15  CD1        3.0900  -12.7470   57.3640 C.ar   92  PHE92      -0.0042
     16  CD2        2.9150  -12.6920   54.9950 C.ar   92  PHE92      -0.0042
     17  CE1        2.8810  -14.1240   57.3550 C.ar   92  PHE92      -0.0003
     18  CE2        2.7050  -14.0660   54.9840 C.ar   92  PHE92      -0.0003
     19  CZ         2.6980  -14.7780   56.1670 C.ar   92  PHE92      -0.0000
     20  N          2.8440   -4.1250   58.3060 N.3    97  GLU97      -0.1245
     21  CA         2.0920   -3.8250   57.0690 C.3    97  GLU97       0.1567
     22  C          1.0450   -2.7150   57.2710 C.2    97  GLU97       0.2260
     23  O          0.2470   -2.7510   58.2010 O.2    97  GLU97      -0.2867
     24  CB         1.3510   -5.0640   56.5380 C.3    97  GLU97       0.0388
     25  CG         0.5440   -4.7900   55.2790 C.3    97  GLU97       0.1160
     26  CD        -0.2100   -6.0020   54.7350 C.2    97  GLU97       0.3649
     27  OE1       -0.1730   -7.0850   55.3290 O.co2  97  GLU97      -0.2457
     28  OE2       -0.8020   -5.8550   53.6660 O.co2  97  GLU97      -0.2457
     29  N         -2.0920   -1.7450   55.4350 N.3    99  GLN99      -0.1245
     30  CA        -2.9710   -2.5070   54.5610 C.3    99  GLN99       0.1566
     31  C         -3.5740   -1.6450   53.4790 C.2    99  GLN99       0.2260
     32  O         -4.0190   -0.5300   53.7520 O.2    99  GLN99      -0.2867
     33  CB        -4.1160   -3.1270   55.3700 C.3    99  GLN99       0.0367
     34  CG        -3.7020   -4.3000   56.1880 C.3    99  GLN99       0.0905
     35  CD        -4.8910   -5.1510   56.5710 C.2    99  GLN99       0.2608
     36  OE1       -5.3050   -5.1160   57.7410 O.2    99  GLN99      -0.2717
     37  NE2       -5.4680   -5.9170   55.5860 N.am   99  GLN99      -0.0878
     38  N         -6.5430   -2.5080   50.8570 N.3   101  ILE101     -0.1245
     39  CA        -7.4590   -3.6490   50.5920 C.3   101  ILE101      0.1561
     40  C         -8.8520   -3.1460   50.2410 C.2   101  ILE101      0.2260
     41  O         -9.2240   -2.0230   50.6200 O.2   101  ILE101     -0.2867
     42  CB        -7.4620   -4.5890   51.8300 C.3   101  ILE101      0.0252
     43  CG1       -8.2190   -5.9120   51.5790 C.3   101  ILE101      0.0019
     44  CG2       -8.0040   -3.8560   53.0520 C.3   101  ILE101      0.0019
     45  CD1       -7.8190   -7.0510   52.5090 C.3   101  ILE101      0.0001
     46  N        -14.2960   -7.8000   49.7040 N.3   106  TYR106     -0.1241
     47  CA       -13.2150   -8.7390   49.8090 C.3   106  TYR106      0.1605
     48  C        -13.8570  -10.0150   50.3000 C.2   106  TYR106      0.2264
     49  O        -14.3460  -10.0620   51.4300 O.2   106  TYR106     -0.2867
     50  CB       -12.1120   -8.2390   50.7620 C.3   106  TYR106      0.0534
     51  CG       -10.8660   -9.0980   50.6360 C.ar  106  TYR106     -0.0201
     52  CD1      -10.0780   -9.0150   49.5080 C.ar  106  TYR106     -0.0009
     53  CD2      -10.5250  -10.0090   51.6020 C.ar  106  TYR106     -0.0009
     54  CE1       -8.9640   -9.8250   49.3390 C.ar  106  TYR106      0.0417
     55  CE2       -9.3990  -10.8340   51.4520 C.ar  106  TYR106      0.0417
     56  CZ        -8.6210  -10.7150   50.3280 C.ar  106  TYR106      0.1957
     57  OH        -7.5190  -11.4950   50.1550 O.3   106  TYR106     -0.2866
     58  N        -13.5680  -12.7500   51.8170 N.3   108  TRP108     -0.1241
     59  CA       -13.1420  -13.6060   52.9120 C.3   108  TRP108      0.1605
     60  C        -14.3370  -13.9680   53.7940 C.2   108  TRP108      0.2264
     61  O        -15.1670  -13.1090   54.1060 O.2   108  TRP108     -0.2867
     62  CB       -12.0750  -12.8980   53.7220 C.3   108  TRP108      0.0550
     63  CG       -11.6240  -13.6710   54.8820 C.ar  108  TRP108      0.0003
     64  CD1      -10.8060  -14.7690   54.8920 C.ar  108  TRP108      0.0946
     65  CD2      -11.9710  -13.4160   56.2220 C.ar  108  TRP108      0.0152
     66  NE1      -10.6370  -15.2190   56.1760 N.ar  108  TRP108     -0.2442
     67  CE2      -11.3390  -14.3950   57.0130 C.ar  108  TRP108      0.0810
     68  CE3      -12.7630  -12.4500   56.8410 C.ar  108  TRP108      0.0012
     69  CZ2      -11.4710  -14.4290   58.3900 C.ar  108  TRP108      0.0191
     70  CZ3      -12.9040  -12.5020   58.2060 C.ar  108  TRP108      0.0001
     71  CH2      -12.2570  -13.4690   58.9650 C.ar  108  TRP108      0.0015
     72  N        -14.5370   -8.3440   55.6700 N.3   117  LEU117     -0.1245
     73  CA       -13.4860   -7.9870   56.6260 C.3   117  LEU117      0.1561
     74  C        -14.0950   -7.2570   57.8050 C.2   117  LEU117      0.2260
     75  O        -15.0630   -6.5100   57.6490 O.2   117  LEU117     -0.2867
     76  CB       -12.4780   -7.0950   55.9130 C.3   117  LEU117      0.0270
     77  CG       -11.7660   -7.6800   54.6990 C.3   117  LEU117      0.0019
     78  CD1      -11.0780   -6.5480   53.8580 C.3   117  LEU117      0.0001
     79  CD2      -10.7480   -8.6800   55.1510 C.3   117  LEU117      0.0001
     80  N         -9.1870   -5.2280   59.8650 N.3   121  GLN121     -0.1245
     81  CA        -8.5140   -5.8950   58.7880 C.3   121  GLN121      0.1566
     82  C         -8.5400   -5.0770   57.4800 C.2   121  GLN121      0.2260
     83  O         -8.2970   -5.6030   56.3910 O.2   121  GLN121     -0.2867
     84  CB        -9.1970   -7.2340   58.4980 C.3   121  GLN121      0.0367
     85  CG        -9.2850   -8.2010   59.6490 C.3   121  GLN121      0.0905
     86  CD       -10.2310   -9.3360   59.3010 C.2   121  GLN121      0.2608
     87  OE1      -11.4400   -9.1710   59.3490 O.2   121  GLN121     -0.2717
     88  NE2       -9.6750  -10.4720   58.9010 N.am  121  GLN121     -0.0878
     89  N         -1.3270   -4.0380   60.1900 N.3   127  TYR127     -0.1241
     90  CA        -1.9750   -5.3650   60.1770 C.3   127  TYR127      0.1605
     91  C         -1.8350   -6.1140   61.5090 C.2   127  TYR127      0.2264
     92  O         -0.7310   -6.3640   61.9590 O.2   127  TYR127     -0.2867
     93  CB        -1.4130   -6.2100   59.0240 C.3   127  TYR127      0.0534
     94  CG        -1.7820   -7.6930   59.0580 C.ar  127  TYR127     -0.0201
     95  CD1       -3.0300   -8.1300   58.6450 C.ar  127  TYR127     -0.0009
     96  CD2       -0.8660   -8.6470   59.5030 C.ar  127  TYR127     -0.0009
     97  CE1       -3.3700   -9.4870   58.6710 C.ar  127  TYR127      0.0417
     98  CE2       -1.1850  -10.0100   59.5260 C.ar  127  TYR127      0.0417
     99  CZ        -2.4370  -10.4230   59.1070 C.ar  127  TYR127      0.1957
    100  OH        -2.7360  -11.7680   59.1470 O.3   127  TYR127     -0.2866
    101  N          3.4030   -5.2830   48.4350 N.3   197  GLN197     -0.1245
    102  CA         2.9050   -6.6200   48.1410 C.3   197  GLN197      0.1566
    103  C          1.5870   -6.5970   47.4590 C.2   197  GLN197      0.2260
    104  O          0.8110   -5.6850   47.6450 O.2   197  GLN197     -0.2867
    105  CB         2.8670   -7.4670   49.4040 C.3   197  GLN197      0.0367
    106  CG         1.8510   -7.1960   50.4170 C.3   197  GLN197      0.0905
    107  CD         1.9800   -8.1860   51.5730 C.2   197  GLN197      0.2608
    108  OE1        3.0290   -8.8250   51.7640 O.2   197  GLN197     -0.2717
    109  NE2        0.9380   -8.3110   52.3390 N.am  197  GLN197     -0.0878
    110  N         -1.4240   -9.4000   47.0090 N.3   199  HIS199     -0.1241
    111  CA        -1.9750  -10.7480   47.2290 C.3   199  HIS199      0.1621
    112  C         -3.3510  -10.9470   46.5830 C.2   199  HIS199      0.2264
    113  O         -4.0840  -11.8600   46.9590 O.2   199  HIS199     -0.2867
    114  CB        -2.0710  -11.0210   48.7150 C.3   199  HIS199      0.0745
    115  CG        -0.7500  -11.1890   49.3770 C.ar  199  HIS199      0.0817
    116  ND1       -0.6310  -11.4690   50.7180 N.ar  199  HIS199     -0.2268
    117  CD2        0.5100  -11.1350   48.8860 C.ar  199  HIS199      0.1154
    118  CE1        0.6490  -11.5650   51.0300 C.ar  199  HIS199      0.1986
    119  NE2        1.3610  -11.3640   49.9360 N.ar  199  HIS199     -0.2212
@<TRIPOS>BOND
     1   112   113    2
     2   112   111    1
     3   110   111    1
     4   111   114    1
     5   103   104    2
     6   103   102    1
     7     1     2    1
     8   102   101    1
     9   102   105    1
    10     4     3    2
    11     3     2    1
    12   114   115    1
    13     2     5    1
    14   117   115   ar
    15   117   119   ar
    16    54    52   ar
    17    54    56   ar
    18   115   116   ar
    19     5     6    1
    20   105   106    1
    21    52    51   ar
    22    46    47    1
    23    47    48    1
    24    47    50    1
    25   119   118   ar
    26    57    56    1
    27    40    39    1
    28    40    41    2
    29    48    49    2
    30    56    55   ar
    31   106   107    1
    32    39    38    1
    33    39    42    1
    34    51    50    1
    35    51    53   ar
    36   116   118   ar
    37     6     8   am
    38     6     7    2
    39    55    53   ar
    40   107   108    2
    41   107   109   am
    42    43    42    1
    43    43    45    1
    44    58    59    1
    45    42    44    1
    46    59    62    1
    47    59    60    1
    48    31    32    2
    49    31    30    1
    50    28    26   ar
    51    62    63    1
    52    60    61    2
    53    78    77    1
    54    30    33    1
    55    30    29    1
    56    77    79    1
    57    77    76    1
    58    26    25    1
    59    26    27   ar
    60    63    64   ar
    61    63    65   ar
    62    64    66   ar
    63    18    16   ar
    64    18    19   ar
    65    16    14   ar
    66     9    10    1
    67    25    24    1
    68    33    34    1
    69    37    35   am
    70    72    73    1
    71    76    73    1
    72    19    17   ar
    73    66    67   ar
    74    14    13    1
    75    14    15   ar
    76    34    35    1
    77    13    10    1
    78    65    68   ar
    79    65    67   ar
    80    83    82    2
    81    10    11    1
    82    24    21    1
    83    35    36    2
    84    73    74    1
    85    68    70   ar
    86    67    69   ar
    87    21    22    1
    88    21    20    1
    89    22    23    2
    90    17    15   ar
    91    82    81    1
    92    75    74    2
    93    11    12    2
    94    70    71   ar
    95    69    71   ar
    96    84    81    1
    97    84    85    1
    98    95    97   ar
    99    95    94   ar
   100    97    99   ar
   101    81    80    1
   102    88    86   am
   103    93    94    1
   104    93    90    1
   105    94    96   ar
   106    99   100    1
   107    99    98   ar
   108    86    87    2
   109    86    85    1
   110    96    98   ar
   111    90    89    1
   112    90    91    1
   113    91    92    2
