@<TRIPOS>MOLECULE
tmp/3u1yA00.pdb
 210 201 0 0 0
SMALL
GASTEIGER

@<TRIPOS>ATOM
      1  N         15.0540   13.0110   31.3060 N.3    18  LEU18      -0.1231
      2  CA        14.9920   12.0560   30.1840 C.3    18  LEU18       0.1693
      3  C         13.9920   12.5240   29.1160 C.2    18  LEU18       0.2592
      4  O         14.2980   12.5260   27.9230 O.2    18  LEU18      -0.2718
      5  CB        14.5500   10.6770   30.7180 C.3    18  LEU18       0.0284
      6  CG        14.1250    9.6100   29.6760 C.3    18  LEU18       0.0019
      7  CD1       15.2870    9.2320   28.7640 C.3    18  LEU18       0.0001
      8  CD2       13.5670    8.3880   30.3650 C.3    18  LEU18       0.0001
      9  N         12.7910   12.9030   29.5540 N.am   19  HIS19      -0.1976
     10  CA        11.7230   13.2670   28.6460 C.3    19  HIS19       0.1656
     11  C         11.7690   14.7010   28.1610 C.2    19  HIS19       0.2291
     12  O         11.5550   14.9200   26.9910 O.2    19  HIS19      -0.2864
     13  CB        10.3700   12.8760   29.2520 C.3    19  HIS19       0.0771
     14  CG        10.1770   11.3900   29.3300 C.ar   19  HIS19       0.0820
     15  ND1       10.3920   10.5720   28.2270 N.ar   19  HIS19      -0.2267
     16  CD2        9.7720   10.6230   30.3670 C.ar   19  HIS19       0.1154
     17  CE1       10.1320    9.3390   28.6330 C.ar   19  HIS19       0.1986
     18  NE2        9.7320    9.3170   29.9030 N.ar   19  HIS19      -0.2212
     19  N          4.7910    7.6220   30.0230 N.3    62  MET62      -0.1245
     20  CA         6.0350    6.8550   29.8690 C.3    62  MET62       0.1570
     21  C          6.9910    7.1400   31.0280 C.2    62  MET62       0.2261
     22  O          8.2150    7.1770   30.8670 O.2    62  MET62      -0.2867
     23  CB         6.6750    7.1610   28.5170 C.3    62  MET62       0.0387
     24  CG         7.2130    5.9450   27.8980 C.3    62  MET62       0.0595
     25  SD         7.8160    6.3140   26.2690 S.3    62  MET62      -0.1393
     26  CE         8.3020    4.6230   25.7850 C.3    62  MET62       0.0692
     27  N          9.0250   11.8440   36.1150 N.3    75  THR75      -0.1218
     28  CA        10.0110   10.7560   36.2380 C.3    75  THR75       0.1862
     29  C         10.5570   10.5960   37.6560 C.2    75  THR75       0.2287
     30  O         11.7680   10.6550   37.8910 O.2    75  THR75      -0.2866
     31  CB        11.0850   10.8420   35.1190 C.3    75  THR75       0.1770
     32  OG1       10.4930   11.3600   33.9280 O.3    75  THR75      -0.2211
     33  CG2       11.7250    9.4930   34.8190 C.3    75  THR75       0.0375
     34  N         10.0360    7.8100   39.5100 N.3    77  GLU77      -0.1231
     35  CA        10.2410    6.3750   39.7780 C.3    77  GLU77       0.1699
     36  C         11.6600    5.9090   40.1230 C.2    77  GLU77       0.2592
     37  O         11.8140    5.0580   40.9900 O.2    77  GLU77      -0.2718
     38  CB         9.6170    5.4810   38.6790 C.3    77  GLU77       0.0402
     39  CG        10.2010    5.6710   37.2800 C.3    77  GLU77       0.1161
     40  CD         9.5780    6.7160   36.3640 C.2    77  GLU77       0.3649
     41  OE1        8.8770    7.6360   36.8500 O.co2  77  GLU77      -0.2457
     42  OE2        9.8170    6.6140   35.1400 O.co2  77  GLU77      -0.2457
     43  N         12.6860    6.4300   39.4570 N.am   78  HIS78      -0.1976
     44  CA        14.0520    5.9410   39.7440 C.3    78  HIS78       0.1656
     45  C         14.6110    6.4640   41.0630 C.2    78  HIS78       0.2291
     46  O         15.2300    5.7090   41.8120 O.2    78  HIS78      -0.2864
     47  CB        14.9910    6.1970   38.5680 C.3    78  HIS78       0.0771
     48  CG        14.4890    5.6590   37.2550 C.ar   78  HIS78       0.0820
     49  ND1       14.8950    6.2120   36.0550 N.ar   78  HIS78      -0.2267
     50  CD2       13.6410    4.6370   36.9950 C.ar   78  HIS78       0.1154
     51  CE1       14.2790    5.5200   35.1140 C.ar   78  HIS78       0.1986
     52  NE2       13.4940    4.5810   35.6350 N.ar   78  HIS78      -0.2212
     53  N          8.5490   -8.6940   25.1990 N.3   160  PHE160     -0.1241
     54  CA         8.6780   -7.8280   24.0250 C.3   160  PHE160      0.1605
     55  C          8.8990   -8.6920   22.7950 C.2   160  PHE160      0.2264
     56  O          9.7180   -9.6090   22.8410 O.2   160  PHE160     -0.2867
     57  CB         9.8230   -6.8280   24.1820 C.3   160  PHE160      0.0534
     58  CG         9.5510   -5.7360   25.1720 C.ar  160  PHE160     -0.0203
     59  CD1        9.9040   -5.8840   26.5030 C.ar  160  PHE160     -0.0042
     60  CD2        8.9650   -4.5400   24.7690 C.ar  160  PHE160     -0.0042
     61  CE1        9.6700   -4.8580   27.4190 C.ar  160  PHE160     -0.0003
     62  CE2        8.7350   -3.5160   25.6810 C.ar  160  PHE160     -0.0003
     63  CZ         9.0890   -3.6790   27.0000 C.ar  160  PHE160     -0.0000
     64  N         17.2360    2.0720   32.4350 N.3   190  THR190     -0.1203
     65  CA        16.0360    2.2040   31.5950 C.3   190  THR190      0.1994
     66  C         16.3740    1.8260   30.1490 C.2   190  THR190      0.2618
     67  O         17.5400    1.8040   29.7670 O.2   190  THR190     -0.2717
     68  CB        15.4160    3.6000   31.7170 C.3   190  THR190      0.1784
     69  OG1       14.1550    3.5730   31.0740 O.3   190  THR190     -0.2211
     70  CG2       16.2780    4.6960   31.1060 C.3   190  THR190      0.0376
     71  N         15.3530    1.5420   29.3370 N.am  191  PHE191     -0.1961
     72  CA        15.5780    1.1280   27.9610 C.3   191  PHE191      0.1771
     73  C         14.5090    1.6630   27.0310 C.2   191  PHE191      0.2620
     74  O         13.3720    1.8760   27.4290 O.2   191  PHE191     -0.2715
     75  CB        15.6650   -0.4190   27.8660 C.3   191  PHE191      0.0574
     76  CG        14.4630   -1.1620   28.4050 C.ar  191  PHE191     -0.0200
     77  CD1       14.4080   -1.5590   29.7400 C.ar  191  PHE191     -0.0042
     78  CD2       13.4180   -1.5330   27.5630 C.ar  191  PHE191     -0.0042
     79  CE1       13.3040   -2.2650   30.2330 C.ar  191  PHE191     -0.0003
     80  CE2       12.3190   -2.2350   28.0590 C.ar  191  PHE191     -0.0003
     81  CZ        12.2720   -2.5990   29.3900 C.ar  191  PHE191     -0.0000
     82  N         14.8860    1.8470   25.7890 N.am  192  GLY192     -0.1940
     83  CA        13.9820    2.3360   24.7550 C.3   192  GLY192      0.2014
     84  C         14.4080    1.8830   23.3840 C.2   192  GLY192      0.2639
     85  O         15.5590    1.4860   23.1810 O.2   192  GLY192     -0.2714
     86  N         13.4780    1.9970   22.4230 N.am  193  PHE193     -0.1959
     87  CA        13.6860    1.5990   21.0430 C.3   193  PHE193      0.1771
     88  C         13.9960    2.8020   20.1600 C.2   193  PHE193      0.2619
     89  O         13.1890    3.7360   20.0470 O.2   193  PHE193     -0.2715
     90  CB        12.4660    0.7970   20.5240 C.3   193  PHE193      0.0574
     91  CG        12.1950   -0.4550   21.3520 C.ar  193  PHE193     -0.0200
     92  CD1       12.7580   -1.6790   21.0010 C.ar  193  PHE193     -0.0042
     93  CD2       11.4010   -0.4000   22.5000 C.ar  193  PHE193     -0.0042
     94  CE1       12.5240   -2.8290   21.7800 C.ar  193  PHE193     -0.0003
     95  CE2       11.1800   -1.5490   23.2930 C.ar  193  PHE193     -0.0003
     96  CZ        11.7290   -2.7590   22.9150 C.ar  193  PHE193     -0.0000
     97  N         15.1620    2.7490   19.5080 N.am  194  MET194     -0.1977
     98  CA        15.6580    3.7610   18.5650 C.3   194  MET194      0.1605
     99  C         14.6430    4.0130   17.4340 C.2   194  MET194      0.2287
    100  O         14.5270    5.1480   16.9590 O.2   194  MET194     -0.2864
    101  CB        16.9810    3.2840   17.9700 C.3   194  MET194      0.0413
    102  CG        17.7760    4.3670   17.3070 C.3   194  MET194      0.0598
    103  SD        19.0890    3.6260   16.3360 S.3   194  MET194     -0.1393
    104  CE        18.3820    3.7410   14.7300 C.3   194  MET194      0.0692
    105  N         12.2590    6.8450   18.3830 N.3   197  ILE197     -0.1245
    106  CA        12.8090    8.1490   18.7780 C.3   197  ILE197      0.1561
    107  C         12.1140    9.3780   18.1850 C.2   197  ILE197      0.2260
    108  O         11.8190   10.3100   18.9340 O.2   197  ILE197     -0.2867
    109  CB        14.3800    8.2570   18.8030 C.3   197  ILE197      0.0252
    110  CG1       14.8630    9.4010   19.7420 C.3   197  ILE197      0.0019
    111  CG2       14.9540    8.4490   17.3930 C.3   197  ILE197      0.0019
    112  CD1       14.2440    9.4530   21.1540 C.3   197  ILE197      0.0001
    113  N          8.4570    9.5240   19.6510 N.3   200  LEU200     -0.1231
    114  CA         8.5050    9.9450   21.0550 C.3   200  LEU200      0.1693
    115  C          8.7790   11.4260   21.1710 C.2   200  LEU200      0.2591
    116  O          8.1340   12.1080   21.9700 O.2   200  LEU200     -0.2718
    117  CB         9.5880    9.1670   21.8480 C.3   200  LEU200      0.0284
    118  CG         9.3530    7.6850   22.0300 C.3   200  LEU200      0.0019
    119  CD1       10.5930    7.0020   22.5920 C.3   200  LEU200      0.0001
    120  CD2        8.0960    7.4210   22.8490 C.3   200  LEU200      0.0001
    121  N          9.7500   11.9130   20.3870 N.am  201  ARG201     -0.1980
    122  CA        10.1530   13.3180   20.4120 C.3   201  ARG201      0.1597
    123  C          9.0520   14.2690   19.9810 C.2   201  ARG201      0.2287
    124  O          8.9330   15.3440   20.5630 O.2   201  ARG201     -0.2864
    125  CB        11.5050   13.5430   19.7190 C.3   201  ARG201      0.0334
    126  CG        12.6270   12.9200   20.5620 C.3   201  ARG201      0.0492
    127  CD        14.0560   13.1810   20.0910 C.3   201  ARG201      0.2205
    128  NE        14.9840   12.7530   21.1500 N.pl3 201  ARG201     -0.0865
    129  CZ        16.2690   12.4430   20.9850 C.cat 201  ARG201      0.5346
    130  NH1       16.8300   12.5090   19.7760 N.pl3 201  ARG201      0.1354
    131  NH2       16.9960   12.0230   22.0200 N.pl3 201  ARG201      0.1354
    132  N         11.4080   11.3640   25.6830 N.3   206  ALA206     -0.1245
    133  CA        12.7820   10.9480   25.3750 C.3   206  ALA206      0.1562
    134  C         13.6390   12.0490   24.7180 C.2   206  ALA206      0.2260
    135  O         14.6090   11.7270   24.0340 O.2   206  ALA206     -0.2867
    136  CB        12.7850    9.6630   24.5250 C.3   206  ALA206      0.0290
    137  N         17.0290   11.5790   25.9460 N.3   209  GLY209     -0.1210
    138  CA        17.4220   10.1820   25.8070 C.3   209  GLY209      0.1956
    139  C         18.6040    9.9320   24.8980 C.2   209  GLY209      0.2613
    140  O         18.6670   10.4790   23.8010 O.2   209  GLY209     -0.2717
    141  N         19.5600    9.1100   25.3590 N.am  210  SER210     -0.1938
    142  CA        20.7700    8.7600   24.5770 C.3   210  SER210      0.2055
    143  C         21.4110    7.5130   25.1870 C.2   210  SER210      0.2642
    144  O         20.9460    7.0370   26.2210 O.2   210  SER210     -0.2714
    145  CB        21.7760    9.9130   24.5860 C.3   210  SER210      0.2130
    146  OG        22.4950    9.9590   25.8090 O.3   210  SER210     -0.2179
    147  N         22.4890    7.0070   24.5710 N.am  211  VAL211     -0.1977
    148  CA        23.2400    5.8460   25.0870 C.3   211  VAL211      0.1596
    149  C         23.8600    6.1370   26.4720 C.2   211  VAL211      0.2287
    150  O         24.2160    5.2080   27.2020 O.2   211  VAL211     -0.2864
    151  CB        24.2870    5.2940   24.0800 C.3   211  VAL211      0.0276
    152  CG1       23.6050    4.6590   22.8710 C.3   211  VAL211      0.0022
    153  CG2       25.2820    6.3770   23.6460 C.3   211  VAL211      0.0022
    154  N         20.4030    5.4940   28.8660 N.3   214  ALA214     -0.1245
    155  CA        19.4500    4.4510   28.5160 C.3   214  ALA214      0.1562
    156  C         20.1230    3.3810   27.6950 C.2   214  ALA214      0.2260
    157  O         21.1130    3.6550   27.0090 O.2   214  ALA214     -0.2867
    158  CB        18.2970    5.0500   27.7010 C.3   214  ALA214      0.0290
    159  N         19.8230    1.7330   24.4980 N.3   216  VAL216     -0.1245
    160  CA        19.1260    2.0700   23.2710 C.3   216  VAL216      0.1561
    161  C         19.1480    0.8220   22.4020 C.2   216  VAL216      0.2260
    162  O         20.2170    0.3320   22.0430 O.2   216  VAL216     -0.2867
    163  CB        19.7230    3.3350   22.5790 C.3   216  VAL216      0.0252
    164  CG1       18.9270    3.6910   21.3290 C.3   216  VAL216      0.0019
    165  CG2       19.7560    4.5210   23.5500 C.3   216  VAL216      0.0019
    166  N         22.5150   -0.7530   20.9890 N.3   223  LEU223     -0.1245
    167  CA        23.4850    0.1850   20.4160 C.3   223  LEU223      0.1561
    168  C         24.6520    0.4740   21.3470 C.2   223  LEU223      0.2260
    169  O         25.7300    0.8000   20.8580 O.2   223  LEU223     -0.2867
    170  CB        22.8370    1.5350   20.0690 C.3   223  LEU223      0.0270
    171  CG        22.0720    1.6940   18.7640 C.3   223  LEU223      0.0019
    172  CD1       21.6350    3.1280   18.6320 C.3   223  LEU223      0.0001
    173  CD2       22.9180    1.3230   17.5420 C.3   223  LEU223      0.0001
    174  N         15.1840   -3.7500   35.4530 N.3   237  HIS237     -0.1226
    175  CA        14.7740   -2.3470   35.4680 C.3   237  HIS237      0.1752
    176  C         13.2600   -2.2350   35.7490 C.2   237  HIS237      0.2595
    177  O         12.8310   -1.3020   36.4290 O.2   237  HIS237     -0.2718
    178  CB        15.0900   -1.6100   34.1450 C.3   237  HIS237      0.0759
    179  CG        14.8130   -0.1430   34.2940 C.ar  237  HIS237      0.0818
    180  ND1       15.6480    0.6630   35.0380 N.ar  237  HIS237     -0.2268
    181  CD2       13.7210    0.5710   33.9390 C.ar  237  HIS237      0.1154
    182  CE1       15.0830    1.8530   35.0600 C.ar  237  HIS237      0.1986
    183  NE2       13.9210    1.8510   34.4100 N.ar  237  HIS237     -0.2212
    184  N         12.4610   -3.1820   35.2270 N.am  238  LYS238     -0.1980
    185  CA        11.0110   -3.1680   35.4770 C.3   238  LYS238      0.1596
    186  C         10.7260   -3.4060   36.9520 C.2   238  LYS238      0.2287
    187  O          9.7940   -2.8180   37.4800 O.2   238  LYS238     -0.2864
    188  CB        10.2610   -4.1650   34.5770 C.3   238  LYS238      0.0298
    189  CG        10.3460   -3.8160   33.0690 C.3   238  LYS238      0.0038
    190  CD         9.5460   -2.5800   32.6240 C.3   238  LYS238      0.0206
    191  CE         8.0650   -2.8380   32.6370 C.3   238  LYS238      0.1093
    192  NZ         7.3100   -1.6180   32.2290 N.3   238  LYS238     -0.1314
    193  N         11.5450   -0.0270   38.6330 N.3   241  ASP241     -0.1239
    194  CA        10.4020    0.8500   38.3940 C.3   241  ASP241      0.1674
    195  C          9.2360    0.5070   39.3530 C.2   241  ASP241      0.2266
    196  O          8.6440    1.4140   39.9180 O.2   241  ASP241     -0.2867
    197  CB         9.9220    0.7210   36.9410 C.3   241  ASP241      0.1410
    198  CG        10.7270    1.4880   35.8960 C.2   241  ASP241      0.3668
    199  OD1       11.5760    2.3390   36.2870 O.co2 241  ASP241     -0.2456
    200  OD2       10.5250    1.2330   34.6960 O.co2 241  ASP241     -0.2456
    201  N          3.8500    1.8320   34.6510 N.3   264  HIS264     -0.1241
    202  CA         3.4620    2.9530   35.5320 C.3   264  HIS264      0.1621
    203  C          1.9650    3.1210   35.7260 C.2   264  HIS264      0.2264
    204  O          1.5270    3.3150   36.8560 O.2   264  HIS264     -0.2867
    205  CB         4.1150    4.2770   35.0700 C.3   264  HIS264      0.0745
    206  CG         5.5930    4.1760   34.9060 C.ar  264  HIS264      0.0817
    207  ND1        6.4150    3.8220   35.9620 N.ar  264  HIS264     -0.2268
    208  CD2        6.3460    4.3450   33.8000 C.ar  264  HIS264      0.1154
    209  CE1        7.6410    3.8070   35.4670 C.ar  264  HIS264      0.1986
    210  NE2        7.6490    4.1170   34.1710 N.ar  264  HIS264     -0.2212
@<TRIPOS>BOND
     1   104   103    1
     2   103   102    1
     3   100    99    2
     4   102   101    1
     5   111   109    1
     6    99    98    1
     7   173   171    1
     8   101    98    1
     9   107   106    1
    10   107   108    2
    11   105   106    1
    12    98    97    1
    13   172   171    1
    14   171   170    1
    15   106   109    1
    16   109   110    1
    17    97    88   am
    18   113   114    1
    19   125   122    1
    20   125   126    1
    21   110   112    1
    22   130   129    1
    23   123   122    1
    24   123   124    2
    25    89    88    2
    26   170   167    1
    27   127   126    1
    28   127   128    1
    29    88    87    1
    30   121   122    1
    31   121   115   am
    32   167   166    1
    33   167   168    1
    34    90    87    1
    35    90    91    1
    36   169   168    2
    37   129   128    2
    38   129   131    1
    39    92    91   ar
    40    92    94   ar
    41    87    86    1
    42   114   115    1
    43   114   117    1
    44   115   116    2
    45   164   163    1
    46    91    93   ar
    47    94    96   ar
    48   117   118    1
    49   118   119    1
    50   118   120    1
    51   162   161    2
    52   161   160    1
    53    86    84   am
    54    93    95   ar
    55   163   160    1
    56   163   165    1
    57    55    56    2
    58    55    54    1
    59   152   151    1
    60    96    95   ar
    61    85    84    2
    62   160   159    1
    63    84    83    1
    64   153   151    1
    65   140   139    2
    66    54    57    1
    67    54    53    1
    68   135   134    2
    69   151   148    1
    70    57    58    1
    71   136   133    1
    72   147   148    1
    73   147   143   am
    74   142   145    1
    75   142   143    1
    76   142   141    1
    77   145   146    1
    78   134   133    1
    79    83    82    1
    80    60    58   ar
    81    60    62   ar
    82   139   141   am
    83   139   138    1
    84   148   149    1
    85    58    59   ar
    86   143   144    2
    87   133   132    1
    88    62    63   ar
    89    26    25    1
    90    82    73   am
    91   138   137    1
    92    25    24    1
    93   149   150    2
    94    59    61   ar
    95    12    11    2
    96    63    61   ar
    97   157   156    2
    98    73    74    2
    99    73    72    1
   100    78    80   ar
   101    78    76   ar
   102   156   155    1
   103   158   155    1
   104    75    72    1
   105    75    76    1
   106    24    23    1
   107     4     3    2
   108    72    71    1
   109    80    81   ar
   110    11    10    1
   111    15    17   ar
   112    15    14   ar
   113    76    77   ar
   114   155   154    1
   115    23    20    1
   116    17    18   ar
   117    10    13    1
   118    10     9    1
   119     7     6    1
   120     3     9   am
   121     3     2    1
   122    13    14    1
   123    14    16   ar
   124    71    66   am
   125    81    79   ar
   126     6     8    1
   127     6     5    1
   128    77    79   ar
   129    67    66    2
   130    20    19    1
   131    20    21    1
   132    18    16   ar
   133    66    65    1
   134     2     5    1
   135     2     1    1
   136    22    21    2
   137    69    68    1
   138    70    68    1
   139    65    68    1
   140    65    64    1
   141   192   191    1
   142   190   191    1
   143   190   189    1
   144   189   188    1
   145   208   210   ar
   146   208   206   ar
   147    32    31    1
   148   181   179   ar
   149   181   183   ar
   150   178   179    1
   151   178   175    1
   152   210   209   ar
   153   179   180   ar
   154   183   182   ar
   155   188   185    1
   156   201   202    1
   157   200   198   ar
   158    33    31    1
   159   206   205    1
   160   206   207   ar
   161   180   182   ar
   162   205   202    1
   163    51    52   ar
   164    51    49   ar
   165    31    28    1
   166    42    40   ar
   167   184   185    1
   168   184   176   am
   169   174   175    1
   170   209   207   ar
   171   175   176    1
   172   185   186    1
   173   202   203    1
   174    52    50   ar
   175   203   204    2
   176   176   177    2
   177   198   199   ar
   178   198   197    1
   179    49    48   ar
   180    27    28    1
   181    28    29    1
   182    40    41   ar
   183    40    39    1
   184   197   194    1
   185   186   187    2
   186    50    48   ar
   187    48    47    1
   188    39    38    1
   189    29    30    2
   190   194   193    1
   191   194   195    1
   192    47    44    1
   193    38    35    1
   194   195   196    2
   195    43    44    1
   196    43    36   am
   197    34    35    1
   198    44    45    1
   199    35    36    1
   200    36    37    2
   201    45    46    2
