@<TRIPOS>MOLECULE
tmp/3u23A00.pdb
 94 94 0 0 0
SMALL
GASTEIGER

@<TRIPOS>ATOM
      1  N          9.7350   -8.9780    8.1170 N.3     7  PHE7       -0.1241
      2  CA        10.2810   -9.0510    6.7640 C.3     7  PHE7        0.1605
      3  C         11.3730   -8.0530    6.5550 C.2     7  PHE7        0.2264
      4  O         11.2420   -6.9170    7.0330 O.2     7  PHE7       -0.2867
      5  CB         9.1310   -8.7690    5.7600 C.3     7  PHE7        0.0534
      6  CG         8.0700   -9.7940    5.8060 C.ar    7  PHE7       -0.0203
      7  CD1        8.2450  -10.9930    5.1440 C.ar    7  PHE7       -0.0042
      8  CD2        6.9060   -9.5840    6.5300 C.ar    7  PHE7       -0.0042
      9  CE1        7.2610  -11.9470    5.2030 C.ar    7  PHE7       -0.0003
     10  CE2        5.9110  -10.5680    6.6230 C.ar    7  PHE7       -0.0003
     11  CZ         6.1110  -11.7420    5.9480 C.ar    7  PHE7       -0.0000
     12  N         13.6220   -5.1570    4.9280 N.3     9  TYR9       -0.1241
     13  CA        13.3160   -3.9600    4.1350 C.3     9  TYR9        0.1605
     14  C         14.5840   -3.2790    3.7720 C.2     9  TYR9        0.2264
     15  O         15.3570   -2.7940    4.6070 O.2     9  TYR9       -0.2867
     16  CB        12.4270   -2.9850    4.9060 C.3     9  TYR9        0.0534
     17  CG        12.0930   -1.7810    4.0540 C.ar    9  TYR9       -0.0201
     18  CD1       11.2600   -1.9250    2.9310 C.ar    9  TYR9       -0.0009
     19  CD2       12.5070   -0.5280    4.3800 C.ar    9  TYR9       -0.0009
     20  CE1       10.9990   -0.8320    2.0860 C.ar    9  TYR9        0.0417
     21  CE2       12.1970    0.5650    3.5810 C.ar    9  TYR9        0.0417
     22  CZ        11.4540    0.4200    2.4480 C.ar    9  TYR9        0.1957
     23  OH        11.2020    1.4600    1.5850 O.3     9  TYR9       -0.2866
     24  N         14.4550    2.6400    0.2880 N.3    12  GLN12      -0.1245
     25  CA        14.2630    3.3350   -0.9810 C.3    12  GLN12       0.1566
     26  C         14.5960    4.8130   -0.8970 C.2    12  GLN12       0.2260
     27  O         14.7650    5.4470   -1.9510 O.2    12  GLN12      -0.2867
     28  CB        12.8220    3.1920   -1.4230 C.3    12  GLN12       0.0367
     29  CG        12.3520    1.7870   -1.7320 C.3    12  GLN12       0.0905
     30  CD        10.8140    1.8070   -1.9670 C.2    12  GLN12       0.2608
     31  OE1       10.0510    1.4250   -1.1290 O.2    12  GLN12      -0.2717
     32  NE2       10.3650    2.3980   -3.0860 N.am   12  GLN12      -0.0878
     33  N          2.6830    9.1840    8.1050 N.3    32  GLU32      -0.1231
     34  CA         1.5270    9.1190    7.2520 C.3    32  GLU32       0.1699
     35  C          1.0350    7.6470    7.2860 C.2    32  GLU32       0.2592
     36  O          1.7230    6.8160    7.8140 O.2    32  GLU32      -0.2718
     37  CB         1.8320    9.6190    5.8470 C.3    32  GLU32       0.0402
     38  CG         2.8270    8.7870    5.1360 C.3    32  GLU32       0.1161
     39  CD         3.1270    9.3380    3.7720 C.2    32  GLU32       0.3649
     40  OE1        2.1800    9.6940    3.0410 O.co2  32  GLU32      -0.2457
     41  OE2        4.3040    9.3690    3.3540 O.co2  32  GLU32      -0.2457
     42  N         -0.1570    7.3860    6.7740 N.am   33  GLU33      -0.1966
     43  CA        -0.7220    6.0540    6.8380 C.3    33  GLU33       0.1733
     44  C          0.3160    5.0870    6.2430 C.2    33  GLU33       0.2617
     45  O          0.8390    5.2810    5.1140 O.2    33  GLU33      -0.2715
     46  CB        -2.0280    5.9830    6.1070 C.3    33  GLU33       0.0429
     47  CG        -2.7690    4.6540    6.1880 C.3    33  GLU33       0.1163
     48  CD        -4.1120    4.7090    5.4560 C.2    33  GLU33       0.3649
     49  OE1       -4.6900    5.8300    5.2440 O.co2  33  GLU33      -0.2457
     50  OE2       -4.5760    3.6100    5.0670 O.co2  33  GLU33      -0.2457
     51  N          0.6940    4.0670    7.0220 N.am   34  GLY34      -0.1940
     52  CA         1.6610    3.1090    6.6330 C.3    34  GLY34       0.2014
     53  C          3.1180    3.3310    6.9020 C.2    34  GLY34       0.2638
     54  O          3.9740    2.4790    6.6460 O.2    34  GLY34      -0.2714
     55  N          3.4630    4.5650    7.3880 N.am   35  TRP35      -0.1973
     56  CA         4.8310    4.9060    7.5730 C.3    35  TRP35       0.1640
     57  C          4.9990    5.5940    8.9360 C.2    35  TRP35       0.2290
     58  O          4.3870    6.6410    9.1910 O.2    35  TRP35      -0.2864
     59  CB         5.2560    5.9430    6.4960 C.3    35  TRP35       0.0576
     60  CG         5.5370    5.2390    5.1820 C.ar   35  TRP35       0.0006
     61  CD1        4.7130    5.1320    4.1200 C.ar   35  TRP35       0.0946
     62  CD2        6.7240    4.5500    4.8770 C.ar   35  TRP35       0.0152
     63  NE1        5.3120    4.3240    3.1850 N.ar   35  TRP35      -0.2442
     64  CE2        6.5650    3.9900    3.5960 C.ar   35  TRP35       0.0810
     65  CE3        7.9280    4.3320    5.5340 C.ar   35  TRP35       0.0012
     66  CZ2        7.5800    3.2720    2.9890 C.ar   35  TRP35       0.0191
     67  CZ3        8.9390    3.6140    4.9300 C.ar   35  TRP35       0.0001
     68  CH2        8.7590    3.0840    3.6480 C.ar   35  TRP35       0.0015
     69  N          8.0990    1.0190    7.1630 N.3    48  PRO48      -0.2116
     70  CA         6.7680    0.6800    6.7180 C.3    48  PRO48       0.1372
     71  C          6.0590   -0.2410    7.7470 C.2    48  PRO48       0.2244
     72  O          6.6060   -1.3160    8.1130 O.2    48  PRO48      -0.2868
     73  CB         7.0080   -0.0670    5.4040 C.3    48  PRO48       0.0268
     74  CG         8.3570   -0.6050    5.5290 C.3    48  PRO48       0.0207
     75  CD         9.1770    0.3590    6.3930 C.3    48  PRO48       0.0892
     76  N          3.6020   -2.2500    7.6070 N.3    50  ASN50      -0.1225
     77  CA         3.1770   -3.6250    7.2300 C.3    50  ASN50       0.1785
     78  C          4.3330   -4.5410    7.2340 C.2    50  ASN50       0.2597
     79  O          4.1270   -5.7580    6.8860 O.2    50  ASN50      -0.2718
     80  CB         2.3830   -3.5670    5.9000 C.3    50  ASN50       0.1169
     81  CG         3.1810   -2.9730    4.7200 C.2    50  ASN50       0.2627
     82  OD1        4.1250   -2.2120    4.8640 O.2    50  ASN50      -0.2716
     83  ND2        2.8210   -3.3990    3.5080 N.am   50  ASN50      -0.0877
     84  N          5.4850   -4.2390    7.6020 N.am   51  PHE51      -0.1976
     85  CA         6.6280   -5.0270    7.7320 C.3    51  PHE51       0.1639
     86  C          6.8930   -5.6030    9.1790 C.2    51  PHE51       0.2290
     87  O          7.8500   -6.3300    9.3840 O.2    51  PHE51      -0.2864
     88  CB         7.9490   -4.4730    7.2160 C.3    51  PHE51       0.0560
     89  CG         7.9830   -4.3570    5.6760 C.ar   51  PHE51      -0.0200
     90  CD1        9.0400   -4.9290    4.9990 C.ar   51  PHE51      -0.0042
     91  CD2        7.0390   -3.6970    4.9400 C.ar   51  PHE51      -0.0042
     92  CE1        9.0900   -4.8290    3.5880 C.ar   51  PHE51      -0.0003
     93  CE2        7.0670   -3.5950    3.5850 C.ar   51  PHE51      -0.0003
     94  CZ         8.1050   -4.1680    2.9190 C.ar   51  PHE51      -0.0000
@<TRIPOS>BOND
     1    32    30   am
     2    30    29    1
     3    30    31    2
     4    27    26    2
     5    29    28    1
     6    28    25    1
     7    25    26    1
     8    25    24    1
     9    23    22    1
    10    20    22   ar
    11    20    18   ar
    12    22    21   ar
    13    94    93   ar
    14    94    92   ar
    15    18    17   ar
    16    66    64   ar
    17    66    68   ar
    18    40    39   ar
    19    63    64   ar
    20    63    61   ar
    21    41    39   ar
    22    83    81   am
    23    21    19   ar
    24    93    91   ar
    25    92    90   ar
    26    64    62   ar
    27    68    67   ar
    28    14    13    1
    29    14    15    2
    30    39    38    1
    31    17    19   ar
    32    17    16    1
    33    61    60   ar
    34    13    16    1
    35    13    12    1
    36    81    82    2
    37    81    80    1
    38    62    60   ar
    39    62    65   ar
    40    67    65   ar
    41    91    89   ar
    42    90    89   ar
    43    50    48   ar
    44    45    44    2
    45    38    37    1
    46     7     9   ar
    47     7     6   ar
    48    60    59    1
    49     9    11   ar
    50    49    48   ar
    51    73    74    1
    52    73    70    1
    53    48    47    1
    54    74    75    1
    55    89    88    1
    56     5     6    1
    57     5     2    1
    58     6     8   ar
    59    37    34    1
    60    80    77    1
    61    11    10   ar
    62    46    47    1
    63    46    43    1
    64    44    43    1
    65    44    51   am
    66    75    69    1
    67    59    56    1
    68     8    10   ar
    69     3     2    1
    70     3     4    2
    71    52    53    1
    72    52    51    1
    73    54    53    2
    74    70    69    1
    75    70    71    1
    76     2     1    1
    77    42    43    1
    78    42    35   am
    79    79    78    2
    80    53    55   am
    81    88    85    1
    82    77    78    1
    83    77    76    1
    84    78    84   am
    85    34    35    1
    86    34    33    1
    87    35    36    2
    88    55    56    1
    89    56    57    1
    90    84    85    1
    91    85    86    1
    92    71    72    2
    93    57    58    2
    94    86    87    2
