@<TRIPOS>MOLECULE
tmp/3u2dB00.pdb
 118 109 0 0 0
SMALL
GASTEIGER

@<TRIPOS>ATOM
      1  N         22.4460   -9.3750    3.8960 N.3    32  ILE32      -0.1245
      2  CA        22.7410  -10.7630    4.2410 C.3    32  ILE32       0.1561
      3  C         22.7400  -10.9690    5.7600 C.2    32  ILE32       0.2260
      4  O         22.1270  -11.9150    6.2610 O.2    32  ILE32      -0.2867
      5  CB        24.0850  -11.2310    3.6400 C.3    32  ILE32       0.0252
      6  CG1       24.0470  -11.1460    2.1060 C.3    32  ILE32       0.0019
      7  CG2       24.3980  -12.6480    4.0940 C.3    32  ILE32       0.0019
      8  CD1       22.9370  -11.9690    1.4480 C.3    32  ILE32       0.0001
      9  N         19.3900  -11.3520    7.5060 N.3    35  ASN35      -0.1225
     10  CA        18.7830  -12.6860    7.4400 C.3    35  ASN35       0.1785
     11  C         19.2450  -13.5540    8.6100 C.2    35  ASN35       0.2597
     12  O         18.4400  -14.2570    9.2250 O.2    35  ASN35      -0.2718
     13  CB        19.1050  -13.3780    6.1090 C.3    35  ASN35       0.1169
     14  CG        18.4610  -12.6890    4.9210 C.2    35  ASN35       0.2627
     15  OD1       17.2510  -12.5040    4.8880 O.2    35  ASN35      -0.2716
     16  ND2       19.2680  -12.3050    3.9420 N.am   35  ASN35      -0.0877
     17  N         20.5360  -13.4770    8.9310 N.am   36  SER36      -0.1952
     18  CA        21.0810  -14.1880   10.0860 C.3    36  SER36       0.1924
     19  C         20.4970  -13.6410   11.3910 C.2    36  SER36       0.2314
     20  O         20.2030  -14.4080   12.3070 O.2    36  SER36      -0.2863
     21  CB        22.6080  -14.1090   10.1160 C.3    36  SER36       0.2116
     22  OG        23.1900  -14.7800    9.0120 O.3    36  SER36      -0.2180
     23  N         17.1360  -15.0420   11.9030 N.3    39  GLU39      -0.1245
     24  CA        17.2400  -16.4290   12.3460 C.3    39  GLU39       0.1567
     25  C         17.6320  -16.5310   13.8370 C.2    39  GLU39       0.2260
     26  O         17.2470  -17.4830   14.5210 O.2    39  GLU39      -0.2867
     27  CB        18.2190  -17.1830   11.4380 C.3    39  GLU39       0.0388
     28  CG        18.3590  -18.6750   11.7070 C.3    39  GLU39       0.1160
     29  CD        17.1090  -19.4900   11.3830 C.2    39  GLU39       0.3649
     30  OE1       16.0400  -18.9240   11.0520 O.co2  39  GLU39      -0.2457
     31  OE2       17.2040  -20.7290   11.4480 O.co2  39  GLU39      -0.2457
     32  N         29.3800  -14.5260    5.1410 N.3    60  VAL60      -0.1245
     33  CA        28.5510  -14.4680    6.3380 C.3    60  VAL60       0.1561
     34  C         28.1430  -15.8930    6.7220 C.2    60  VAL60       0.2260
     35  O         27.6080  -16.6310    5.8900 O.2    60  VAL60      -0.2867
     36  CB        27.2960  -13.5970    6.1190 C.3    60  VAL60       0.0252
     37  CG1       26.4310  -13.5760    7.3870 C.3    60  VAL60       0.0019
     38  CG2       27.6940  -12.1730    5.6950 C.3    60  VAL60       0.0019
     39  N         26.1470  -18.2090    9.8350 N.3    62  ASP62      -0.1239
     40  CA        25.4270  -18.3540   11.0960 C.3    62  ASP62       0.1674
     41  C         25.2500  -19.8310   11.4360 C.2    62  ASP62       0.2266
     42  O         25.4660  -20.7050   10.5860 O.2    62  ASP62      -0.2867
     43  CB        24.0890  -17.5910   11.0810 C.3    62  ASP62       0.1410
     44  CG        23.0850  -18.1350   10.0620 C.2    62  ASP62       0.3668
     45  OD1       22.7110  -19.3250   10.1540 O.co2  62  ASP62      -0.2456
     46  OD2       22.6280  -17.3490    9.1990 O.co2  62  ASP62      -0.2456
     47  N         19.2260  -22.7360   11.3470 N.3    65  ARG65      -0.1231
     48  CA        18.7030  -23.9970   10.7920 C.3    65  ARG65       0.1694
     49  C         19.2570  -24.3530    9.4240 C.2    65  ARG65       0.2593
     50  O         19.1840  -25.5110    9.0080 O.2    65  ARG65      -0.2718
     51  CB        17.1850  -23.9500   10.6860 C.3    65  ARG65       0.0321
     52  CG        16.4820  -23.8880   12.0210 C.3    65  ARG65       0.0489
     53  CD        15.0110  -23.6020   11.8290 C.3    65  ARG65       0.2205
     54  NE        14.7860  -22.2020   11.4790 N.pl3  65  ARG65      -0.0865
     55  CZ        13.5870  -21.6300   11.3660 C.cat  65  ARG65       0.5346
     56  NH1       12.4760  -22.3400   11.5480 N.pl3  65  ARG65       0.1354
     57  NH2       13.4950  -20.3390   11.0570 N.pl3  65  ARG65       0.1354
     58  N         19.7920  -23.3580    8.7230 N.am   66  GLY66      -0.1942
     59  CA        20.2030  -23.5230    7.3360 C.3    66  GLY66       0.2014
     60  C         19.0160  -23.2430    6.4370 C.2    66  GLY66       0.2639
     61  O         17.8840  -23.6390    6.7480 O.2    66  GLY66      -0.2714
     62  N         19.2540  -22.5550    5.3230 N.am   67  ILE67      -0.1963
     63  CA        18.1700  -22.2370    4.3940 C.3    67  ILE67       0.1712
     64  C         17.5710  -23.5610    3.9130 C.2    67  ILE67       0.2458
     65  O         18.3210  -24.4820    3.5770 O.2    67  ILE67      -0.2730
     66  CB        18.6460  -21.4140    3.1740 C.3    67  ILE67       0.0289
     67  CG1       19.2650  -20.0790    3.6100 C.3    67  ILE67       0.0022
     68  CG2       17.4760  -21.1380    2.2320 C.3    67  ILE67       0.0023
     69  CD1       19.9760  -19.3610    2.5030 C.3    67  ILE67       0.0001
     70  N         16.2280  -23.6750    3.8940 N.am   68  PRO68      -0.2727
     71  CA        15.6220  -24.9320    3.4550 C.3    68  PRO68       0.1402
     72  C         16.0410  -25.3480    2.0440 C.2    68  PRO68       0.2269
     73  O         16.2560  -24.4910    1.1850 O.2    68  PRO68      -0.2865
     74  CB        14.1180  -24.6360    3.5050 C.3    68  PRO68       0.0296
     75  CG        13.9720  -23.5900    4.5220 C.3    68  PRO68       0.0237
     76  CD        15.2120  -22.7370    4.4060 C.3    68  PRO68       0.0939
     77  N         14.7960  -18.9120   -3.1840 N.3    81  ILE81      -0.1231
     78  CA        15.0890  -17.7840   -2.2940 C.3    81  ILE81       0.1692
     79  C         16.2300  -16.9150   -2.8370 C.2    81  ILE81       0.2591
     80  O         16.0690  -15.6990   -2.9790 O.2    81  ILE81      -0.2718
     81  CB        15.3940  -18.2750   -0.8470 C.3    81  ILE81       0.0266
     82  CG1       14.1220  -18.8470   -0.2090 C.3    81  ILE81       0.0019
     83  CG2       15.9550  -17.1400    0.0310 C.3    81  ILE81       0.0020
     84  CD1       14.3790  -19.7460    0.9970 C.3    81  ILE81       0.0001
     85  N         17.3580  -17.5350   -3.1800 N.am   82  LEU82      -0.1980
     86  CA        18.5520  -16.7810   -3.5930 C.3    82  LEU82       0.1596
     87  C         18.4760  -16.1930   -5.0140 C.2    82  LEU82       0.2287
     88  O         19.0870  -15.1560   -5.2870 O.2    82  LEU82      -0.2864
     89  CB        19.8260  -17.6150   -3.3990 C.3    82  LEU82       0.0297
     90  CG        20.1660  -17.9190   -1.9320 C.3    82  LEU82       0.0022
     91  CD1       21.4160  -18.7720   -1.8270 C.3    82  LEU82       0.0001
     92  CD2       20.3300  -16.6320   -1.1170 C.3    82  LEU82       0.0001
     93  N         22.4820  -28.7270    6.7920 N.3   100  ARG100     -0.1245
     94  CA        21.1220  -29.1360    7.1290 C.3   100  ARG100      0.1563
     95  C         20.9740  -30.6220    6.8060 C.2   100  ARG100      0.2260
     96  O         21.6180  -31.1200    5.8840 O.2   100  ARG100     -0.2867
     97  CB        20.1170  -28.3080    6.3170 C.3   100  ARG100      0.0307
     98  CG        18.7130  -28.2640    6.8750 C.3   100  ARG100      0.0489
     99  CD        17.8470  -27.2410    6.1340 C.3   100  ARG100      0.2205
    100  NE        16.4310  -27.5170    6.3550 N.pl3 100  ARG100     -0.0865
    101  CZ        15.5570  -26.7350    6.9900 C.cat 100  ARG100      0.5346
    102  NH1       15.8910  -25.5420    7.4860 N.pl3 100  ARG100      0.1354
    103  NH2       14.3090  -27.1530    7.1060 N.pl3 100  ARG100      0.1354
    104  N         23.9470  -21.5800    7.7820 N.3   129  THR129     -0.1218
    105  CA        24.1010  -21.1040    6.4170 C.3   129  THR129      0.1862
    106  C         25.4260  -20.3690    6.2880 C.2   129  THR129      0.2287
    107  O         25.8030  -19.6040    7.1730 O.2   129  THR129     -0.2866
    108  CB        22.9540  -20.1620    6.0250 C.3   129  THR129      0.1770
    109  OG1       21.7000  -20.8210    6.2340 O.3   129  THR129     -0.2211
    110  CG2       23.0670  -19.7390    4.5590 C.3   129  THR129      0.0375
    111  N         27.1220  -17.9070    3.3580 N.3   131  ILE131     -0.1245
    112  CA        26.9680  -17.1550    2.1160 C.3   131  ILE131      0.1561
    113  C         28.2670  -16.3930    1.8290 C.2   131  ILE131      0.2260
    114  O         28.7840  -15.7070    2.7170 O.2   131  ILE131     -0.2867
    115  CB        25.8280  -16.1190    2.2180 C.3   131  ILE131      0.0252
    116  CG1       24.4670  -16.8100    2.2610 C.3   131  ILE131      0.0019
    117  CG2       25.8770  -15.1340    1.0350 C.3   131  ILE131      0.0019
    118  CD1       23.9580  -17.2590    0.8960 C.3   131  ILE131      0.0001
@<TRIPOS>BOND
     1    88    87    2
     2    87    86    1
     3    86    89    1
     4    86    85    1
     5    89    90    1
     6    77    78    1
     7    85    79   am
     8    80    79    2
     9    79    78    1
    10    78    81    1
    11    90    91    1
    12    90    92    1
    13    81    82    1
    14    81    83    1
    15    82    84    1
    16   118   116    1
    17   117   115    1
    18    73    72    2
    19     8     6    1
    20   113   112    1
    21   113   114    2
    22    72    71    1
    23     6     5    1
    24   112   115    1
    25   112   111    1
    26   115   116    1
    27    68    66    1
    28    69    67    1
    29    66    67    1
    30    66    63    1
    31    71    74    1
    32    71    70    1
    33    74    75    1
    34    65    64    2
    35     5     7    1
    36     5     2    1
    37    70    64   am
    38    70    76    1
    39     1     2    1
    40    64    63    1
    41    16    14   am
    42     2     3    1
    43    63    62    1
    44    76    75    1
    45   110   108    1
    46    15    14    2
    47    14    13    1
    48    32    33    1
    49    62    60   am
    50    38    36    1
    51     3     4    2
    52    96    95    2
    53    35    34    2
    54   108   109    1
    55   108   105    1
    56    13    10    1
    57    36    33    1
    58    36    37    1
    59    99   100    1
    60    99    98    1
    61   106   105    1
    62   106   107    2
    63    97    98    1
    64    97    94    1
    65    33    34    1
    66   100   101    2
    67   105   104    1
    68    60    61    2
    69    60    59    1
    70    93    94    1
    71    95    94    1
    72   101   103    1
    73   101   102    1
    74    59    58    1
    75    10     9    1
    76    10    11    1
    77    11    17   am
    78    11    12    2
    79    58    49   am
    80    17    18    1
    81    50    49    2
    82    22    21    1
    83    46    44   ar
    84    49    48    1
    85    39    40    1
    86    44    45   ar
    87    44    43    1
    88    18    21    1
    89    18    19    1
    90    42    41    2
    91    51    48    1
    92    51    52    1
    93    48    47    1
    94    30    29   ar
    95    57    55    1
    96    43    40    1
    97    40    41    1
    98    55    54    2
    99    55    56    1
   100    29    31   ar
   101    29    28    1
   102    19    20    2
   103    27    28    1
   104    27    24    1
   105    54    53    1
   106    53    52    1
   107    23    24    1
   108    24    25    1
   109    25    26    2
