@<TRIPOS>MOLECULE
tmp/3u2kB00.pdb
 118 109 0 0 0
SMALL
GASTEIGER

@<TRIPOS>ATOM
      1  N         22.3410   -8.7390    3.8280 N.3    32  ILE32      -0.1245
      2  CA        22.6210  -10.1350    4.1420 C.3    32  ILE32       0.1561
      3  C         22.5960  -10.3490    5.6520 C.2    32  ILE32       0.2260
      4  O         21.9650  -11.2900    6.1380 O.2    32  ILE32      -0.2867
      5  CB        23.9800  -10.6050    3.5640 C.3    32  ILE32       0.0252
      6  CG1       23.9760  -10.5320    2.0310 C.3    32  ILE32       0.0019
      7  CG2       24.3060  -12.0210    4.0630 C.3    32  ILE32       0.0019
      8  CD1       22.8140  -11.2820    1.3540 C.3    32  ILE32       0.0001
      9  N         19.2500  -10.8010    7.4130 N.3    35  ASN35      -0.1225
     10  CA        18.6700  -12.1410    7.3610 C.3    35  ASN35       0.1785
     11  C         19.1230  -12.9880    8.5560 C.2    35  ASN35       0.2597
     12  O         18.3180  -13.7030    9.1620 O.2    35  ASN35      -0.2718
     13  CB        19.0180  -12.8290    6.0420 C.3    35  ASN35       0.1169
     14  CG        18.4320  -12.1240    4.8420 C.2    35  ASN35       0.2627
     15  OD1       17.2410  -11.8020    4.8170 O.2    35  ASN35      -0.2716
     16  ND2       19.2610  -11.8900    3.8290 N.am   35  ASN35      -0.0877
     17  N         20.4050  -12.8870    8.9030 N.am   36  SER36      -0.1952
     18  CA        20.9480  -13.5870   10.0710 C.3    36  SER36       0.1924
     19  C         20.3630  -13.0480   11.3800 C.2    36  SER36       0.2314
     20  O         20.0520  -13.8160   12.2940 O.2    36  SER36      -0.2863
     21  CB        22.4720  -13.4870   10.1110 C.3    36  SER36       0.2116
     22  OG        23.0760  -14.1400    9.0080 O.3    36  SER36      -0.2180
     23  N         16.9660  -14.4670   11.8210 N.3    39  GLU39      -0.1245
     24  CA        17.0750  -15.8390   12.2790 C.3    39  GLU39       0.1567
     25  C         17.4670  -15.9250   13.7720 C.2    39  GLU39       0.2260
     26  O         17.0730  -16.8620   14.4650 O.2    39  GLU39      -0.2867
     27  CB        18.0420  -16.5990   11.3590 C.3    39  GLU39       0.0388
     28  CG        18.1460  -18.0910   11.5890 C.3    39  GLU39       0.1160
     29  CD        16.8680  -18.8880   11.2640 C.2    39  GLU39       0.3649
     30  OE1       15.8100  -18.3130   10.9060 O.co2  39  GLU39      -0.2457
     31  OE2       16.9330  -20.1260   11.3940 O.co2  39  GLU39      -0.2457
     32  N         29.2720  -13.9370    5.0900 N.3    60  VAL60      -0.1245
     33  CA        28.4220  -13.8820    6.2770 C.3    60  VAL60       0.1561
     34  C         28.0130  -15.3160    6.6180 C.2    60  VAL60       0.2260
     35  O         27.5390  -16.0560    5.7470 O.2    60  VAL60      -0.2867
     36  CB        27.1630  -13.0200    6.0550 C.3    60  VAL60       0.0252
     37  CG1       26.3180  -12.9630    7.3390 C.3    60  VAL60       0.0019
     38  CG2       27.5420  -11.5930    5.5720 C.3    60  VAL60       0.0019
     39  N         25.9450  -17.6460    9.6910 N.3    62  ASP62      -0.1239
     40  CA        25.2140  -17.8070   10.9480 C.3    62  ASP62       0.1674
     41  C         25.0100  -19.2820   11.2770 C.2    62  ASP62       0.2266
     42  O         25.2320  -20.1550   10.4330 O.2    62  ASP62      -0.2867
     43  CB        23.8930  -17.0230   10.9390 C.3    62  ASP62       0.1410
     44  CG        22.8700  -17.5840    9.9690 C.2    62  ASP62       0.3668
     45  OD1       22.5070  -18.7760   10.1140 O.co2  62  ASP62      -0.2456
     46  OD2       22.4130  -16.8230    9.0850 O.co2  62  ASP62      -0.2456
     47  N         18.9850  -22.1270   11.2190 N.3    65  ARG65      -0.1231
     48  CA        18.4590  -23.3800   10.6700 C.3    65  ARG65       0.1694
     49  C         19.0080  -23.7360    9.2990 C.2    65  ARG65       0.2593
     50  O         18.9210  -24.8900    8.8870 O.2    65  ARG65      -0.2718
     51  CB        16.9410  -23.3330   10.5720 C.3    65  ARG65       0.0321
     52  CG        16.2460  -23.3860   11.9070 C.3    65  ARG65       0.0489
     53  CD        14.7880  -23.0680   11.7570 C.3    65  ARG65       0.2205
     54  NE        14.5960  -21.6630   11.4030 N.pl3  65  ARG65      -0.0865
     55  CZ        13.4150  -21.0870   11.1890 C.cat  65  ARG65       0.5346
     56  NH1       12.2930  -21.7960   11.2840 N.pl3  65  ARG65       0.1354
     57  NH2       13.3530  -19.7850   10.8800 N.pl3  65  ARG65       0.1354
     58  N         19.5250  -22.7440    8.5840 N.am   66  GLY66      -0.1942
     59  CA        19.9260  -22.9120    7.1890 C.3    66  GLY66       0.2014
     60  C         18.7580  -22.6060    6.2760 C.2    66  GLY66       0.2639
     61  O         17.6130  -22.9620    6.5810 O.2    66  GLY66      -0.2714
     62  N         19.0300  -21.9350    5.1570 N.am   67  ILE67      -0.1963
     63  CA        17.9670  -21.6390    4.1940 C.3    67  ILE67       0.1712
     64  C         17.4070  -22.9700    3.6810 C.2    67  ILE67       0.2458
     65  O         18.1790  -23.8530    3.3320 O.2    67  ILE67      -0.2730
     66  CB        18.4720  -20.8350    2.9940 C.3    67  ILE67       0.0289
     67  CG1       19.1610  -19.5510    3.4600 C.3    67  ILE67       0.0022
     68  CG2       17.2970  -20.4990    2.0720 C.3    67  ILE67       0.0023
     69  CD1       19.8370  -18.7810    2.3540 C.3    67  ILE67       0.0001
     70  N         16.0680  -23.1290    3.6450 N.am   68  PRO68      -0.2727
     71  CA        15.5420  -24.4200    3.1930 C.3    68  PRO68       0.1402
     72  C         15.9530  -24.7790    1.7750 C.2    68  PRO68       0.2269
     73  O         16.1530  -23.8900    0.9410 O.2    68  PRO68      -0.2865
     74  CB        14.0280  -24.2330    3.2730 C.3    68  PRO68       0.0296
     75  CG        13.8380  -23.1850    4.2940 C.3    68  PRO68       0.0237
     76  CD        15.0090  -22.2690    4.1960 C.3    68  PRO68       0.0939
     77  N         14.7000  -18.2580   -3.3600 N.3    80  ILE80      -0.1231
     78  CA        14.9870  -17.1510   -2.4490 C.3    80  ILE80       0.1692
     79  C         16.1470  -16.2980   -2.9630 C.2    80  ILE80       0.2591
     80  O         16.0260  -15.0730   -3.0660 O.2    80  ILE80      -0.2718
     81  CB        15.2720  -17.6800   -1.0090 C.3    80  ILE80       0.0266
     82  CG1       13.9870  -18.2270   -0.3880 C.3    80  ILE80       0.0019
     83  CG2       15.8830  -16.5900   -0.1130 C.3    80  ILE80       0.0020
     84  CD1       14.2040  -19.0640    0.8620 C.3    80  ILE80       0.0001
     85  N         17.2640  -16.9320   -3.3050 N.am   81  LEU81      -0.1980
     86  CA        18.4500  -16.1830   -3.7180 C.3    81  LEU81       0.1596
     87  C         18.3380  -15.5770   -5.1240 C.2    81  LEU81       0.2287
     88  O         18.9200  -14.5260   -5.3790 O.2    81  LEU81      -0.2864
     89  CB        19.7280  -17.0110   -3.5380 C.3    81  LEU81       0.0297
     90  CG        20.0770  -17.2610   -2.0600 C.3    81  LEU81       0.0022
     91  CD1       21.3680  -18.0660   -1.9430 C.3    81  LEU81       0.0001
     92  CD2       20.1920  -15.9420   -1.2560 C.3    81  LEU81       0.0001
     93  N         22.2990  -28.1660    6.6030 N.3    99  ARG99      -0.1245
     94  CA        20.9550  -28.5910    6.9620 C.3    99  ARG99       0.1563
     95  C         20.8530  -30.0820    6.7060 C.2    99  ARG99       0.2260
     96  O         21.5160  -30.5920    5.8040 O.2    99  ARG99      -0.2867
     97  CB        19.9640  -27.8560    6.0650 C.3    99  ARG99       0.0307
     98  CG        18.7090  -27.4650    6.7120 C.3    99  ARG99       0.0489
     99  CD        17.8480  -26.6870    5.7370 C.3    99  ARG99       0.2205
    100  NE        16.4690  -27.0540    5.9690 N.pl3  99  ARG99      -0.0865
    101  CZ        15.6010  -26.3710    6.7040 C.cat  99  ARG99       0.5346
    102  NH1       15.9180  -25.2040    7.2680 N.pl3  99  ARG99       0.1354
    103  NH2       14.3810  -26.8570    6.8500 N.pl3  99  ARG99       0.1354
    104  N         23.7930  -20.9990    7.6310 N.3   128  THR128     -0.1218
    105  CA        23.9230  -20.4870    6.2790 C.3   128  THR128      0.1862
    106  C         25.2390  -19.7380    6.1430 C.2   128  THR128      0.2287
    107  O         25.6040  -18.9460    7.0220 O.2   128  THR128     -0.2866
    108  CB        22.7700  -19.5150    5.9570 C.3   128  THR128      0.1770
    109  OG1       21.5230  -20.1900    6.1200 O.3   128  THR128     -0.2211
    110  CG2       22.8630  -18.9500    4.5280 C.3   128  THR128      0.0375
    111  N         27.0170  -17.2770    3.2380 N.3   130  ILE130     -0.1245
    112  CA        26.8630  -16.5240    1.9980 C.3   130  ILE130      0.1561
    113  C         28.1820  -15.8110    1.7270 C.2   130  ILE130      0.2260
    114  O         28.7240  -15.1860    2.6340 O.2   130  ILE130     -0.2867
    115  CB        25.7460  -15.4600    2.0970 C.3   130  ILE130      0.0252
    116  CG1       24.3640  -16.1150    2.1980 C.3   130  ILE130      0.0019
    117  CG2       25.8010  -14.5000    0.8800 C.3   130  ILE130      0.0019
    118  CD1       23.8430  -16.6600    0.8820 C.3   130  ILE130      0.0001
@<TRIPOS>BOND
     1    88    87    2
     2    87    86    1
     3    86    89    1
     4    86    85    1
     5    89    90    1
     6    77    78    1
     7    85    79   am
     8    80    79    2
     9    79    78    1
    10    78    81    1
    11    90    91    1
    12    90    92    1
    13    81    82    1
    14    81    83    1
    15    82    84    1
    16   117   115    1
    17   118   116    1
    18    73    72    2
    19     8     6    1
    20   113   112    1
    21   113   114    2
    22    72    71    1
    23   112   115    1
    24   112   111    1
    25     6     5    1
    26    68    66    1
    27   115   116    1
    28    69    67    1
    29    66    67    1
    30    66    63    1
    31    71    74    1
    32    71    70    1
    33    74    75    1
    34    65    64    2
    35     5     7    1
    36     5     2    1
    37    70    64   am
    38    70    76    1
    39    64    63    1
    40     1     2    1
    41    16    14   am
    42     2     3    1
    43    63    62    1
    44    76    75    1
    45   110   108    1
    46    15    14    2
    47    14    13    1
    48    32    33    1
    49    62    60   am
    50    38    36    1
    51     3     4    2
    52    99   100    1
    53    99    98    1
    54    35    34    2
    55    96    95    2
    56   108   109    1
    57   108   105    1
    58   100   101    2
    59    13    10    1
    60    36    33    1
    61    36    37    1
    62    97    98    1
    63    97    94    1
    64   106   105    1
    65   106   107    2
    66    60    61    2
    67    60    59    1
    68    33    34    1
    69   105   104    1
    70    93    94    1
    71   101   103    1
    72   101   102    1
    73    95    94    1
    74    59    58    1
    75    10     9    1
    76    10    11    1
    77    11    17   am
    78    11    12    2
    79    58    49   am
    80    50    49    2
    81    17    18    1
    82    22    21    1
    83    46    44   ar
    84    49    48    1
    85    39    40    1
    86    44    45   ar
    87    44    43    1
    88    18    21    1
    89    18    19    1
    90    42    41    2
    91    51    48    1
    92    51    52    1
    93    48    47    1
    94    57    55    1
    95    30    29   ar
    96    43    40    1
    97    40    41    1
    98    55    56    1
    99    55    54    2
   100    29    31   ar
   101    29    28    1
   102    27    28    1
   103    27    24    1
   104    19    20    2
   105    54    53    1
   106    53    52    1
   107    23    24    1
   108    24    25    1
   109    25    26    2
