@<TRIPOS>MOLECULE
tmp/3u2oA02.pdb
 202 191 0 0 0
SMALL
GASTEIGER

@<TRIPOS>ATOM
      1  N         -5.4450   24.4830   -7.7920 N.3     9  TYR9       -0.1241
      2  CA        -5.2600   25.8460   -7.3080 C.3     9  TYR9        0.1605
      3  C         -4.0490   26.4820   -7.9550 C.2     9  TYR9        0.2264
      4  O         -4.1290   27.5910   -8.4870 O.2     9  TYR9       -0.2867
      5  CB        -5.1380   25.8680   -5.7790 C.3     9  TYR9        0.0534
      6  CG        -6.4830   25.8210   -5.0780 C.ar    9  TYR9       -0.0201
      7  CD1       -7.1310   24.6110   -4.8670 C.ar    9  TYR9       -0.0009
      8  CD2       -7.1290   26.9930   -4.6710 C.ar    9  TYR9       -0.0009
      9  CE1       -8.3580   24.5480   -4.2460 C.ar    9  TYR9        0.0417
     10  CE2       -8.3620   26.9410   -4.0280 C.ar    9  TYR9        0.0417
     11  CZ        -8.9740   25.7150   -3.8230 C.ar    9  TYR9        0.1957
     12  OH       -10.2060   25.6360   -3.2040 O.3     9  TYR9       -0.2866
     13  N         -6.8390   27.6490  -10.7320 N.3    13  LEU13      -0.1231
     14  CA        -7.6060   28.6200   -9.9790 C.3    13  LEU13       0.1693
     15  C         -6.8290   29.9130   -9.7380 C.2    13  LEU13       0.2591
     16  O         -7.3330   30.9970  -10.0550 O.2    13  LEU13      -0.2718
     17  CB        -8.1290   28.0320   -8.6640 C.3    13  LEU13       0.0284
     18  CG        -9.2210   28.9050   -8.0050 C.3    13  LEU13       0.0019
     19  CD1      -10.1130   28.0770   -7.0890 C.3    13  LEU13       0.0001
     20  CD2       -8.6130   30.0930   -7.2210 C.3    13  LEU13       0.0001
     21  N         -5.6140   29.8150   -9.1910 N.am   14  MET14      -0.1979
     22  CA        -4.8760   31.0350   -8.7870 C.3    14  MET14       0.1605
     23  C         -4.4530   31.8850   -9.9950 C.2    14  MET14       0.2287
     24  O         -4.6230   33.0950   -9.9610 O.2    14  MET14      -0.2864
     25  CB        -3.6640   30.7260   -7.8960 C.3    14  MET14       0.0413
     26  CG        -3.9900   30.0980   -6.5180 C.3    14  MET14       0.0598
     27  SD        -5.3440   30.8980   -5.6220 S.3    14  MET14      -0.1393
     28  CE        -4.5630   32.4580   -5.1220 C.3    14  MET14       0.0692
     29  N         -7.6100   33.7100  -11.1990 N.3    17  LEU17      -0.1245
     30  CA        -7.8250   34.8020  -10.2450 C.3    17  LEU17       0.1561
     31  C         -6.8360   35.9350  -10.4850 C.2    17  LEU17       0.2260
     32  O         -7.2610   37.0810  -10.5310 O.2    17  LEU17      -0.2867
     33  CB        -7.6820   34.3030   -8.8050 C.3    17  LEU17       0.0270
     34  CG        -8.0190   35.3190   -7.7130 C.3    17  LEU17       0.0019
     35  CD1       -9.4870   35.8190   -7.8370 C.3    17  LEU17       0.0001
     36  CD2       -7.7470   34.7290   -6.3260 C.3    17  LEU17       0.0001
     37  N         -3.8940   42.7420   -7.5650 N.3    23  PRO23      -0.2116
     38  CA        -3.5030   42.0800   -6.3060 C.3    23  PRO23       0.1372
     39  C         -4.3470   42.5010   -5.0970 C.2    23  PRO23       0.2244
     40  O         -4.7710   41.6460   -4.3080 O.2    23  PRO23      -0.2868
     41  CB        -2.0290   42.4840   -6.1500 C.3    23  PRO23       0.0268
     42  CG        -1.5570   42.7750   -7.5250 C.3    23  PRO23       0.0207
     43  CD        -2.7270   43.3310   -8.2660 C.3    23  PRO23       0.0892
     44  N         -7.8350   41.0900   -5.2490 N.3    26  ALA26      -0.1231
     45  CA        -7.7280   39.6780   -4.9080 C.3    26  ALA26       0.1694
     46  C         -7.6310   39.4500   -3.3820 C.2    26  ALA26       0.2592
     47  O         -8.2650   38.5380   -2.8250 O.2    26  ALA26      -0.2718
     48  CB        -6.5370   39.0660   -5.6300 C.3    26  ALA26       0.0304
     49  N         -6.8340   40.2880   -2.7320 N.am   27  HIS27      -0.1976
     50  CA        -6.6630   40.2790   -1.2650 C.3    27  HIS27       0.1656
     51  C         -8.0120   40.4960   -0.5620 C.2    27  HIS27       0.2291
     52  O         -8.4150   39.7230    0.3230 O.2    27  HIS27      -0.2864
     53  CB        -5.6800   41.3920   -0.8820 C.3    27  HIS27       0.0771
     54  CG        -5.3020   41.4260    0.5740 C.ar   27  HIS27       0.0820
     55  ND1       -4.4910   42.4120    1.0940 N.ar   27  HIS27      -0.2267
     56  CD2       -5.6250   40.6210    1.6150 C.ar   27  HIS27       0.1154
     57  CE1       -4.3100   42.2010    2.3870 C.ar   27  HIS27       0.1986
     58  NE2       -4.9920   41.1240    2.7310 N.ar   27  HIS27      -0.2212
     59  N        -10.3850   37.5130   -1.1180 N.3    30  ALA30      -0.1245
     60  CA        -9.9330   36.3990   -0.2860 C.3    30  ALA30       0.1562
     61  C        -10.3250   36.5900    1.1780 C.2    30  ALA30       0.2260
     62  O        -10.6930   35.6160    1.8370 O.2    30  ALA30      -0.2867
     63  CB        -8.3950   36.1920   -0.3970 C.3    30  ALA30       0.0290
     64  N        -14.1450   35.9930    1.2210 N.3    33  PHE33      -0.1227
     65  CA       -14.4500   34.5870    1.0010 C.3    33  PHE33       0.1736
     66  C        -14.0570   33.7250    2.2020 C.2    33  PHE33       0.2596
     67  O        -14.7710   32.8030    2.5870 O.2    33  PHE33      -0.2718
     68  CB       -13.7190   34.1200   -0.2380 C.3    33  PHE33       0.0547
     69  CG       -14.1430   32.7810   -0.7130 C.ar   33  PHE33      -0.0202
     70  CD1      -15.1490   32.6600   -1.6640 C.ar   33  PHE33      -0.0042
     71  CD2      -13.5370   31.6360   -0.2220 C.ar   33  PHE33      -0.0042
     72  CE1      -15.5530   31.4060   -2.1170 C.ar   33  PHE33      -0.0003
     73  CE2      -13.9320   30.3670   -0.6600 C.ar   33  PHE33      -0.0003
     74  CZ       -14.9370   30.2560   -1.6170 C.ar   33  PHE33      -0.0000
     75  N        -12.9050   34.0430    2.7960 N.am   34  THR34      -0.1953
     76  CA       -12.3580   33.2850    3.9030 C.3    34  THR34       0.1897
     77  C        -13.1960   33.5280    5.1630 C.2    34  THR34       0.2313
     78  O        -13.4310   32.5960    5.9360 O.2    34  THR34      -0.2863
     79  CB       -10.8640   33.6550    4.1240 C.3    34  THR34       0.1794
     80  OG1      -10.1350   33.3130    2.9490 O.3    34  THR34      -0.2208
     81  CG2      -10.2320   32.9270    5.3140 C.3    34  THR34       0.0378
     82  N        -15.1560   27.7660    1.8740 N.3    39  LEU39      -0.1245
     83  CA       -14.2970   26.6120    1.5980 C.3    39  LEU39       0.1561
     84  C        -14.4840   25.5220    2.6740 C.2    39  LEU39       0.2260
     85  O        -14.5790   25.8390    3.8590 O.2    39  LEU39      -0.2867
     86  CB       -12.8380   27.0730    1.5620 C.3    39  LEU39       0.0270
     87  CG       -11.8540   26.2780    0.7200 C.3    39  LEU39       0.0019
     88  CD1      -12.2760   26.2470   -0.7470 C.3    39  LEU39       0.0001
     89  CD2      -10.4770   26.9110    0.8800 C.3    39  LEU39       0.0001
     90  N         -2.5460   39.6590    6.0790 N.3    69  PHE69      -0.1241
     91  CA        -3.6730   39.1270    5.3170 C.3    69  PHE69       0.1605
     92  C         -4.9690   39.6550    5.9140 C.2    69  PHE69       0.2264
     93  O         -5.8020   40.2570    5.2560 O.2    69  PHE69      -0.2867
     94  CB        -3.7100   37.6040    5.3220 C.3    69  PHE69       0.0534
     95  CG        -4.9050   37.0670    4.6150 C.ar   69  PHE69      -0.0203
     96  CD1       -4.9840   37.1400    3.2450 C.ar   69  PHE69      -0.0042
     97  CD2       -5.9960   36.5610    5.3280 C.ar   69  PHE69      -0.0042
     98  CE1       -6.1090   36.6920    2.5730 C.ar   69  PHE69      -0.0003
     99  CE2       -7.1390   36.0940    4.6580 C.ar   69  PHE69      -0.0003
    100  CZ        -7.1970   36.1690    3.2870 C.ar   69  PHE69      -0.0000
    101  N         -9.7560   31.3070    8.8230 N.3    79  LEU79      -0.1245
    102  CA        -8.3540   30.9150    8.7680 C.3    79  LEU79       0.1561
    103  C         -8.0050   29.6970    9.6050 C.2    79  LEU79       0.2260
    104  O         -7.1900   28.9030    9.1890 O.2    79  LEU79      -0.2867
    105  CB        -7.4480   32.0900    9.1300 C.3    79  LEU79       0.0270
    106  CG        -7.4770   33.1810    8.0690 C.3    79  LEU79       0.0019
    107  CD1       -7.0780   34.4940    8.6730 C.3    79  LEU79       0.0001
    108  CD2       -6.6040   32.7970    6.8440 C.3    79  LEU79       0.0001
    109  N         -9.0040   26.7190    7.5860 N.3    82  MET82      -0.1245
    110  CA        -8.0320   26.4050    6.5500 C.3    82  MET82       0.1570
    111  C         -6.8600   25.5750    7.0710 C.2    82  MET82       0.2261
    112  O         -6.0520   25.0780    6.2730 O.2    82  MET82      -0.2867
    113  CB        -7.4630   27.6900    5.9240 C.3    82  MET82       0.0387
    114  CG        -8.3470   28.3450    4.8860 C.3    82  MET82       0.0595
    115  SD        -7.6180   29.8260    4.1320 S.3    82  MET82      -0.1393
    116  CE        -5.9950   29.2170    3.9360 C.3    82  MET82       0.0692
    117  N         -0.0480   47.1490   -4.0230 N.3   105  VAL105     -0.1245
    118  CA         0.3440   45.7630   -3.9340 C.3   105  VAL105      0.1561
    119  C          0.6580   45.3150   -5.3490 C.2   105  VAL105      0.2260
    120  O         -0.1020   45.6090   -6.2920 O.2   105  VAL105     -0.2867
    121  CB        -0.7850   44.8990   -3.3530 C.3   105  VAL105      0.0252
    122  CG1       -0.3020   43.4790   -3.0860 C.3   105  VAL105      0.0019
    123  CG2       -1.3800   45.5580   -2.1040 C.3   105  VAL105      0.0019
    124  N          2.4790   42.0240   -7.7490 N.3   107  ARG107     -0.1245
    125  CA         2.8540   40.6150   -7.8830 C.3   107  ARG107      0.1563
    126  C          4.1000   40.5130   -8.7420 C.2   107  ARG107      0.2260
    127  O          4.2610   41.2810   -9.7100 O.2   107  ARG107     -0.2867
    128  CB         1.7480   39.8050   -8.5730 C.3   107  ARG107      0.0307
    129  CG         0.4600   39.5490   -7.7870 C.3   107  ARG107      0.0489
    130  CD        -0.5670   38.8200   -8.6900 C.3   107  ARG107      0.2205
    131  NE        -1.9580   38.8290   -8.2020 N.pl3 107  ARG107     -0.0865
    132  CZ        -3.0180   39.3380   -8.8530 C.cat 107  ARG107      0.5346
    133  NH1       -2.9050   39.9050  -10.0390 N.pl3 107  ARG107      0.1354
    134  NH2       -4.2090   39.2620   -8.3090 N.pl3 107  ARG107      0.1354
    135  N          5.8760   39.1610   -3.8220 N.3   114  VAL114     -0.1245
    136  CA         4.9760   40.2880   -3.8360 C.3   114  VAL114      0.1561
    137  C          5.7650   41.4890   -3.3030 C.2   114  VAL114      0.2260
    138  O          6.6390   41.3180   -2.4740 O.2   114  VAL114     -0.2867
    139  CB         3.7070   39.9560   -2.9670 C.3   114  VAL114      0.0252
    140  CG1        2.8960   41.1990   -2.6260 C.3   114  VAL114      0.0019
    141  CG2        2.7910   38.8500   -3.6610 C.3   114  VAL114      0.0019
    142  N          4.5530   45.1660   -1.4630 N.3   116  ASN116     -0.1240
    143  CA         3.4190   45.9230   -0.9790 C.3   116  ASN116      0.1653
    144  C          3.8540   47.1810   -0.2880 C.2   116  ASN116      0.2266
    145  O          4.9120   47.2090    0.3570 O.2   116  ASN116     -0.2867
    146  CB         2.5540   45.0600   -0.0520 C.3   116  ASN116      0.1155
    147  CG         3.0460   45.0570    1.3940 C.2   116  ASN116      0.2627
    148  OD1        2.6740   45.9240    2.1380 O.2   116  ASN116     -0.2716
    149  ND2        3.8480   44.0560    1.7890 N.am  116  ASN116     -0.0877
    150  N          1.1440   49.0820    1.4960 N.3   118  TYR118     -0.1241
    151  CA        -0.1620   49.4130    2.0570 C.3   118  TYR118      0.1605
    152  C         -0.0970   50.6510    2.9750 C.2   118  TYR118      0.2264
    153  O         -0.9220   51.5430    2.8900 O.2   118  TYR118     -0.2867
    154  CB        -0.7140   48.2040    2.8080 C.3   118  TYR118      0.0534
    155  CG        -1.6480   47.3060    2.0290 C.ar  118  TYR118     -0.0201
    156  CD1       -1.3990   45.9590    1.9090 C.ar  118  TYR118     -0.0009
    157  CD2       -2.8120   47.7950    1.4580 C.ar  118  TYR118     -0.0009
    158  CE1       -2.2580   45.1320    1.2310 C.ar  118  TYR118      0.0417
    159  CE2       -3.7090   46.9540    0.7760 C.ar  118  TYR118      0.0417
    160  CZ        -3.4240   45.6300    0.6750 C.ar  118  TYR118      0.1957
    161  OH        -4.2840   44.7850    0.0080 O.3   118  TYR118     -0.2866
    162  N          2.3870   34.0260    4.3370 N.3   327  TYR327     -0.1227
    163  CA         1.3210   34.7420    3.7010 C.3   327  TYR327      0.1736
    164  C          1.5150   34.5860    2.1870 C.2   327  TYR327      0.2596
    165  O          0.7030   33.9420    1.5270 O.2   327  TYR327     -0.2718
    166  CB         1.3130   36.1890    4.2020 C.3   327  TYR327      0.0548
    167  CG         0.3060   37.1140    3.5860 C.ar  327  TYR327     -0.0200
    168  CD1        0.3120   38.4830    3.8970 C.ar  327  TYR327     -0.0009
    169  CD2       -0.6400   36.6610    2.6550 C.ar  327  TYR327     -0.0009
    170  CE1       -0.6270   39.3450    3.3200 C.ar  327  TYR327      0.0417
    171  CE2       -1.5500   37.5200    2.0970 C.ar  327  TYR327      0.0417
    172  CZ        -1.5410   38.8510    2.4180 C.ar  327  TYR327      0.1957
    173  OH        -2.4710   39.6610    1.7970 O.3   327  TYR327     -0.2866
    174  N          2.5790   35.1600    1.6400 N.am  328  THR328     -0.1953
    175  CA         2.7460   35.2820    0.1820 C.3   328  THR328      0.1897
    176  C          2.5390   33.9610   -0.5740 C.2   328  THR328      0.2313
    177  O          1.9910   33.9410   -1.6730 O.2   328  THR328     -0.2863
    178  CB         4.1210   35.8710   -0.1560 C.3   328  THR328      0.1794
    179  OG1        4.2420   37.1710    0.4320 O.3   328  THR328     -0.2208
    180  CG2        4.3360   35.9800   -1.6390 C.3   328  THR328      0.0378
    181  N          0.4030   31.8720   -0.2340 N.3   330  LEU330     -0.1231
    182  CA        -1.0330   31.7110   -0.5210 C.3   330  LEU330      0.1693
    183  C         -1.4940   32.3330   -1.8190 C.2   330  LEU330      0.2592
    184  O         -2.4630   31.8900   -2.4320 O.2   330  LEU330     -0.2718
    185  CB        -1.8830   32.3310    0.6000 C.3   330  LEU330      0.0284
    186  CG        -1.9010   31.6190    1.9460 C.3   330  LEU330      0.0019
    187  CD1       -2.3530   32.5960    3.1090 C.3   330  LEU330      0.0001
    188  CD2       -2.7910   30.3350    1.8290 C.3   330  LEU330      0.0001
    189  N         -0.8170   33.3880   -2.2270 N.am  331  THR331     -0.1953
    190  CA        -1.1970   34.1250   -3.4120 C.3   331  THR331      0.1897
    191  C         -0.7940   33.3740   -4.6930 C.2   331  THR331      0.2313
    192  O         -1.3010   33.6760   -5.7450 O.2   331  THR331     -0.2863
    193  CB        -0.5650   35.5340   -3.3530 C.3   331  THR331      0.1794
    194  OG1        0.7980   35.4530   -3.7590 O.3   331  THR331     -0.2208
    195  CG2       -0.6190   36.0980   -1.9170 C.3   331  THR331      0.0378
    196  N         -5.0230   28.0400   -0.6570 N.3   335  PRO335     -0.2116
    197  CA        -5.2170   27.2940    0.5910 C.3   335  PRO335      0.1372
    198  C         -4.5340   25.9290    0.6680 C.2   335  PRO335      0.2244
    199  O         -4.0360   25.5790    1.7260 O.2   335  PRO335     -0.2868
    200  CB        -6.7480   27.1560    0.6840 C.3   335  PRO335      0.0268
    201  CG        -7.2730   28.3300   -0.0030 C.3   335  PRO335      0.0207
    202  CD        -6.2890   28.6070   -1.1540 C.3   335  PRO335      0.0892
@<TRIPOS>BOND
     1    29    30    1
     2    13    14    1
     3    32    31    2
     4    31    30    1
     5    30    33    1
     6    16    15    2
     7   133   132    1
     8    23    24    2
     9    23    22    1
    10    14    15    1
    11    14    17    1
    12    15    21   am
    13   127   126    2
    14    21    22    1
    15   132   134    1
    16   132   131    2
    17    33    34    1
    18    22    25    1
    19   126   125    1
    20   130   131    1
    21   130   129    1
    22    17    18    1
    23   128   125    1
    24   128   129    1
    25     4     3    2
    26    43    37    1
    27    43    42    1
    28    18    20    1
    29    18    19    1
    30     3     2    1
    31    25    26    1
    32   125   124    1
    33    35    34    1
    34     1     2    1
    35    34    36    1
    36    37    38    1
    37    42    41    1
    38     2     5    1
    39    26    27    1
    40    38    41    1
    41    38    39    1
    42   120   119    2
    43     5     6    1
    44   192   191    2
    45    48    45    1
    46    27    28    1
    47   119   118    1
    48    44    45    1
    49    39    40    2
    50     6     7   ar
    51     6     8   ar
    52    45    46    1
    53     7     9   ar
    54   191   190    1
    55     8    10   ar
    56     9    11   ar
    57    10    11   ar
    58   117   118    1
    59   118   121    1
    60   136   135    1
    61   136   137    1
    62   136   139    1
    63    11    12    1
    64   194   193    1
    65   141   139    1
    66   190   193    1
    67   190   189    1
    68    46    47    2
    69    46    49   am
    70   121   122    1
    71   121   123    1
    72   193   195    1
    73   137   138    2
    74   139   140    1
    75    49    50    1
    76   184   183    2
    77   189   183   am
    78    72    70   ar
    79    72    74   ar
    80   183   182    1
    81   177   176    2
    82    70    69   ar
    83   180   178    1
    84    74    73   ar
    85   142   143    1
    86    50    53    1
    87    50    51    1
    88   202   196    1
    89   202   201    1
    90    59    60    1
    91   143   144    1
    92   143   146    1
    93    53    54    1
    94    88    87    1
    95    69    68    1
    96    69    71   ar
    97    73    71   ar
    98   196   197    1
    99   176   175    1
   100    51    52    2
   101   182   181    1
   102   182   185    1
   103    63    60    1
   104   144   145    2
   105    60    61    1
   106    68    65    1
   107   178   175    1
   108   178   179    1
   109   146   147    1
   110   201   200    1
   111   161   160    1
   112   175   174    1
   113    54    55   ar
   114    54    56   ar
   115   197   198    1
   116   197   200    1
   117   185   186    1
   118   198   199    2
   119   160   159   ar
   120   160   158   ar
   121    87    89    1
   122    87    86    1
   123   159   157   ar
   124    65    64    1
   125    65    66    1
   126    55    57   ar
   127    61    62    2
   128   158   156   ar
   129   147   149   am
   130   147   148    2
   131   157   155   ar
   132   150   151    1
   133   165   164    2
   134    86    83    1
   135    83    82    1
   136    83    84    1
   137    56    58   ar
   138   174   164   am
   139   173   172    1
   140   188   186    1
   141   156   155   ar
   142   186   187    1
   143   155   154    1
   144   151   154    1
   145   151   152    1
   146   171   172   ar
   147   171   169   ar
   148   164   163    1
   149    66    67    2
   150    66    75   am
   151    57    58   ar
   152   172   170   ar
   153    98    96   ar
   154    98   100   ar
   155   169   167   ar
   156    84    85    2
   157    75    76    1
   158   153   152    2
   159    80    79    1
   160    96    95   ar
   161   100    99   ar
   162   170   168   ar
   163   167   168   ar
   164   167   166    1
   165   163   166    1
   166   163   162    1
   167    76    79    1
   168    76    77    1
   169   116   115    1
   170    79    81    1
   171   115   114    1
   172    95    94    1
   173    95    97   ar
   174    99    97   ar
   175   114   113    1
   176    77    78    2
   177    93    92    2
   178    91    94    1
   179    91    92    1
   180    91    90    1
   181   113   110    1
   182   112   111    2
   183   110   111    1
   184   110   109    1
   185   108   106    1
   186   106   107    1
   187   106   105    1
   188   102   101    1
   189   102   105    1
   190   102   103    1
   191   104   103    2
