@<TRIPOS>MOLECULE
tmp/3u2qA00.pdb
 188 179 0 0 0
SMALL
GASTEIGER

@<TRIPOS>ATOM
      1  N         40.9430  -28.3230   -9.7710 N.3   207  GLU207     -0.1231
      2  CA        41.1450  -28.9370  -11.0790 C.3   207  GLU207      0.1699
      3  C         41.8430  -30.2940  -10.9510 C.2   207  GLU207      0.2592
      4  O         41.2510  -31.3360  -11.2210 O.2   207  GLU207     -0.2718
      5  CB        41.9750  -28.0110  -11.9790 C.3   207  GLU207      0.0402
      6  CG        41.2260  -26.7950  -12.4660 C.3   207  GLU207      0.1161
      7  CD        40.0760  -27.1520  -13.4060 C.2   207  GLU207      0.3649
      8  OE1       39.8440  -28.3600  -13.6470 O.co2 207  GLU207     -0.2457
      9  OE2       39.4020  -26.2220  -13.9060 O.co2 207  GLU207     -0.2457
     10  N         43.1050  -30.2710  -10.5410 N.am  208  ASP208     -0.1974
     11  CA        43.8690  -31.4940  -10.3840 C.3   208  ASP208      0.1709
     12  C         44.1830  -31.7210   -8.9080 C.2   208  ASP208      0.2293
     13  O         44.2580  -30.7630   -8.1240 O.2   208  ASP208     -0.2864
     14  CB        45.1330  -31.4140  -11.2430 C.3   208  ASP208      0.1436
     15  CG        44.8190  -31.4850  -12.7320 C.2   208  ASP208      0.3671
     16  OD1       44.4420  -32.5740  -13.2190 O.co2 208  ASP208     -0.2456
     17  OD2       44.9270  -30.4530  -13.4200 O.co2 208  ASP208     -0.2456
     18  N         46.5160  -34.3310   -6.0370 N.3   210  PHE210     -0.1241
     19  CA        47.4580  -35.4050   -5.7100 C.3   210  PHE210      0.1605
     20  C         47.9980  -35.2930   -4.2800 C.2   210  PHE210      0.2264
     21  O         48.1330  -34.2010   -3.7190 O.2   210  PHE210     -0.2867
     22  CB        48.6260  -35.4480   -6.7080 C.3   210  PHE210      0.0534
     23  CG        49.4240  -34.1910   -6.7560 C.ar  210  PHE210     -0.0203
     24  CD1       49.0980  -33.1850   -7.6420 C.ar  210  PHE210     -0.0042
     25  CD2       50.4730  -33.9890   -5.8680 C.ar  210  PHE210     -0.0042
     26  CE1       49.8040  -31.9850   -7.6410 C.ar  210  PHE210     -0.0003
     27  CE2       51.1840  -32.7940   -5.8580 C.ar  210  PHE210     -0.0003
     28  CZ        50.8470  -31.7920   -6.7470 C.ar  210  PHE210     -0.0000
     29  N         50.6140  -35.9140   -0.8520 N.3   212  ILE212     -0.1245
     30  CA        51.9790  -35.6850   -0.3860 C.3   212  ILE212      0.1561
     31  C         52.1840  -36.4290    0.9330 C.2   212  ILE212      0.2260
     32  O         51.9080  -35.8840    2.0040 O.2   212  ILE212     -0.2867
     33  CB        52.2360  -34.1890   -0.1220 C.3   212  ILE212      0.0252
     34  CG1       52.0210  -33.3770   -1.4030 C.3   212  ILE212      0.0019
     35  CG2       53.6440  -33.9950    0.4120 C.3   212  ILE212      0.0019
     36  CD1       53.0610  -33.5920   -2.4610 C.3   212  ILE212      0.0001
     37  N         52.7550  -34.6750    4.5580 N.3   215  ARG215     -0.1245
     38  CA        51.8560  -33.5420    4.7940 C.3   215  ARG215      0.1563
     39  C         50.3740  -33.7300    4.5020 C.2   215  ARG215      0.2260
     40  O         49.5170  -33.2790    5.2730 O.2   215  ARG215     -0.2867
     41  CB        52.3450  -32.3410    3.9880 C.3   215  ARG215      0.0307
     42  CG        53.6750  -32.5620    3.2700 C.3   215  ARG215      0.0489
     43  CD        54.8850  -32.2070    4.1280 C.3   215  ARG215      0.2205
     44  NE        56.0810  -32.0980    3.2970 N.pl3 215  ARG215     -0.0865
     45  CZ        57.1340  -31.3460    3.5950 C.cat 215  ARG215      0.5346
     46  NH1       57.1440  -30.6270    4.7140 N.pl3 215  ARG215      0.1354
     47  NH2       58.1720  -31.3060    2.7680 N.pl3 215  ARG215      0.1354
     48  N         47.6240  -31.9050   -2.0650 N.3   218  VAL218     -0.1245
     49  CA        47.6030  -30.6000   -2.6960 C.3   218  VAL218      0.1561
     50  C         46.5480  -30.6500   -3.7970 C.2   218  VAL218      0.2260
     51  O         46.3260  -31.6920   -4.4220 O.2   218  VAL218     -0.2867
     52  CB        48.9880  -30.1680   -3.3120 C.3   218  VAL218      0.0252
     53  CG1       50.0520  -31.1560   -2.9670 C.3   218  VAL218      0.0019
     54  CG2       48.8690  -29.9730   -4.8290 C.3   218  VAL218      0.0019
     55  N         44.9680  -28.3030   -7.1890 N.3   220  THR220     -0.1203
     56  CA        45.3520  -27.1910   -8.0460 C.3   220  THR220      0.1994
     57  C         44.1520  -26.5590   -8.7210 C.2   220  THR220      0.2618
     58  O         43.0410  -27.0740   -8.6330 O.2   220  THR220     -0.2717
     59  CB        46.3990  -27.6210   -9.1370 C.3   220  THR220      0.1784
     60  OG1       45.7640  -28.3740  -10.1770 O.3   220  THR220     -0.2211
     61  CG2       47.4850  -28.4650   -8.5160 C.3   220  THR220      0.0376
     62  N         44.3940  -25.4250   -9.3760 N.am  221  GLY221     -0.1942
     63  CA        43.3590  -24.6960  -10.0870 C.3   221  GLY221      0.2014
     64  C         43.6750  -23.2090  -10.1260 C.2   221  GLY221      0.2638
     65  O         44.7630  -22.7740   -9.7530 O.2   221  GLY221     -0.2714
     66  N         42.7170  -22.4180  -10.5860 N.am  222  ARG222     -0.1977
     67  CA        42.8960  -20.9760  -10.6490 C.3   222  ARG222      0.1597
     68  C         42.1450  -20.3310   -9.4830 C.2   222  ARG222      0.2287
     69  O         41.0750  -20.7880   -9.1020 O.2   222  ARG222     -0.2864
     70  CB        42.3560  -20.4360  -11.9820 C.3   222  ARG222      0.0334
     71  CG        42.4480  -18.9150  -12.1400 C.3   222  ARG222      0.0492
     72  CD        41.8200  -18.4680  -13.4540 C.3   222  ARG222      0.2205
     73  NE        41.7070  -17.0120  -13.5810 N.pl3 222  ARG222     -0.0865
     74  CZ        40.7460  -16.2630  -13.0350 C.cat 222  ARG222      0.5346
     75  NH1       39.7840  -16.8140  -12.3080 N.pl3 222  ARG222      0.1354
     76  NH2       40.7480  -14.9490  -13.2170 N.pl3 222  ARG222      0.1354
     77  N         49.6240  -18.6460    2.9070 N.3   230  VAL230     -0.1245
     78  CA        50.1320  -19.8470    3.5700 C.3   230  VAL230      0.1561
     79  C         49.9690  -19.7360    5.0780 C.2   230  VAL230      0.2260
     80  O         50.4810  -18.8020    5.6950 O.2   230  VAL230     -0.2867
     81  CB        51.6270  -20.0860    3.2770 C.3   230  VAL230      0.0252
     82  CG1       52.2020  -21.0240    4.3250 C.3   230  VAL230      0.0019
     83  CG2       51.8040  -20.6800    1.8900 C.3   230  VAL230      0.0019
     84  N         49.3840  -25.2970    4.1530 N.3   248  THR248     -0.1203
     85  CA        50.7680  -25.3020    4.6180 C.3   248  THR248      0.1994
     86  C         51.7700  -24.9550    3.5310 C.2   248  THR248      0.2618
     87  O         52.9710  -25.1500    3.7070 O.2   248  THR248     -0.2717
     88  CB        51.1580  -26.6680    5.2490 C.3   248  THR248      0.1784
     89  OG1       50.9990  -27.7130    4.2840 O.3   248  THR248     -0.2211
     90  CG2       50.2830  -26.9610    6.4620 C.3   248  THR248      0.0376
     91  N         51.2720  -24.4280    2.4170 N.am  249  GLY249     -0.1956
     92  CA        52.1460  -24.0660    1.3200 C.3   249  GLY249      0.1869
     93  C         51.4270  -23.8750   -0.0030 C.2   249  GLY249      0.2309
     94  O         50.3920  -24.4890   -0.2760 O.2   249  GLY249     -0.2863
     95  N         52.3530  -23.2880   -4.3200 N.3   251  GLU251     -0.1231
     96  CA        53.4010  -23.4310   -5.3150 C.3   251  GLU251      0.1699
     97  C         52.8670  -23.0870   -6.6860 C.2   251  GLU251      0.2592
     98  O         51.6870  -23.2780   -6.9680 O.2   251  GLU251     -0.2718
     99  CB        53.9390  -24.8680   -5.3230 C.3   251  GLU251      0.0402
    100  CG        55.1880  -25.0360   -6.1640 C.3   251  GLU251      0.1161
    101  CD        55.6700  -26.4610   -6.2310 C.2   251  GLU251      0.3649
    102  OE1       55.9680  -27.0470   -5.1670 O.co2 251  GLU251     -0.2457
    103  OE2       55.7560  -26.9970   -7.3540 O.co2 251  GLU251     -0.2457
    104  N         53.7480  -22.5960   -7.5440 N.am  252  MET252     -0.1965
    105  CA        53.3600  -22.2040   -8.8860 C.3   252  MET252      0.1736
    106  C         54.6040  -22.3410   -9.7320 C.2   252  MET252      0.2616
    107  O         55.6200  -21.7050   -9.4540 O.2   252  MET252     -0.2715
    108  CB        52.8720  -20.7540   -8.8610 C.3   252  MET252      0.0427
    109  CG        52.5160  -20.1430  -10.1940 C.3   252  MET252      0.0599
    110  SD        52.0830  -18.3780   -9.9960 S.3   252  MET252     -0.1393
    111  CE        53.5980  -17.6290  -10.5560 C.3   252  MET252      0.0692
    112  N         54.5290  -23.1920  -10.7510 N.am  253  PHE253     -0.1960
    113  CA        55.6600  -23.4330  -11.6420 C.3   253  PHE253      0.1771
    114  C         56.8580  -23.9970  -10.8780 C.2   253  PHE253      0.2619
    115  O         58.0030  -23.8110  -11.2740 O.2   253  PHE253     -0.2715
    116  CB        56.0560  -22.1340  -12.3430 C.3   253  PHE253      0.0574
    117  CG        54.8960  -21.3930  -12.9220 C.ar  253  PHE253     -0.0200
    118  CD1       53.8930  -22.0750  -13.5970 C.ar  253  PHE253     -0.0042
    119  CD2       54.8100  -20.0170  -12.8050 C.ar  253  PHE253     -0.0042
    120  CE1       52.8150  -21.4010  -14.1520 C.ar  253  PHE253     -0.0003
    121  CE2       53.7370  -19.3340  -13.3550 C.ar  253  PHE253     -0.0003
    122  CZ        52.7350  -20.0290  -14.0330 C.ar  253  PHE253     -0.0000
    123  N         56.5700  -24.6670   -9.7710 N.am  254  ARG254     -0.1977
    124  CA        57.5800  -25.2890   -8.9230 C.3   254  ARG254      0.1597
    125  C         58.1910  -24.3840   -7.8670 C.2   254  ARG254      0.2287
    126  O         58.9550  -24.8470   -7.0140 O.2   254  ARG254     -0.2864
    127  CB        58.6750  -25.9270   -9.7800 C.3   254  ARG254      0.0334
    128  CG        58.1420  -27.0730  -10.6120 C.3   254  ARG254      0.0492
    129  CD        57.0610  -27.7990   -9.8260 C.3   254  ARG254      0.2205
    130  NE        57.1280  -29.2440   -9.9780 N.pl3 254  ARG254     -0.0865
    131  CZ        57.3160  -30.0920   -8.9720 C.cat 254  ARG254      0.5346
    132  NH1       57.3600  -31.3850   -9.2120 N.pl3 254  ARG254      0.1354
    133  NH2       57.4580  -29.6570   -7.7250 N.pl3 254  ARG254      0.1354
    134  N         57.7250  -22.2080   -4.5840 N.3   256  LEU256     -0.1245
    135  CA        56.8090  -22.1100   -3.4670 C.3   256  LEU256      0.1561
    136  C         56.5740  -20.6270   -3.2020 C.2   256  LEU256      0.2260
    137  O         57.4950  -19.8240   -3.2840 O.2   256  LEU256     -0.2867
    138  CB        57.3920  -22.8170   -2.2380 C.3   256  LEU256      0.0270
    139  CG        57.3790  -24.3480   -2.3710 C.3   256  LEU256      0.0019
    140  CD1       57.8530  -25.0020   -1.0830 C.3   256  LEU256      0.0001
    141  CD2       55.9660  -24.8150   -2.6930 C.3   256  LEU256      0.0001
    142  N         43.2640  -14.8410  -10.1800 N.3   263  GLY263     -0.1210
    143  CA        43.7820  -14.6890  -11.5210 C.3   263  GLY263      0.1956
    144  C         44.9940  -15.5690  -11.7170 C.2   263  GLY263      0.2612
    145  O         45.5060  -15.6740  -12.8320 O.2   263  GLY263     -0.2717
    146  N         45.4560  -16.2030  -10.6420 N.am  264  GLU264     -0.1965
    147  CA        46.6210  -17.0820  -10.7410 C.3   264  GLU264      0.1733
    148  C         46.3010  -18.5620  -10.5740 C.2   264  GLU264      0.2616
    149  O         45.3640  -18.9290   -9.8640 O.2   264  GLU264     -0.2715
    150  CB        47.6730  -16.7200   -9.6880 C.3   264  GLU264      0.0429
    151  CG        48.2970  -15.3580   -9.8300 C.3   264  GLU264      0.1163
    152  CD        49.4090  -15.1180   -8.8200 C.2   264  GLU264      0.3649
    153  OE1       49.1640  -15.2730   -7.6020 O.co2 264  GLU264     -0.2457
    154  OE2       50.5310  -14.7690   -9.2540 O.co2 264  GLU264     -0.2457
    155  N         47.0960  -19.3980  -11.2380 N.am  265  ASN265     -0.1958
    156  CA        46.9790  -20.8470  -11.1260 C.3   265  ASN265      0.1819
    157  C         48.0170  -21.2960  -10.1040 C.2   265  ASN265      0.2621
    158  O         49.1930  -21.0000  -10.2510 O.2   265  ASN265     -0.2715
    159  CB        47.2950  -21.5410  -12.4410 C.3   265  ASN265      0.1195
    160  CG        46.3090  -21.2370  -13.4940 C.2   265  ASN265      0.2630
    161  OD1       45.2340  -20.7070  -13.2180 O.2   265  ASN265     -0.2716
    162  ND2       46.6480  -21.5770  -14.7290 N.am  265  ASN265     -0.0877
    163  N         47.5860  -22.0280   -9.0850 N.am  266  VAL266     -0.1963
    164  CA        48.5050  -22.4910   -8.0590 C.3   266  VAL266      0.1727
    165  C         48.2300  -23.8990   -7.5230 C.2   266  VAL266      0.2617
    166  O         47.3280  -24.6120   -7.9820 O.2   266  VAL266     -0.2715
    167  CB        48.4980  -21.5250   -6.8610 C.3   266  VAL266      0.0290
    168  CG1       49.1070  -20.1980   -7.2600 C.3   266  VAL266      0.0023
    169  CG2       47.0830  -21.3200   -6.3790 C.3   266  VAL266      0.0023
    170  N         49.0450  -24.2850   -6.5480 N.am  267  GLY267     -0.1940
    171  CA        48.8940  -25.5650   -5.8920 C.3   267  GLY267      0.2014
    172  C         48.7920  -25.2450   -4.4130 C.2   267  GLY267      0.2639
    173  O         49.5780  -24.4560   -3.8950 O.2   267  GLY267     -0.2714
    174  N         47.8050  -25.8110   -3.7340 N.am  268  VAL268     -0.1963
    175  CA        47.6640  -25.5610   -2.3130 C.3   268  VAL268      0.1727
    176  C         47.8130  -26.9050   -1.6220 C.2   268  VAL268      0.2616
    177  O         47.2670  -27.9070   -2.0800 O.2   268  VAL268     -0.2715
    178  CB        46.2930  -24.9330   -1.9700 C.3   268  VAL268      0.0290
    179  CG1       46.2200  -24.6290   -0.4920 C.3   268  VAL268      0.0023
    180  CG2       46.0920  -23.6580   -2.7640 C.3   268  VAL268      0.0023
    181  N         48.5790  -26.9220   -0.5340 N.am  269  LEU269     -0.1977
    182  CA        48.8210  -28.1390    0.2230 C.3   269  LEU269      0.1596
    183  C         47.9120  -28.1630    1.4490 C.2   269  LEU269      0.2287
    184  O         47.9630  -27.2630    2.2960 O.2   269  LEU269     -0.2864
    185  CB        50.2780  -28.1820    0.6640 C.3   269  LEU269      0.0297
    186  CG        50.9690  -29.5460    0.7620 C.3   269  LEU269      0.0022
    187  CD1       52.0290  -29.4180    1.8500 C.3   269  LEU269      0.0001
    188  CD2       49.9890  -30.6880    1.0870 C.3   269  LEU269      0.0001
@<TRIPOS>BOND
     1   162   160   am
     2   120   122   ar
     3   120   118   ar
     4   122   121   ar
     5     9     7   ar
     6     8     7   ar
     7   118   117   ar
     8    73    72    1
     9    73    74    2
    10   160   161    2
    11   160   159    1
    12    72    71    1
    13    17    15   ar
    14     7     6    1
    15   121   119   ar
    16    16    15   ar
    17    76    74    1
    18    74    75    1
    19   117   119   ar
    20   117   116    1
    21   145   144    2
    22    15    14    1
    23     6     5    1
    24   159   156    1
    25   116   113    1
    26    71    70    1
    27    70    67    1
    28     5     2    1
    29   144   143    1
    30   144   146   am
    31   113   114    1
    32   113   112    1
    33   143   142    1
    34   115   114    2
    35    14    11    1
    36   155   156    1
    37   155   148   am
    38     4     3    2
    39   156   157    1
    40     2     3    1
    41     2     1    1
    42     3    10   am
    43   114   123   am
    44   112   106   am
    45   147   146    1
    46   147   148    1
    47   147   150    1
    48    67    66    1
    49    67    68    1
    50   128   129    1
    51   128   127    1
    52    66    64   am
    53   148   149    2
    54   111   110    1
    55    10    11    1
    56    11    12    1
    57   158   157    2
    58   109   110    1
    59   109   108    1
    60    60    59    1
    61    64    63    1
    62    64    65    2
    63   157   163   am
    64    63    62    1
    65   130   129    1
    66   130   131    2
    67   151   150    1
    68   151   152    1
    69   127   124    1
    70   123   124    1
    71   106   107    2
    72   106   105    1
    73    68    69    2
    74    62    57   am
    75   154   152   ar
    76   132   131    1
    77    59    61    1
    78    59    56    1
    79   163   164    1
    80   131   133    1
    81   124   125    1
    82    12    13    2
    83   105   108    1
    84   105   104    1
    85   152   153   ar
    86    57    58    2
    87    57    56    1
    88   164   165    1
    89   164   167    1
    90    56    55    1
    91   166   165    2
    92   125   126    2
    93    24    26   ar
    94    24    23   ar
    95    26    28   ar
    96   104    97   am
    97   165   170   am
    98   103   101   ar
    99   168   167    1
   100    98    97    2
   101   167   169    1
   102    23    22    1
   103    23    25   ar
   104    28    27   ar
   105    22    19    1
   106    97    96    1
   107   170   171    1
   108   101   100    1
   109   101   102   ar
   110   100    99    1
   111    18    19    1
   112   171   172    1
   113    25    27   ar
   114    19    20    1
   115    99    96    1
   116    96    95    1
   117    54    52    1
   118   134   135    1
   119    51    50    2
   120   172   173    2
   121   172   174   am
   122    20    21    2
   123    50    49    1
   124   174   175    1
   125   135   136    1
   126   135   138    1
   127    52    53    1
   128    52    49    1
   129   137   136    2
   130   180   178    1
   131    49    48    1
   132   141   139    1
   133    36    34    1
   134   139   138    1
   135   139   140    1
   136   175   178    1
   137   175   176    1
   138   177   176    2
   139   178   179    1
   140   176   181   am
   141    34    33    1
   142    29    30    1
   143   181   182    1
   144    30    33    1
   145    30    31    1
   146    94    93    2
   147    33    35    1
   148    93    92    1
   149   182   185    1
   150   182   183    1
   151   185   186    1
   152   186   188    1
   153   186   187    1
   154    31    32    2
   155    92    91    1
   156   183   184    2
   157    83    81    1
   158    91    86   am
   159    47    45    1
   160    77    78    1
   161    42    41    1
   162    42    43    1
   163    81    78    1
   164    81    82    1
   165    44    45    2
   166    44    43    1
   167    86    87    2
   168    86    85    1
   169    78    79    1
   170    45    46    1
   171    41    38    1
   172    84    85    1
   173    89    88    1
   174    39    38    1
   175    39    40    2
   176    37    38    1
   177    85    88    1
   178    79    80    2
   179    88    90    1
