@<TRIPOS>MOLECULE
tmp/3u2uA00.pdb
 191 180 0 0 0
SMALL
GASTEIGER

@<TRIPOS>ATOM
      1  N         63.4860   20.9330   28.7390 N.3    76  MET76      -0.1245
      2  CA        62.3190   20.1830   28.2580 C.3    76  MET76       0.1570
      3  C         62.6930   18.9670   27.4440 C.2    76  MET76       0.2261
      4  O         61.8090   18.2790   26.9300 O.2    76  MET76      -0.2867
      5  CB        61.4570   21.0520   27.3450 C.3    76  MET76       0.0387
      6  CG        61.0530   22.3440   27.9170 C.3    76  MET76       0.0595
      7  SD        59.8410   23.1140   26.8450 S.3    76  MET76      -0.1393
      8  CE        60.8360   23.7150   25.4800 C.3    76  MET76       0.0692
      9  N         63.8610   19.1890   24.5730 N.3    78  ARG78      -0.1245
     10  CA        63.4710   19.5480   23.1790 C.3    78  ARG78       0.1563
     11  C         64.4440   20.5860   22.6670 C.2    78  ARG78       0.2260
     12  O         64.0660   21.7180   22.3740 O.2    78  ARG78      -0.2867
     13  CB        62.0230   20.0910   23.1300 C.3    78  ARG78       0.0307
     14  CG        60.9530   19.0820   23.5440 C.3    78  ARG78       0.0489
     15  CD        60.8800   17.8320   22.6420 C.3    78  ARG78       0.2205
     16  NE        60.5650   18.1450   21.2380 N.pl3  78  ARG78      -0.0865
     17  CZ        59.3430   18.4270   20.7670 C.cat  78  ARG78       0.5346
     18  NH1       58.2900   18.4460   21.5670 N.pl3  78  ARG78       0.1354
     19  NH2       59.1930   18.7290   19.4910 N.pl3  78  ARG78       0.1354
     20  N         63.7040   23.1530   19.5830 N.3    81  LEU81      -0.1245
     21  CA        62.5370   24.0430   19.5060 C.3    81  LEU81       0.1561
     22  C         62.8480   25.5380   19.5810 C.2    81  LEU81       0.2260
     23  O         61.9470   26.3480   19.6000 O.2    81  LEU81      -0.2867
     24  CB        61.4840   23.6440   20.5270 C.3    81  LEU81       0.0270
     25  CG        60.7400   22.3380   20.2010 C.3    81  LEU81       0.0019
     26  CD1       59.6490   22.0730   21.2090 C.3    81  LEU81       0.0001
     27  CD2       60.1680   22.3470   18.7550 C.3    81  LEU81       0.0001
     28  N         61.1620   27.7190   16.9910 N.3    84  THR84      -0.1218
     29  CA        59.7360   28.0430   17.0600 C.3    84  THR84       0.1862
     30  C         59.4420   29.5230   17.2250 C.2    84  THR84       0.2287
     31  O         58.3310   29.9320   16.9850 O.2    84  THR84      -0.2866
     32  CB        59.0320   27.2540   18.1350 C.3    84  THR84       0.1770
     33  OG1       59.5760   27.5640   19.4140 O.3    84  THR84      -0.2211
     34  CG2       59.1650   25.7390   17.8850 C.3    84  THR84       0.0375
     35  N         57.4940   31.3550   14.4940 N.3    87  LYS87      -0.1245
     36  CA        56.0530   31.5560   14.5220 C.3    87  LYS87       0.1561
     37  C         55.6410   32.9950   14.6180 C.2    87  LYS87       0.2260
     38  O         54.5870   33.3490   14.1100 O.2    87  LYS87      -0.2867
     39  CB        55.3960   30.8590   15.6960 C.3    87  LYS87       0.0271
     40  CG        55.1910   29.4350   15.6080 C.3    87  LYS87       0.0035
     41  CD        54.2410   28.9880   16.7000 C.3    87  LYS87       0.0206
     42  CE        54.4150   27.5680   17.0070 C.3    87  LYS87       0.1093
     43  NZ        53.5640   27.2310   18.2160 N.3    87  LYS87      -0.1314
     44  N         49.9710   24.5530   14.5820 N.3   103  ASP103     -0.1239
     45  CA        51.2180   23.8150   14.5100 C.3   103  ASP103      0.1674
     46  C         51.1610   22.7670   13.3630 C.2   103  ASP103      0.2266
     47  O         50.0980   22.1930   13.0560 O.2   103  ASP103     -0.2867
     48  CB        51.4120   23.0400   15.8140 C.3   103  ASP103      0.1410
     49  CG        52.3690   23.6880   16.8250 C.2   103  ASP103      0.3668
     50  OD1       52.6370   24.9310   16.6860 O.co2 103  ASP103     -0.2456
     51  OD2       52.7420   22.9390   17.8290 O.co2 103  ASP103     -0.2456
     52  N         46.8910   24.4320   28.0610 N.3   126  ASP126     -0.1225
     53  CA        47.9460   23.4230   27.9550 C.3   126  ASP126      0.1790
     54  C         47.8970   22.3720   29.0930 C.2   126  ASP126      0.2440
     55  O         47.9180   22.7560   30.2530 O.2   126  ASP126     -0.2733
     56  CB        49.3180   24.0630   27.9970 C.3   126  ASP126      0.1423
     57  CG        50.4020   23.0860   27.6970 C.2   126  ASP126      0.3668
     58  OD1       50.4580   22.5880   26.5540 O.co2 126  ASP126     -0.2456
     59  OD2       51.1820   22.7610   28.6210 O.co2 126  ASP126     -0.2456
     60  N         47.8760   21.0640   28.7720 N.am  127  PRO127     -0.2718
     61  CA        47.7920   20.1110   29.8620 C.3   127  PRO127      0.1535
     62  C         48.9770   20.1600   30.8170 C.2   127  PRO127      0.2599
     63  O         48.8160   19.8930   32.0320 O.2   127  PRO127     -0.2715
     64  CB        47.7430   18.7610   29.1530 C.3   127  PRO127      0.0310
     65  CG        47.2430   19.0200   27.8430 C.3   127  PRO127      0.0237
     66  CD        47.6960   20.4170   27.4690 C.3   127  PRO127      0.0939
     67  N         50.1590   20.4960   30.3190 N.am  128  GLY128     -0.1955
     68  CA        51.3440   20.5770   31.1810 C.3   128  GLY128      0.1869
     69  C         51.2910   21.6420   32.2850 C.2   128  GLY128      0.2309
     70  O         51.8350   21.4410   33.3950 O.2   128  GLY128     -0.2863
     71  N         48.1310   26.5420   25.2340 N.3   134  ASN134     -0.1225
     72  CA        48.9740   25.8680   24.2670 C.3   134  ASN134      0.1785
     73  C         49.0240   26.6700   22.9800 C.2   134  ASN134      0.2598
     74  O         47.9600   27.0550   22.4390 O.2   134  ASN134     -0.2718
     75  CB        48.4920   24.4290   24.0100 C.3   134  ASN134      0.1169
     76  CG        49.4110   23.6860   23.0790 C.2   134  ASN134      0.2627
     77  OD1       49.2480   23.7630   21.8600 O.2   134  ASN134     -0.2716
     78  ND2       50.4570   23.0710   23.6230 N.am  134  ASN134     -0.0877
     79  N         50.2200   26.9940   22.4960 N.am  135  SER135     -0.1938
     80  CA        50.3790   27.8170   21.3130 C.3   135  SER135      0.2055
     81  C         50.3830   27.0330   19.9980 C.2   135  SER135      0.2643
     82  O         50.7620   27.5730   18.9650 O.2   135  SER135     -0.2714
     83  CB        51.6340   28.6610   21.4220 C.3   135  SER135      0.2130
     84  OG        52.7790   27.8460   21.5230 O.3   135  SER135     -0.2179
     85  N         49.8820   25.8060   20.0250 N.am  136  GLY136     -0.1954
     86  CA        49.7210   25.0120   18.8100 C.3   136  GLY136      0.1869
     87  C         48.4640   25.3230   17.9960 C.2   136  GLY136      0.2309
     88  O         48.3650   24.9220   16.8530 O.2   136  GLY136     -0.2863
     89  N         60.3200   29.2840   28.1070 N.3   161  ASP161     -0.1239
     90  CA        60.5890   27.9180   27.6690 C.3   161  ASP161      0.1674
     91  C         61.5260   27.7890   26.4790 C.2   161  ASP161      0.2266
     92  O         61.6990   26.7030   25.9650 O.2   161  ASP161     -0.2867
     93  CB        59.3030   27.1200   27.4110 C.3   161  ASP161      0.1410
     94  CG        58.5210   27.5810   26.1880 C.2   161  ASP161      0.3668
     95  OD1       58.8700   28.5900   25.5420 O.co2 161  ASP161     -0.2456
     96  OD2       57.5470   26.8930   25.8620 O.co2 161  ASP161     -0.2456
     97  N         60.9740   28.7480   23.5630 N.3   163  GLY163     -0.1210
     98  CA        60.1910   28.6330   22.3440 C.3   163  GLY163      0.1956
     99  C         59.1130   29.6800   22.2710 C.2   163  GLY163      0.2612
    100  O         59.0590   30.6010   23.0690 O.2   163  GLY163     -0.2717
    101  N         58.2260   29.5840   21.2810 N.am  164  ASP164     -0.1959
    102  CA        57.1910   30.5780   21.1890 C.3   164  ASP164      0.1840
    103  C         56.1900   30.5550   22.3330 C.2   164  ASP164      0.2621
    104  O         55.5960   31.5890   22.6390 O.2   164  ASP164     -0.2715
    105  CB        56.3920   30.4450   19.9020 C.3   164  ASP164      0.1450
    106  CG        55.6700   29.1400   19.8400 C.2   164  ASP164      0.3671
    107  OD1       56.3540   28.1280   19.6390 O.co2 164  ASP164     -0.2456
    108  OD2       54.4220   29.1310   20.0060 O.co2 164  ASP164     -0.2456
    109  N         55.9260   29.3970   22.9350 N.am  165  GLN165     -0.1977
    110  CA        54.8260   29.3290   23.8920 C.3   165  GLN165      0.1601
    111  C         55.0740   30.1870   25.1120 C.2   165  GLN165      0.2287
    112  O         54.1750   30.8380   25.6280 O.2   165  GLN165     -0.2864
    113  CB        54.5190   27.8850   24.2720 C.3   165  GLN165      0.0394
    114  CG        53.2640   27.7420   25.0960 C.3   165  GLN165      0.0908
    115  CD        52.7890   26.3220   25.1560 C.2   165  GLN165      0.2608
    116  OE1       52.1330   25.8270   24.2430 O.2   165  GLN165     -0.2717
    117  NE2       53.1350   25.6450   26.2320 N.am  165  GLN165     -0.0878
    118  N         48.4760   15.1880   22.9740 N.3   192  SER192     -0.1202
    119  CA        48.9940   13.8900   23.3870 C.3   192  SER192      0.2020
    120  C         48.7310   13.5590   24.8400 C.2   192  SER192      0.2618
    121  O         48.0320   12.5830   25.1270 O.2   192  SER192     -0.2717
    122  CB        50.5030   13.8390   23.1380 C.3   192  SER192      0.2103
    123  OG        50.7950   14.1020   21.7800 O.3   192  SER192     -0.2182
    124  N         49.3180   14.3290   25.7540 N.am  193  ILE193     -0.1979
    125  CA        49.2240   14.0000   27.1750 C.3   193  ILE193      0.1595
    126  C         47.7980   13.5360   27.4740 C.2   193  ILE193      0.2287
    127  O         47.6000   12.5420   28.1560 O.2   193  ILE193     -0.2864
    128  CB        49.6010   15.2100   28.1220 C.3   193  ILE193      0.0276
    129  CG1       51.1150   15.4420   28.1450 C.3   193  ILE193      0.0022
    130  CG2       49.1120   14.9610   29.5680 C.3   193  ILE193      0.0022
    131  CD1       51.5330   16.7000   28.9350 C.3   193  ILE193      0.0001
    132  N         46.1000    9.9690   26.6900 N.3   196  TYR196     -0.1241
    133  CA        46.5290    8.8090   27.4470 C.3   196  TYR196      0.1605
    134  C         46.5330    8.9500   28.9670 C.2   196  TYR196      0.2264
    135  O         46.6270    7.9460   29.6630 O.2   196  TYR196     -0.2867
    136  CB        47.8870    8.2860   26.9280 C.3   196  TYR196      0.0534
    137  CG        49.1260    9.1460   27.1360 C.ar  196  TYR196     -0.0201
    138  CD1       49.6940    9.3010   28.4030 C.ar  196  TYR196     -0.0009
    139  CD2       49.7930    9.7280   26.0450 C.ar  196  TYR196     -0.0009
    140  CE1       50.8420   10.0630   28.5930 C.ar  196  TYR196      0.0417
    141  CE2       50.9500   10.4890   26.2250 C.ar  196  TYR196      0.0417
    142  CZ        51.4740   10.6550   27.5010 C.ar  196  TYR196      0.1957
    143  OH        52.6350   11.4040   27.6880 O.3   196  TYR196     -0.2866
    144  N         46.4760   17.0600   18.2990 N.3   213  HIS213     -0.1241
    145  CA        47.7990   17.6930   18.3140 C.3   213  HIS213      0.1621
    146  C         48.8180   16.6490   18.7670 C.2   213  HIS213      0.2264
    147  O         48.8100   16.2250   19.9260 O.2   213  HIS213     -0.2867
    148  CB        47.7480   18.9050   19.2380 C.3   213  HIS213      0.0745
    149  CG        49.0130   19.7190   19.2620 C.ar  213  HIS213      0.0817
    150  ND1       49.1500   20.8390   20.0620 N.ar  213  HIS213     -0.2268
    151  CD2       50.2040   19.5600   18.6240 C.ar  213  HIS213      0.1154
    152  CE1       50.3660   21.3510   19.8800 C.ar  213  HIS213      0.1986
    153  NE2       51.0330   20.5890   19.0180 N.ar  213  HIS213     -0.2212
    154  N         51.6760   16.4390   19.9400 N.3   215  LEU215     -0.1231
    155  CA        52.6520   17.1360   20.7400 C.3   215  LEU215      0.1693
    156  C         53.6560   16.1440   21.2600 C.2   215  LEU215      0.2593
    157  O         53.2820   15.0540   21.6950 O.2   215  LEU215     -0.2718
    158  CB        51.9220   17.8340   21.8890 C.3   215  LEU215      0.0284
    159  CG        52.6060   18.7920   22.8360 C.3   215  LEU215      0.0019
    160  CD1       51.5740   19.7640   23.3500 C.3   215  LEU215      0.0001
    161  CD2       53.2720   18.0070   23.9670 C.3   215  LEU215      0.0001
    162  N         54.9390   16.5170   21.1970 N.am  216  GLY216     -0.1942
    163  CA        56.0060   15.6930   21.7460 C.3   216  GLY216      0.2014
    164  C         57.0710   15.3760   20.7290 C.2   216  GLY216      0.2638
    165  O         56.9300   15.6610   19.5750 O.2   216  GLY216     -0.2714
    166  N         58.1570   14.7600   21.1880 N.am  217  ARG217     -0.1977
    167  CA        59.3400   14.5390   20.3520 C.3   217  ARG217      0.1597
    168  C         59.1380   13.5910   19.1500 C.2   217  ARG217      0.2287
    169  O         59.6980   13.8160   18.0720 O.2   217  ARG217     -0.2864
    170  CB        60.4670   14.0100   21.2630 C.3   217  ARG217      0.0334
    171  CG        61.6860   13.4250   20.5610 C.3   217  ARG217      0.0492
    172  CD        62.7130   12.9450   21.5970 C.3   217  ARG217      0.2205
    173  NE        62.1120   12.0090   22.5560 N.pl3 217  ARG217     -0.0865
    174  CZ        61.8240   10.7300   22.3020 C.cat 217  ARG217      0.5346
    175  NH1       61.2730    9.9750   23.2490 N.pl3 217  ARG217      0.1354
    176  NH2       62.0800   10.1940   21.1090 N.pl3 217  ARG217      0.1354
    177  N         53.2260    5.6220   25.0340 N.3   239  PRO239     -0.2102
    178  CA        51.8990    6.0100   25.5330 C.3   239  PRO239      0.1504
    179  C         50.8790    6.4370   24.4560 C.2   239  PRO239      0.2575
    180  O         49.6770    6.2490   24.6510 O.2   239  PRO239     -0.2718
    181  CB        52.2090    7.2040   26.4380 C.3   239  PRO239      0.0282
    182  CG        53.5950    6.9790   26.9010 C.3   239  PRO239      0.0208
    183  CD        54.3100    6.2940   25.7790 C.3   239  PRO239      0.0893
    184  N         51.3500    7.0050   23.3450 N.am  240  ASN240     -0.1975
    185  CA        50.4510    7.5690   22.3080 C.3   240  ASN240      0.1688
    186  C         49.8290    6.5260   21.3700 C.2   240  ASN240      0.2292
    187  O         49.1500    6.8740   20.3920 O.2   240  ASN240     -0.2864
    188  CB        51.2040    8.5840   21.4760 C.3   240  ASN240      0.1181
    189  CG        51.7350    9.7290   22.3060 C.2   240  ASN240      0.2629
    190  OD1       50.9830   10.3740   23.0320 O.2   240  ASN240     -0.2716
    191  ND2       53.0370    9.9860   22.2090 N.am  240  ASN240     -0.0877
@<TRIPOS>BOND
     1    47    46    2
     2    46    45    1
     3    38    37    2
     4    35    36    1
     5    45    44    1
     6    45    48    1
     7    36    37    1
     8    36    39    1
     9    40    39    1
    10    40    41    1
    11    48    49    1
    12    50    49   ar
    13    41    42    1
    14    49    51   ar
    15    88    87    2
    16    31    30    2
    17    28    29    1
    18    42    43    1
    19    29    30    1
    20    29    32    1
    21    34    32    1
    22    87    86    1
    23   169   168    2
    24    32    33    1
    25   144   145    1
    26   145   146    1
    27   145   148    1
    28   151   153   ar
    29   151   149   ar
    30    27    25    1
    31   146   147    2
    32    86    85    1
    33    82    81    2
    34   153   152   ar
    35   168   167    1
    36   148   149    1
    37   149   150   ar
    38    19    17    1
    39    21    22    1
    40    21    20    1
    41    21    24    1
    42   165   164    2
    43    22    23    2
    44   107   106   ar
    45   106   105    1
    46   106   108   ar
    47   152   150   ar
    48   105   102    1
    49   154   155    1
    50    81    85   am
    51    81    80    1
    52    25    24    1
    53    25    26    1
    54   167   166    1
    55   167   170    1
    56   187   186    2
    57   171   170    1
    58   171   172    1
    59   164   166   am
    60   164   163    1
    61   155   156    1
    62   155   158    1
    63    17    16    2
    64    17    18    1
    65   176   174    1
    66   102   101    1
    67   102   103    1
    68   162   156   am
    69   162   163    1
    70    16    15    1
    71   156   157    2
    72   101    99   am
    73    80    83    1
    74    80    79    1
    75   186   185    1
    76    83    84    1
    77   188   189    1
    78   188   185    1
    79   172   173    1
    80   123   122    1
    81    77    76    2
    82   158   159    1
    83   191   189   am
    84    99    98    1
    85    99   100    2
    86   174   173    2
    87   174   175    1
    88   189   190    2
    89   185   184    1
    90   103   104    2
    91   103   109   am
    92    98    97    1
    93    12    11    2
    94    74    73    2
    95    79    73   am
    96    15    14    1
    97    11    10    1
    98   159   160    1
    99   159   161    1
   100   109   110    1
   101   118   119    1
   102    73    72    1
   103    76    78   am
   104    76    75    1
   105    13    10    1
   106    13    14    1
   107   122   119    1
   108    10     9    1
   109   184   179   am
   110   119   120    1
   111   110   113    1
   112   110   111    1
   113    75    72    1
   114   116   115    2
   115    72    71    1
   116   113   114    1
   117   179   180    2
   118   179   178    1
   119   120   121    2
   120   120   124   am
   121   177   178    1
   122   177   183    1
   123   114   115    1
   124   111   112    2
   125   115   117   am
   126     8     7    1
   127   178   181    1
   128    95    94   ar
   129   124   125    1
   130   183   182    1
   131    96    94   ar
   132    92    91    2
   133   139   141   ar
   134   139   137   ar
   135    94    93    1
   136   141   142   ar
   137   181   182    1
   138    91    90    1
   139    58    57   ar
   140   132   133    1
   141     7     6    1
   142   136   137    1
   143   136   133    1
   144     4     3    2
   145   137   138   ar
   146   125   126    1
   147   125   128    1
   148     5     6    1
   149     5     2    1
   150    93    90    1
   151     3     2    1
   152   133   134    1
   153    66    65    1
   154    66    60    1
   155   126   127    2
   156   142   143    1
   157   142   140   ar
   158    90    89    1
   159    57    56    1
   160    57    59   ar
   161    65    64    1
   162    53    56    1
   163    53    52    1
   164    53    54    1
   165   128   129    1
   166   128   130    1
   167   129   131    1
   168     2     1    1
   169   138   140   ar
   170    60    54   am
   171    60    61    1
   172   134   135    2
   173    54    55    2
   174    64    61    1
   175    61    62    1
   176    67    62   am
   177    67    68    1
   178    62    63    2
   179    68    69    1
   180    69    70    2
