@<TRIPOS>MOLECULE
tmp/3u2vB00.pdb
 208 198 0 0 0
SMALL
GASTEIGER

@<TRIPOS>ATOM
      1  N         41.8080    3.6340   34.9580 N.3    76  MET76      -0.1230
      2  CA        42.8190    4.5040   35.5480 C.3    76  MET76       0.1702
      3  C         43.8000    3.7400   36.3960 C.2    76  MET76       0.2592
      4  O         44.6650    4.3480   37.0330 O.2    76  MET76      -0.2718
      5  CB        42.1550    5.5340   36.4390 C.3    76  MET76       0.0401
      6  CG        41.0200    6.2640   35.7960 C.3    76  MET76       0.0596
      7  SD        40.3270    7.3890   36.9820 S.3    76  MET76      -0.1393
      8  CE        39.4910    6.2740   38.1000 C.3    76  MET76       0.0692
      9  N         43.6690    2.4090   36.4170 N.am   77  LYS77      -0.1966
     10  CA        44.4310    1.5560   37.3180 C.3    77  LYS77       0.1728
     11  C         44.3970    2.0880   38.7680 C.2    77  LYS77       0.2616
     12  O         45.4250    2.1490   39.4670 O.2    77  LYS77      -0.2715
     13  CB        45.8690    1.3870   36.8130 C.3    77  LYS77       0.0311
     14  CG        45.9740    0.8630   35.3860 C.3    77  LYS77       0.0038
     15  CD        47.3970    0.4220   35.0680 C.3    77  LYS77       0.0206
     16  CE        47.4890   -0.2690   33.7150 C.3    77  LYS77       0.1093
     17  NZ        48.8450   -0.8420   33.4780 N.3    77  LYS77      -0.1314
     18  N         43.2030    2.4730   39.2010 N.am   78  ARG78      -0.1977
     19  CA        42.9650    2.8900   40.6050 C.3    78  ARG78       0.1597
     20  C         41.7440    2.1480   41.1150 C.2    78  ARG78       0.2287
     21  O         40.6990    2.7530   41.4300 O.2    78  ARG78      -0.2864
     22  CB        42.7890    4.4080   40.7180 C.3    78  ARG78       0.0334
     23  CG        44.0160    5.2190   40.2890 C.3    78  ARG78       0.0492
     24  CD        45.2310    5.0380   41.1990 C.3    78  ARG78       0.2205
     25  NE        44.9950    5.4320   42.6030 N.pl3  78  ARG78      -0.0865
     26  CZ        44.9720    6.6940   43.0560 C.cat  78  ARG78       0.5346
     27  NH1       45.1860    7.7170   42.2450 N.pl3  78  ARG78       0.1354
     28  NH2       44.7360    6.9000   44.3360 N.pl3  78  ARG78       0.1354
     29  N         39.4830    3.3270   44.2510 N.3    81  LEU81      -0.1245
     30  CA        38.9000    4.6750   44.4000 C.3    81  LEU81       0.1561
     31  C         37.3690    4.7410   44.3440 C.2    81  LEU81       0.2260
     32  O         36.8010    5.8260   44.3570 O.2    81  LEU81      -0.2867
     33  CB        39.5240    5.6610   43.4050 C.3    81  LEU81       0.0270
     34  CG        40.9680    6.0870   43.7300 C.3    81  LEU81       0.0019
     35  CD1       41.4430    7.1080   42.7320 C.3    81  LEU81       0.0001
     36  CD2       41.0900    6.6650   45.1460 C.3    81  LEU81       0.0001
     37  N         35.5380    6.8960   46.9080 N.3    84  THR84      -0.1218
     38  CA        35.5800    8.3470   46.8690 C.3    84  THR84       0.1862
     39  C         34.2010    8.9970   46.6940 C.2    84  THR84       0.2287
     40  O         34.0690   10.2000   46.9170 O.2    84  THR84      -0.2866
     41  CB        36.5230    8.8730   45.8150 C.3    84  THR84       0.1770
     42  OG1       36.0650    8.4820   44.5150 O.3    84  THR84      -0.2211
     43  CG2       37.9360    8.3790   46.0630 C.3    84  THR84       0.0375
     44  N         32.8730   11.2820   49.4430 N.3    87  LYS87      -0.1245
     45  CA        33.0500   12.7230   49.4180 C.3    87  LYS87       0.1561
     46  C         31.7130   13.4900   49.3340 C.2    87  LYS87       0.2260
     47  O         31.5930   14.6020   49.8590 O.2    87  LYS87      -0.2867
     48  CB        33.9510   13.1160   48.2470 C.3    87  LYS87       0.0271
     49  CG        34.6260   14.4390   48.3630 C.3    87  LYS87       0.0035
     50  CD        35.5370   14.6880   47.1360 C.3    87  LYS87       0.0206
     51  CE        36.8000   13.8000   47.0350 C.3    87  LYS87       0.1093
     52  NZ        37.7000   14.3180   45.9110 N.3    87  LYS87      -0.1314
     53  N         41.2200   17.1410   49.4360 N.3   103  ASP103     -0.1239
     54  CA        41.6630   15.7460   49.5080 C.3   103  ASP103      0.1674
     55  C         42.6520   15.5220   50.6390 C.2   103  ASP103      0.2266
     56  O         43.4740   16.3860   50.9350 O.2   103  ASP103     -0.2867
     57  CB        42.3890   15.3570   48.1810 C.3   103  ASP103      0.1410
     58  CG        41.5020   14.6220   47.1360 C.2   103  ASP103      0.3668
     59  OD1       40.2390   14.6220   47.2850 O.co2 103  ASP103     -0.2456
     60  OD2       42.1610   14.0300   46.1500 O.co2 103  ASP103     -0.2456
     61  N         42.0440   20.1620   35.9820 N.3   126  ASP126     -0.1225
     62  CA        42.7620   18.9080   36.0850 C.3   126  ASP126      0.1790
     63  C         43.8060   18.7890   34.9810 C.2   126  ASP126      0.2440
     64  O         43.4960   18.9360   33.8240 O.2   126  ASP126     -0.2733
     65  CB        41.8080   17.7380   35.9600 C.3   126  ASP126      0.1423
     66  CG        42.4910   16.4330   36.2370 C.2   126  ASP126      0.3668
     67  OD1       42.9330   16.2370   37.3770 O.co2 126  ASP126     -0.2456
     68  OD2       42.6600   15.6190   35.3080 O.co2 126  ASP126     -0.2456
     69  N         45.0620   18.4970   35.3440 N.am  127  PRO127     -0.2718
     70  CA        46.0740   18.3320   34.2920 C.3   127  PRO127      0.1535
     71  C         45.7800   17.1810   33.2980 C.2   127  PRO127      0.2599
     72  O         46.1200   17.2850   32.1040 O.2   127  PRO127     -0.2715
     73  CB        47.3390   18.0430   35.0760 C.3   127  PRO127      0.0310
     74  CG        47.1390   18.6980   36.3660 C.3   127  PRO127      0.0237
     75  CD        45.6710   18.5100   36.6800 C.3   127  PRO127      0.0939
     76  N         45.1240   16.1260   33.7540 N.am  128  GLY128     -0.1955
     77  CA        44.7360   14.9870   32.8570 C.3   128  GLY128      0.1869
     78  C         43.7650   15.3280   31.7210 C.2   128  GLY128      0.2309
     79  O         43.9140   14.8410   30.6030 O.2   128  GLY128     -0.2863
     80  N         39.7030   19.3950   38.8150 N.3   134  ASN134     -0.1225
     81  CA        40.1630   18.3860   39.7530 C.3   134  ASN134      0.1785
     82  C         39.3690   18.5270   41.0420 C.2   134  ASN134      0.2598
     83  O         39.2380   19.6110   41.5920 O.2   134  ASN134     -0.2718
     84  CB        41.6530   18.5340   40.0120 C.3   134  ASN134      0.1169
     85  CG        42.1620   17.4700   40.9030 C.2   134  ASN134      0.2627
     86  OD1       42.1450   17.6250   42.1250 O.2   134  ASN134     -0.2716
     87  ND2       42.6330   16.3480   40.3130 N.am  134  ASN134     -0.0877
     88  N         38.8030   17.4190   41.5300 N.am  135  SER135     -0.1938
     89  CA        37.9650   17.4520   42.7340 C.3   135  SER135      0.2055
     90  C         38.7370   17.3420   44.0540 C.2   135  SER135      0.2643
     91  O         38.1390   17.1190   45.1100 O.2   135  SER135     -0.2714
     92  CB        36.8940   16.3800   42.6620 C.3   135  SER135      0.2130
     93  OG        37.4990   15.1080   42.5540 O.3   135  SER135     -0.2179
     94  N         40.0530   17.5250   44.0140 N.am  136  GLY136     -0.1954
     95  CA        40.8530   17.5300   45.2220 C.3   136  GLY136      0.1869
     96  C         40.8160   18.8290   46.0380 C.2   136  GLY136      0.2309
     97  O         41.1950   18.8130   47.1860 O.2   136  GLY136     -0.2863
     98  N         34.2360    8.1570   35.7990 N.3   161  ASP161     -0.1239
     99  CA        35.5110    7.5860   36.1940 C.3   161  ASP161      0.1674
    100  C         35.4290    6.6440   37.3990 C.2   161  ASP161      0.2266
    101  O         36.4530    6.2320   37.8900 O.2   161  ASP161     -0.2867
    102  CB        36.5750    8.6780   36.4180 C.3   161  ASP161      0.1410
    103  CG        36.3510    9.4970   37.6980 C.2   161  ASP161      0.3668
    104  OD1       35.3090    9.3450   38.3690 O.co2 161  ASP161     -0.2456
    105  OD2       37.2480   10.3120   38.0190 O.co2 161  ASP161     -0.2456
    106  N         34.6640    7.3300   40.3740 N.3   163  GLY163     -0.1210
    107  CA        34.8910    8.0510   41.6130 C.3   163  GLY163      0.1956
    108  C         34.1620    9.3790   41.6580 C.2   163  GLY163      0.2612
    109  O         33.3260    9.6830   40.8180 O.2   163  GLY163     -0.2717
    110  N         34.4910   10.2010   42.6370 N.am  164  ASP164     -0.1959
    111  CA        33.7550   11.4340   42.8010 C.3   164  ASP164      0.1840
    112  C         34.0030   12.4250   41.6720 C.2   164  ASP164      0.2621
    113  O         33.1350   13.2150   41.3890 O.2   164  ASP164     -0.2715
    114  CB        34.0980   12.1120   44.1060 C.3   164  ASP164      0.1450
    115  CG        35.5150   12.5150   44.1580 C.2   164  ASP164      0.3671
    116  OD1       36.3320   11.6230   44.3120 O.co2 164  ASP164     -0.2456
    117  OD2       35.8170   13.7230   43.9890 O.co2 164  ASP164     -0.2456
    118  N         35.2050   12.4140   41.0760 N.am  165  GLN165     -0.1977
    119  CA        35.5360   13.4850   40.1060 C.3   165  GLN165      0.1601
    120  C         34.6420   13.4310   38.9060 C.2   165  GLN165      0.2287
    121  O         34.2340   14.4760   38.3820 O.2   165  GLN165     -0.2864
    122  CB        36.9860   13.4600   39.6980 C.3   165  GLN165      0.0394
    123  CG        37.4100   14.6570   38.8850 C.3   165  GLN165      0.0908
    124  CD        38.8970   14.7830   38.8060 C.2   165  GLN165      0.2608
    125  OE1       39.5440   15.2420   39.7520 O.2   165  GLN165     -0.2717
    126  NE2       39.4690   14.3580   37.6770 N.am  165  GLN165     -0.0878
    127  N         52.3300   15.9470   39.0840 N.3   193  ILE193     -0.1245
    128  CA        52.4950   15.5490   37.7020 C.3   193  ILE193      0.1561
    129  C         52.8060   16.7640   36.8360 C.2   193  ILE193      0.2260
    130  O         53.5810   16.6790   35.8850 O.2   193  ILE193     -0.2867
    131  CB        51.2390   14.8010   37.1580 C.3   193  ILE193      0.0252
    132  CG1       51.5000   14.2070   35.7650 C.3   193  ILE193      0.0019
    133  CG2       50.0320   15.7240   37.1000 C.3   193  ILE193      0.0019
    134  CD1       52.6820   13.2630   35.6830 C.3   193  ILE193      0.0001
    135  N         56.4960   17.8400   37.0970 N.3   196  TYR196     -0.1241
    136  CA        57.2960   16.9050   36.3250 C.3   196  TYR196      0.1605
    137  C         57.1260   17.1070   34.8080 C.2   196  TYR196      0.2264
    138  O         58.0980   17.0270   34.0480 O.2   196  TYR196     -0.2867
    139  CB        56.9180   15.4670   36.7320 C.3   196  TYR196      0.0534
    140  CG        57.4590   14.4340   35.8120 C.ar  196  TYR196     -0.0201
    141  CD1       58.8380   14.2890   35.6450 C.ar  196  TYR196     -0.0009
    142  CD2       56.6090   13.5980   35.0910 C.ar  196  TYR196     -0.0009
    143  CE1       59.3590   13.3390   34.7940 C.ar  196  TYR196      0.0417
    144  CE2       57.1200   12.6390   34.2340 C.ar  196  TYR196      0.0417
    145  CZ        58.5010   12.5160   34.0890 C.ar  196  TYR196      0.1957
    146  OH        59.0410   11.5650   33.2460 O.3   196  TYR196     -0.2866
    147  N         49.3030   18.8190   45.6690 N.3   213  HIS213     -0.1241
    148  CA        48.4070   17.6630   45.6450 C.3   213  HIS213      0.1621
    149  C         49.1640   16.4530   45.1790 C.2   213  HIS213      0.2264
    150  O         49.5740   16.3520   44.0200 O.2   213  HIS213     -0.2867
    151  CB        47.2300   17.9690   44.7320 C.3   213  HIS213      0.0745
    152  CG        46.1610   16.9100   44.7080 C.ar  213  HIS213      0.0817
    153  ND1       45.0520   17.0410   43.9620 N.ar  213  HIS213     -0.2268
    154  CD2       46.0190   15.7010   45.4020 C.ar  213  HIS213      0.1154
    155  CE1       44.2520   15.9680   44.1400 C.ar  213  HIS213      0.1986
    156  NE2       44.8250   15.1570   45.0210 N.ar  213  HIS213     -0.2212
    157  N         48.7030   13.6100   44.0070 N.3   215  LEU215     -0.1231
    158  CA        47.7990   12.8190   43.2300 C.3   215  LEU215      0.1693
    159  C         48.5250   11.5990   42.6790 C.2   215  LEU215      0.2593
    160  O         49.6790   11.6900   42.2860 O.2   215  LEU215     -0.2718
    161  CB        47.2480   13.7120   42.1080 C.3   215  LEU215      0.0284
    162  CG        46.1930   13.2190   41.1500 C.3   215  LEU215      0.0019
    163  CD1       45.5500   14.4280   40.5200 C.3   215  LEU215      0.0001
    164  CD2       46.8300   12.3340   40.0960 C.3   215  LEU215      0.0001
    165  N         47.8510   10.4510   42.6870 N.am  216  GLY216     -0.1942
    166  CA        48.3900    9.2220   42.0900 C.3   216  GLY216      0.2014
    167  C         48.4640    8.1030   43.1130 C.2   216  GLY216      0.2639
    168  O         48.2390    8.3080   44.2800 O.2   216  GLY216     -0.2714
    169  N         48.8120    6.9010   42.6690 N.am  217  ARG217     -0.1963
    170  CA        48.6920    5.7130   43.5460 C.3   217  ARG217      0.1729
    171  C         49.6610    5.6760   44.7370 C.2   217  ARG217      0.2616
    172  O         49.3150    5.1790   45.8130 O.2   217  ARG217     -0.2715
    173  CB        48.8160    4.4080   42.7240 C.3   217  ARG217      0.0348
    174  CG        50.1760    4.1380   42.0870 C.3   217  ARG217      0.0492
    175  CD        50.2360    2.7020   41.5910 C.3   217  ARG217      0.2205
    176  NE        49.1720    2.4180   40.6320 N.pl3 217  ARG217     -0.0865
    177  CZ        48.7840    1.1970   40.2610 C.cat 217  ARG217      0.5346
    178  NH1       49.3670    0.1020   40.7580 N.pl3 217  ARG217      0.1354
    179  NH2       47.8030    1.0680   39.3860 N.pl3 217  ARG217      0.1354
    180  N         50.8530    6.2080   44.5450 N.am  218  VAL218     -0.1977
    181  CA        51.8640    6.2120   45.5930 C.3   218  VAL218      0.1596
    182  C         51.6940    7.4870   46.4000 C.2   218  VAL218      0.2287
    183  O         51.8320    8.6000   45.8780 O.2   218  VAL218     -0.2864
    184  CB        53.2830    6.1540   45.0110 C.3   218  VAL218      0.0276
    185  CG1       54.3410    6.3170   46.1050 C.3   218  VAL218      0.0022
    186  CG2       53.4920    4.8390   44.2350 C.3   218  VAL218      0.0022
    187  N         62.6070    4.7560   40.0680 N.3   236  ALA236     -0.1231
    188  CA        62.5960    5.4990   38.8000 C.3   236  ALA236      0.1694
    189  C         61.1870    5.9870   38.4520 C.2   236  ALA236      0.2592
    190  O         60.1940    5.3950   38.8770 O.2   236  ALA236     -0.2718
    191  CB        63.1520    4.6380   37.6700 C.3   236  ALA236      0.0304
    192  N         61.1230    7.0820   37.6870 N.am  237  HIS237     -0.1976
    193  CA        59.8600    7.6350   37.1840 C.3   237  HIS237      0.1656
    194  C         58.9400    8.0580   38.2980 C.2   237  HIS237      0.2291
    195  O         57.7940    7.6080   38.3760 O.2   237  HIS237     -0.2864
    196  CB        59.1610    6.6280   36.2640 C.3   237  HIS237      0.0771
    197  CG        58.0930    7.2320   35.4150 C.ar  237  HIS237      0.0820
    198  ND1       58.3390    7.7630   34.1720 N.ar  237  HIS237     -0.2267
    199  CD2       56.7620    7.3490   35.6170 C.ar  237  HIS237      0.1154
    200  CE1       57.2040    8.1510   33.6210 C.ar  237  HIS237      0.1986
    201  NE2       56.2300    7.9080   34.4760 N.ar  237  HIS237     -0.2212
    202  N         57.2930   11.4180   39.6420 N.3   239  PRO239     -0.2116
    203  CA        57.0130   12.8640   39.5330 C.3   239  PRO239      0.1372
    204  C         57.1250   13.6180   40.8440 C.2   239  PRO239      0.2244
    205  O         57.4000   14.8190   40.8320 O.2   239  PRO239     -0.2868
    206  CB        55.5690   12.9030   39.0030 C.3   239  PRO239      0.0268
    207  CG        55.4510   11.6580   38.2090 C.3   239  PRO239      0.0207
    208  CD        56.2550   10.6220   38.9620 C.3   239  PRO239      0.0892
@<TRIPOS>BOND
     1    79    78    2
     2    78    77    1
     3    72    71    2
     4    77    76    1
     5   146   145    1
     6    71    76   am
     7    71    70    1
     8    17    16    1
     9   200   198   ar
    10   200   201   ar
    11    16    15    1
    12    64    63    2
    13   138   137    2
    14   145   144   ar
    15   145   143   ar
    16   198   197   ar
    17   144   142   ar
    18    70    73    1
    19    70    69    1
    20   201   199   ar
    21   143   141   ar
    22   137   136    1
    23     1     2    1
    24    63    69   am
    25    63    62    1
    26    15    14    1
    27    73    74    1
    28   142   140   ar
    29    68    66   ar
    30    69    75    1
    31    14    13    1
    32   197   199   ar
    33   197   196    1
    34     2     3    1
    35     2     5    1
    36   141   140   ar
    37   134   132    1
    38   132   131    1
    39     6     5    1
    40     6     7    1
    41    98    99    1
    42   140   139    1
    43   130   129    2
    44    65    62    1
    45    65    66    1
    46    61    62    1
    47    99   102    1
    48    99   100    1
    49    66    67   ar
    50   196   193    1
    51   136   139    1
    52   136   135    1
    53    74    75    1
    54     3     9   am
    55     3     4    2
    56     9    10    1
    57   102   103    1
    58    13    10    1
    59   129   128    1
    60     7     8    1
    61   133   131    1
    62   131   128    1
    63   193   192    1
    64   193   194    1
    65    10    11    1
    66   100   101    2
    67   191   188    1
    68   126   124   am
    69   192   189   am
    70   103   105   ar
    71   103   104   ar
    72   128   127    1
    73   207   208    1
    74   207   206    1
    75   194   195    2
    76   121   120    2
    77   189   188    1
    78   189   190    2
    79    11    18   am
    80    11    12    2
    81   188   187    1
    82   124   123    1
    83   124   125    2
    84    80    81    1
    85   123   122    1
    86   120   119    1
    87   208   202    1
    88   206   203    1
    89    18    19    1
    90   179   177    1
    91   203   202    1
    92   203   204    1
    93   122   119    1
    94    81    84    1
    95    81    82    1
    96    84    85    1
    97   164   162    1
    98   119   118    1
    99   177   176    2
   100   177   178    1
   101    23    22    1
   102    23    24    1
   103    87    85   am
   104   106   107    1
   105   163   162    1
   106    19    22    1
   107    19    20    1
   108   176   175    1
   109   109   108    2
   110   205   204    2
   111    85    86    2
   112    82    88   am
   113    82    83    2
   114   118   112   am
   115    20    21    2
   116   162   161    1
   117    24    25    1
   118   113   112    2
   119    88    89    1
   120   175   174    1
   121   107   108    1
   122   108   110   am
   123   112   111    1
   124   174   173    1
   125   166   165    1
   126   166   167    1
   127   161   158    1
   128    27    26    1
   129   160   159    2
   130    93    92    1
   131    25    26    2
   132   110   111    1
   133    92    89    1
   134   169   167   am
   135   169   170    1
   136   159   165   am
   137   159   158    1
   138   173   170    1
   139    35    34    1
   140    89    90    1
   141   111   114    1
   142    26    28    1
   143   167   168    2
   144   158   157    1
   145    33    34    1
   146    33    30    1
   147   170   171    1
   148    34    36    1
   149   153   155   ar
   150   153   152   ar
   151   117   115   ar
   152    94    90   am
   153    94    95    1
   154   150   149    2
   155    90    91    2
   156   114   115    1
   157   155   156   ar
   158   115   116   ar
   159   186   184    1
   160    29    30    1
   161    31    32    2
   162    31    30    1
   163    42    41    1
   164   180   171   am
   165   180   181    1
   166   152   151    1
   167   152   154   ar
   168   151   148    1
   169   171   172    2
   170   184   181    1
   171   184   185    1
   172   156   154   ar
   173   149   148    1
   174    95    96    1
   175   181   182    1
   176   148   147    1
   177    41    43    1
   178    41    38    1
   179   183   182    2
   180    52    51    1
   181    96    97    2
   182    60    58   ar
   183    39    38    1
   184    39    40    2
   185    38    37    1
   186    51    50    1
   187    50    49    1
   188    58    59   ar
   189    58    57    1
   190    57    54    1
   191    48    49    1
   192    48    45    1
   193    46    45    1
   194    46    47    2
   195    45    44    1
   196    53    54    1
   197    54    55    1
   198    55    56    2
