@<TRIPOS>MOLECULE
tmp/3u2xA01.pdb
 116 106 0 0 0
SMALL
GASTEIGER

@<TRIPOS>ATOM
      1  N         62.5890   21.5100   29.1340 N.3    76  MET76      -0.1245
      2  CA        61.4970   20.8020   28.4480 C.3    76  MET76       0.1570
      3  C         61.9380   19.4700   27.8750 C.2    76  MET76       0.2261
      4  O         61.1030   18.6770   27.4840 O.2    76  MET76      -0.2867
      5  CB        60.9520   21.6040   27.2850 C.3    76  MET76       0.0387
      6  CG        60.1240   22.7820   27.6610 C.3    76  MET76       0.0595
      7  SD        59.2860   23.3810   26.2380 S.3    76  MET76      -0.1393
      8  CE        60.6610   23.9320   25.2340 C.3    76  MET76       0.0692
      9  N         63.4330   19.4450   25.0590 N.3    78  ARG78      -0.1245
     10  CA        63.2010   19.6740   23.6270 C.3    78  ARG78       0.1563
     11  C         64.2760   20.6220   23.1280 C.2    78  ARG78       0.2260
     12  O         63.9880   21.7660   22.7950 O.2    78  ARG78      -0.2867
     13  CB        61.7830   20.2160   23.3750 C.3    78  ARG78       0.0307
     14  CG        60.6480   19.2430   23.7480 C.3    78  ARG78       0.0489
     15  CD        60.5780   17.9530   22.8700 C.3    78  ARG78       0.2205
     16  NE        60.3450   18.2290   21.4450 N.pl3  78  ARG78      -0.0865
     17  CZ        59.1640   18.5480   20.9120 C.cat  78  ARG78       0.5346
     18  NH1       58.0710   18.6460   21.6700 N.pl3  78  ARG78       0.1354
     19  NH2       59.0780   18.8080   19.6190 N.pl3  78  ARG78       0.1354
     20  N         63.7070   23.0890   19.7850 N.3    81  LEU81      -0.1245
     21  CA        62.5810   24.0070   19.5460 C.3    81  LEU81       0.1561
     22  C         62.9420   25.4830   19.5800 C.2    81  LEU81       0.2260
     23  O         62.0640   26.3190   19.4750 O.2    81  LEU81      -0.2867
     24  CB        61.4530   23.6990   20.5270 C.3    81  LEU81       0.0270
     25  CG        60.8230   22.3430   20.2180 C.3    81  LEU81       0.0019
     26  CD1       59.6270   22.1280   21.1100 C.3    81  LEU81       0.0001
     27  CD2       60.4480   22.2620   18.7210 C.3    81  LEU81       0.0001
     28  N         61.3310   27.6710   17.0350 N.3    84  THR84      -0.1218
     29  CA        59.8810   27.9270   17.0640 C.3    84  THR84       0.1862
     30  C         59.5840   29.4030   17.2580 C.2    84  THR84       0.2287
     31  O         58.4700   29.8090   17.0440 O.2    84  THR84      -0.2866
     32  CB        59.1170   27.0920   18.1340 C.3    84  THR84       0.1770
     33  OG1       59.5790   27.4130   19.4530 O.3    84  THR84      -0.2211
     34  CG2       59.2880   25.6060   17.9030 C.3    84  THR84       0.0375
     35  N         57.6190   31.3260   14.5350 N.3    87  LYS87      -0.1245
     36  CA        56.1660   31.4670   14.5360 C.3    87  LYS87       0.1561
     37  C         55.6960   32.9260   14.6940 C.2    87  LYS87       0.2260
     38  O         54.5960   33.2960   14.2120 O.2    87  LYS87      -0.2867
     39  CB        55.5820   30.6240   15.6710 C.3    87  LYS87       0.0271
     40  CG        54.1120   30.3280   15.5660 C.3    87  LYS87       0.0035
     41  CD        53.5980   29.4700   16.7560 C.3    87  LYS87       0.0206
     42  CE        54.1410   28.0410   16.8320 C.3    87  LYS87       0.1093
     43  NZ        53.4030   27.2530   17.9060 N.3    87  LYS87      -0.1314
     44  N         49.9040   24.6000   14.3980 N.3   103  ASP103     -0.1239
     45  CA        51.1600   23.8650   14.3720 C.3   103  ASP103      0.1674
     46  C         51.1000   22.8170   13.2190 C.2   103  ASP103      0.2266
     47  O         50.0460   22.2370   12.9240 O.2   103  ASP103     -0.2867
     48  CB        51.3690   23.1170   15.7320 C.3   103  ASP103      0.1410
     49  CG        52.3140   23.8020   16.7380 C.2   103  ASP103      0.3668
     50  OD1       52.5640   25.0690   16.5640 O.co2 103  ASP103     -0.2456
     51  OD2       52.7750   22.9980   17.6670 O.co2 103  ASP103     -0.2456
     52  N         48.0850   26.4700   25.1690 N.3   134  ASN134     -0.1225
     53  CA        48.9140   25.7740   24.1940 C.3   134  ASN134      0.1785
     54  C         48.9450   26.6120   22.9200 C.2   134  ASN134      0.2598
     55  O         47.8800   27.0450   22.3900 O.2   134  ASN134     -0.2718
     56  CB        48.4190   24.3560   23.9350 C.3   134  ASN134      0.1169
     57  CG        49.3580   23.5810   23.0780 C.2   134  ASN134      0.2627
     58  OD1       49.2480   23.6150   21.8510 O.2   134  ASN134     -0.2716
     59  ND2       50.3340   22.9140   23.7070 N.am  134  ASN134     -0.0877
     60  N         50.1560   26.8840   22.4620 N.am  135  SER135     -0.1938
     61  CA        50.4060   27.7450   21.2980 C.3   135  SER135      0.2055
     62  C         50.3240   27.0120   19.9280 C.2   135  SER135      0.2643
     63  O         50.6010   27.6150   18.8870 O.2   135  SER135     -0.2714
     64  CB        51.7650   28.4160   21.4640 C.3   135  SER135      0.2130
     65  OG        52.8380   27.5120   21.3250 O.3   135  SER135     -0.2179
     66  N         49.9490   25.7260   19.9350 N.am  136  GLY136     -0.1954
     67  CA        49.6420   24.9610   18.7110 C.3   136  GLY136      0.1869
     68  C         48.3920   25.3010   17.8860 C.2   136  GLY136      0.2309
     69  O         48.3260   24.9200   16.7300 O.2   136  GLY136     -0.2863
     70  N         60.3180   29.2410   28.1240 N.3   161  ASP161     -0.1239
     71  CA        60.5510   27.8340   27.7320 C.3   161  ASP161      0.1674
     72  C         61.4810   27.6740   26.5450 C.2   161  ASP161      0.2266
     73  O         61.6740   26.5460   26.0590 O.2   161  ASP161     -0.2867
     74  CB        59.2280   27.0970   27.4930 C.3   161  ASP161      0.1410
     75  CG        58.4800   27.5690   26.2620 C.2   161  ASP161      0.3668
     76  OD1       58.8750   28.5400   25.5810 O.co2 161  ASP161     -0.2456
     77  OD2       57.4470   26.9500   25.9640 O.co2 161  ASP161     -0.2456
     78  N         61.0450   28.7280   23.5630 N.3   163  GLY163     -0.1210
     79  CA        60.3060   28.6280   22.3220 C.3   163  GLY163      0.1956
     80  C         59.1810   29.6290   22.2710 C.2   163  GLY163      0.2612
     81  O         59.1260   30.5360   23.0660 O.2   163  GLY163     -0.2717
     82  N         58.2810   29.4690   21.3120 N.am  164  ASP164     -0.1959
     83  CA        57.2000   30.4170   21.1410 C.3   164  ASP164      0.1840
     84  C         56.2050   30.4110   22.2910 C.2   164  ASP164      0.2621
     85  O         55.6150   31.4470   22.5990 O.2   164  ASP164     -0.2715
     86  CB        56.4650   30.1690   19.8200 C.3   164  ASP164      0.1450
     87  CG        55.7250   28.8620   19.8080 C.2   164  ASP164      0.3671
     88  OD1       56.3560   27.8100   19.5300 O.co2 164  ASP164     -0.2456
     89  OD2       54.5040   28.8700   20.1070 O.co2 164  ASP164     -0.2456
     90  N         55.9800   29.2540   22.9220 N.am  165  GLN165     -0.1977
     91  CA        54.8490   29.1880   23.8710 C.3   165  GLN165      0.1601
     92  C         55.0790   30.0620   25.0970 C.2   165  GLN165      0.2287
     93  O         54.1600   30.7150   25.5870 O.2   165  GLN165     -0.2864
     94  CB        54.5540   27.7610   24.2780 C.3   165  GLN165      0.0394
     95  CG        53.2530   27.6290   25.0640 C.3   165  GLN165      0.0908
     96  CD        52.7580   26.2200   25.0980 C.2   165  GLN165      0.2608
     97  OE1       52.2540   25.6990   24.0950 O.2   165  GLN165     -0.2717
     98  NE2       52.8960   25.5740   26.2390 N.am  165  GLN165     -0.0878
     99  N         46.4770   17.0430   18.1440 N.3   213  HIS213     -0.1241
    100  CA        47.8090   17.6830   18.1930 C.3   213  HIS213      0.1621
    101  C         48.7940   16.6700   18.6750 C.2   213  HIS213      0.2264
    102  O         48.6750   16.1520   19.8160 O.2   213  HIS213     -0.2867
    103  CB        47.7540   18.9420   19.0820 C.3   213  HIS213      0.0745
    104  CG        49.0150   19.7570   19.1090 C.ar  213  HIS213      0.0817
    105  ND1       49.1770   20.8350   19.9490 N.ar  213  HIS213     -0.2268
    106  CD2       50.1870   19.6290   18.4310 C.ar  213  HIS213      0.1154
    107  CE1       50.3850   21.3550   19.7570 C.ar  213  HIS213      0.1986
    108  NE2       51.0220   20.6450   18.8360 N.ar  213  HIS213     -0.2212
    109  N         51.5850   16.6480   19.9160 N.3   215  LEU215     -0.1245
    110  CA        52.5220   17.3760   20.7750 C.3   215  LEU215      0.1561
    111  C         53.5240   16.4190   21.4130 C.2   215  LEU215      0.2260
    112  O         53.1810   15.2780   21.7530 O.2   215  LEU215     -0.2867
    113  CB        51.7260   18.1590   21.8200 C.3   215  LEU215      0.0270
    114  CG        52.3790   18.7250   23.0730 C.3   215  LEU215      0.0019
    115  CD1       51.6800   20.0080   23.5130 C.3   215  LEU215      0.0001
    116  CD2       52.3800   17.6800   24.1880 C.3   215  LEU215      0.0001
@<TRIPOS>BOND
     1    47    46    2
     2    46    45    1
     3    38    37    2
     4    45    44    1
     5    45    48    1
     6    35    36    1
     7    36    37    1
     8    36    39    1
     9    40    39    1
    10    40    41    1
    11    48    49    1
    12    50    49   ar
    13    69    68    2
    14    49    51   ar
    15    41    42    1
    16    42    43    1
    17    28    29    1
    18    31    30    2
    19    29    30    1
    20    29    32    1
    21    68    67    1
    22    34    32    1
    23    32    33    1
    24    99   100    1
    25   100   101    1
    26   100   103    1
    27   106   108   ar
    28   106   104   ar
    29   101   102    2
    30    67    66    1
    31    27    25    1
    32   108   107   ar
    33    63    62    2
    34   103   104    1
    35   104   105   ar
    36    23    22    2
    37    88    87   ar
    38    21    22    1
    39    21    20    1
    40    21    24    1
    41    19    17    1
    42   107   105   ar
    43    87    86    1
    44    87    89   ar
    45    86    83    1
    46   109   110    1
    47    62    66   am
    48    62    61    1
    49    25    24    1
    50    25    26    1
    51   110   111    1
    52   110   113    1
    53    17    16    2
    54    17    18    1
    55    83    82    1
    56    83    84    1
    57    61    64    1
    58    61    60    1
    59    82    80   am
    60    65    64    1
    61   111   112    2
    62    16    15    1
    63   113   114    1
    64    58    57    2
    65    80    79    1
    66    80    81    2
    67    84    85    2
    68    84    90   am
    69    79    78    1
    70    55    54    2
    71    60    54   am
    72    12    11    2
    73    15    14    1
    74    54    53    1
    75    90    91    1
    76   114   115    1
    77   114   116    1
    78    57    59   am
    79    57    56    1
    80    11    10    1
    81    13    10    1
    82    13    14    1
    83    10     9    1
    84    91    94    1
    85    91    92    1
    86    56    53    1
    87    97    96    2
    88    53    52    1
    89    94    95    1
    90    95    96    1
    91    92    93    2
    92    96    98   am
    93     8     7    1
    94    76    75   ar
    95    77    75   ar
    96    73    72    2
    97     7     6    1
    98    75    74    1
    99    72    71    1
   100     5     6    1
   101     5     2    1
   102     4     3    2
   103    74    71    1
   104    71    70    1
   105     3     2    1
   106     2     1    1
