@<TRIPOS>MOLECULE
tmp/3u2xA00.pdb
 172 162 0 0 0
SMALL
GASTEIGER

@<TRIPOS>ATOM
      1  N         53.5680   26.6680    9.8510 N.3    10  LEU10      -0.1231
      2  CA        55.0020   26.9680    9.7950 C.3    10  LEU10       0.1693
      3  C         55.7700   25.7040    9.5460 C.2    10  LEU10       0.2593
      4  O         55.5160   24.6630   10.1920 O.2    10  LEU10      -0.2718
      5  CB        55.4820   27.6070   11.1280 C.3    10  LEU10       0.0284
      6  CG        57.0070   27.7130   11.3730 C.3    10  LEU10       0.0019
      7  CD1       57.6300   28.7780   10.4400 C.3    10  LEU10       0.0001
      8  CD2       57.4250   28.0330   12.8050 C.3    10  LEU10       0.0001
      9  N         56.7220   25.7650    8.6320 N.am   11  THR11      -0.1939
     10  CA        57.7350   24.7100    8.5780 C.3    11  THR11       0.2028
     11  C         59.1410   25.2020    8.2760 C.2    11  THR11       0.2643
     12  O         59.3590   25.9260    7.3330 O.2    11  THR11      -0.2714
     13  CB        57.3440   23.6380    7.5940 C.3    11  THR11       0.1808
     14  OG1       58.3090   22.5720    7.6400 O.3    11  THR11      -0.2208
     15  CG2       57.2280   24.2210    6.1960 C.3    11  THR11       0.0379
     16  N         60.1080   24.7680    9.0850 N.am   12  THR12      -0.1936
     17  CA        61.4640   25.2110    8.8870 C.3    12  THR12       0.2028
     18  C         62.2820   24.1440    8.1880 C.2    12  THR12       0.2642
     19  O         63.4220   24.3850    7.8840 O.2    12  THR12      -0.2714
     20  CB        62.1720   25.5690   10.2250 C.3    12  THR12       0.1808
     21  OG1       62.3720   24.3780   10.9910 O.3    12  THR12      -0.2208
     22  CG2       61.3750   26.5700   11.0370 C.3    12  THR12       0.0379
     23  N         61.6920   22.9790    7.9190 N.am   13  ASN13      -0.1971
     24  CA        62.3930   21.8930    7.2660 C.3    13  ASN13       0.1688
     25  C         61.4310   20.9520    6.5400 C.2    13  ASN13       0.2292
     26  O         60.2010   21.1170    6.6210 O.2    13  ASN13      -0.2864
     27  CB        63.2930   21.1510    8.2610 C.3    13  ASN13       0.1181
     28  CG        62.5260   20.4600    9.3810 C.2    13  ASN13       0.2629
     29  OD1       61.5450   19.7630    9.1440 O.2    13  ASN13      -0.2716
     30  ND2       63.0260   20.5890   10.6080 N.am   13  ASN13      -0.0877
     31  N         58.9030   18.6450    9.0650 N.3    16  TYR16      -0.1241
     32  CA        57.6330   19.2650    9.4370 C.3    16  TYR16       0.1605
     33  C         56.8360   19.6410    8.2140 C.2    16  TYR16       0.2264
     34  O         55.6320   19.8330    8.3260 O.2    16  TYR16      -0.2867
     35  CB        57.7770   20.4930   10.3520 C.3    16  TYR16       0.0534
     36  CG        58.0850   20.1480   11.7920 C.ar   16  TYR16      -0.0201
     37  CD1       59.3880   19.8890   12.2060 C.ar   16  TYR16      -0.0009
     38  CD2       57.0970   20.0780   12.7450 C.ar   16  TYR16      -0.0009
     39  CE1       59.6680   19.5610   13.5090 C.ar   16  TYR16       0.0417
     40  CE2       57.3890   19.7780   14.0970 C.ar   16  TYR16       0.0417
     41  CZ        58.6800   19.5150   14.4570 C.ar   16  TYR16       0.1957
     42  OH        58.9760   19.1920   15.7630 O.3    16  TYR16      -0.2866
     43  N         63.4330   19.4450   25.0590 N.3    78  ARG78      -0.1245
     44  CA        63.2010   19.6740   23.6270 C.3    78  ARG78       0.1563
     45  C         64.2760   20.6220   23.1280 C.2    78  ARG78       0.2260
     46  O         63.9880   21.7660   22.7950 O.2    78  ARG78      -0.2867
     47  CB        61.7830   20.2160   23.3750 C.3    78  ARG78       0.0307
     48  CG        60.6480   19.2430   23.7480 C.3    78  ARG78       0.0489
     49  CD        60.5780   17.9530   22.8700 C.3    78  ARG78       0.2205
     50  NE        60.3450   18.2290   21.4450 N.pl3  78  ARG78      -0.0865
     51  CZ        59.1640   18.5480   20.9120 C.cat  78  ARG78       0.5346
     52  NH1       58.0710   18.6460   21.6700 N.pl3  78  ARG78       0.1354
     53  NH2       59.0780   18.8080   19.6190 N.pl3  78  ARG78       0.1354
     54  N         65.6060   21.1180   20.4310 N.3    80  GLU80      -0.1231
     55  CA        65.4830   21.5600   19.0390 C.3    80  GLU80       0.1699
     56  C         64.4680   22.6970   18.7810 C.2    80  GLU80       0.2592
     57  O         64.3810   23.2210   17.6710 O.2    80  GLU80      -0.2718
     58  CB        65.1490   20.3380   18.1540 C.3    80  GLU80       0.0402
     59  CG        63.6380   19.8940   18.0750 C.3    80  GLU80       0.1161
     60  CD        63.1110   19.0960   19.2940 C.2    80  GLU80       0.3649
     61  OE1       63.8180   18.9360   20.3130 O.co2  80  GLU80      -0.2457
     62  OE2       61.9400   18.6400   19.2180 O.co2  80  GLU80      -0.2457
     63  N         63.7070   23.0890   19.7850 N.am   81  LEU81      -0.1980
     64  CA        62.5810   24.0070   19.5460 C.3    81  LEU81       0.1596
     65  C         62.9420   25.4830   19.5800 C.2    81  LEU81       0.2287
     66  O         62.0640   26.3190   19.4750 O.2    81  LEU81      -0.2864
     67  CB        61.4530   23.6990   20.5270 C.3    81  LEU81       0.0297
     68  CG        60.8230   22.3430   20.2180 C.3    81  LEU81       0.0022
     69  CD1       59.6270   22.1280   21.1100 C.3    81  LEU81       0.0001
     70  CD2       60.4480   22.2620   18.7210 C.3    81  LEU81       0.0001
     71  N         63.9710   27.2170   17.3010 N.3    83  VAL83      -0.1231
     72  CA        63.5850   27.7570   16.0240 C.3    83  VAL83       0.1692
     73  C         62.0840   28.0250   15.9800 C.2    83  VAL83       0.2592
     74  O         61.6250   28.5400   15.0030 O.2    83  VAL83      -0.2718
     75  CB        63.9730   26.8330   14.8340 C.3    83  VAL83       0.0266
     76  CG1       65.5250   26.5940   14.8410 C.3    83  VAL83       0.0020
     77  CG2       63.1710   25.5050   14.8610 C.3    83  VAL83       0.0020
     78  N         61.3310   27.6710   17.0350 N.am   84  THR84      -0.1953
     79  CA        59.8810   27.9270   17.0640 C.3    84  THR84       0.1897
     80  C         59.5840   29.4030   17.2580 C.2    84  THR84       0.2313
     81  O         58.4700   29.8090   17.0440 O.2    84  THR84      -0.2863
     82  CB        59.1170   27.0920   18.1340 C.3    84  THR84       0.1794
     83  OG1       59.5790   27.4130   19.4530 O.3    84  THR84      -0.2208
     84  CG2       59.2880   25.6060   17.9030 C.3    84  THR84       0.0378
     85  N         57.6190   31.3260   14.5350 N.3    87  LYS87      -0.1245
     86  CA        56.1660   31.4670   14.5360 C.3    87  LYS87       0.1561
     87  C         55.6960   32.9260   14.6940 C.2    87  LYS87       0.2260
     88  O         54.5960   33.2960   14.2120 O.2    87  LYS87      -0.2867
     89  CB        55.5820   30.6240   15.6710 C.3    87  LYS87       0.0271
     90  CG        54.1120   30.3280   15.5660 C.3    87  LYS87       0.0035
     91  CD        53.5980   29.4700   16.7560 C.3    87  LYS87       0.0206
     92  CE        54.1410   28.0410   16.8320 C.3    87  LYS87       0.1093
     93  NZ        53.4030   27.2530   17.9060 N.3    87  LYS87      -0.1314
     94  N         46.4420   30.3690   13.6730 N.3   101  PHE101     -0.1241
     95  CA        47.7140   29.6910   13.5510 C.3   101  PHE101      0.1605
     96  C         47.5360   28.2270   13.9950 C.2   101  PHE101      0.2264
     97  O         46.9450   27.9480   15.0550 O.2   101  PHE101     -0.2867
     98  CB        48.8470   30.2890   14.3840 C.3   101  PHE101      0.0534
     99  CG        50.1260   29.5280   14.1970 C.ar  101  PHE101     -0.0203
    100  CD1       51.0000   29.8750   13.1610 C.ar  101  PHE101     -0.0042
    101  CD2       50.3740   28.3680   14.9200 C.ar  101  PHE101     -0.0042
    102  CE1       52.1100   29.1180   12.8970 C.ar  101  PHE101     -0.0003
    103  CE2       51.5060   27.6130   14.6780 C.ar  101  PHE101     -0.0003
    104  CZ        52.3700   27.9940   13.6580 C.ar  101  PHE101     -0.0000
    105  N         49.9040   24.6000   14.3980 N.3   103  ASP103     -0.1225
    106  CA        51.1600   23.8650   14.3720 C.3   103  ASP103      0.1805
    107  C         51.1000   22.8170   13.2190 C.2   103  ASP103      0.2598
    108  O         50.0460   22.2370   12.9240 O.2   103  ASP103     -0.2718
    109  CB        51.3690   23.1170   15.7320 C.3   103  ASP103      0.1424
    110  CG        52.3140   23.8020   16.7380 C.2   103  ASP103      0.3668
    111  OD1       52.5640   25.0690   16.5640 O.co2 103  ASP103     -0.2456
    112  OD2       52.7750   22.9980   17.6670 O.co2 103  ASP103     -0.2456
    113  N         52.2490   22.5710   12.5970 N.am  104  ALA104     -0.1966
    114  CA        52.3910   21.5970   11.5000 C.3   104  ALA104      0.1728
    115  C         52.1970   20.1400   11.9350 C.2   104  ALA104      0.2616
    116  O         52.0120   19.2530   11.1080 O.2   104  ALA104     -0.2715
    117  CB        53.7560   21.7930   10.7940 C.3   104  ALA104      0.0334
    118  N         52.2300   19.8830   13.2390 N.am  105  ASP105     -0.1971
    119  CA        51.9520   18.5540   13.8050 C.3   105  ASP105      0.1709
    120  C         50.5010   18.4580   14.3060 C.2   105  ASP105      0.2293
    121  O         50.2030   17.6970   15.2460 O.2   105  ASP105     -0.2864
    122  CB        52.9520   18.2100   14.9420 C.3   105  ASP105      0.1436
    123  CG        52.8150   19.1370   16.2200 C.2   105  ASP105      0.3671
    124  OD1       52.5230   20.3410   16.1790 O.co2 105  ASP105     -0.2456
    125  OD2       53.0490   18.6140   17.3340 O.co2 105  ASP105     -0.2456
    126  N         48.0850   26.4700   25.1690 N.3   134  ASN134     -0.1240
    127  CA        48.9140   25.7740   24.1940 C.3   134  ASN134      0.1653
    128  C         48.9450   26.6120   22.9200 C.2   134  ASN134      0.2266
    129  O         47.8800   27.0450   22.3900 O.2   134  ASN134     -0.2867
    130  CB        48.4190   24.3560   23.9350 C.3   134  ASN134      0.1155
    131  CG        49.3580   23.5810   23.0780 C.2   134  ASN134      0.2627
    132  OD1       49.2480   23.6150   21.8510 O.2   134  ASN134     -0.2716
    133  ND2       50.3340   22.9140   23.7070 N.am  134  ASN134     -0.0877
    134  N         58.2810   29.4690   21.3120 N.3   164  ASP164     -0.1239
    135  CA        57.2000   30.4170   21.1410 C.3   164  ASP164      0.1674
    136  C         56.2050   30.4110   22.2910 C.2   164  ASP164      0.2266
    137  O         55.6150   31.4470   22.5990 O.2   164  ASP164     -0.2867
    138  CB        56.4650   30.1690   19.8200 C.3   164  ASP164      0.1410
    139  CG        55.7250   28.8620   19.8080 C.2   164  ASP164      0.3668
    140  OD1       56.3560   27.8100   19.5300 O.co2 164  ASP164     -0.2456
    141  OD2       54.5040   28.8700   20.1070 O.co2 164  ASP164     -0.2456
    142  N         46.4770   17.0430   18.1440 N.3   213  HIS213     -0.1241
    143  CA        47.8090   17.6830   18.1930 C.3   213  HIS213      0.1621
    144  C         48.7940   16.6700   18.6750 C.2   213  HIS213      0.2264
    145  O         48.6750   16.1520   19.8160 O.2   213  HIS213     -0.2867
    146  CB        47.7540   18.9420   19.0820 C.3   213  HIS213      0.0745
    147  CG        49.0150   19.7570   19.1090 C.ar  213  HIS213      0.0817
    148  ND1       49.1770   20.8350   19.9490 N.ar  213  HIS213     -0.2268
    149  CD2       50.1870   19.6290   18.4310 C.ar  213  HIS213      0.1154
    150  CE1       50.3850   21.3550   19.7570 C.ar  213  HIS213      0.1986
    151  NE2       51.0220   20.6450   18.8360 N.ar  213  HIS213     -0.2212
    152  N         51.5850   16.6480   19.9160 N.3   215  LEU215     -0.1231
    153  CA        52.5220   17.3760   20.7750 C.3   215  LEU215      0.1693
    154  C         53.5240   16.4190   21.4130 C.2   215  LEU215      0.2592
    155  O         53.1810   15.2780   21.7530 O.2   215  LEU215     -0.2718
    156  CB        51.7260   18.1590   21.8200 C.3   215  LEU215      0.0284
    157  CG        52.3790   18.7250   23.0730 C.3   215  LEU215      0.0019
    158  CD1       51.6800   20.0080   23.5130 C.3   215  LEU215      0.0001
    159  CD2       52.3800   17.6800   24.1880 C.3   215  LEU215      0.0001
    160  N         54.7820   16.8350   21.4800 N.am  216  GLY216     -0.1957
    161  CA        55.8360   15.9780   22.0490 C.3   216  GLY216      0.1869
    162  C         56.8910   15.5780   21.0380 C.2   216  GLY216      0.2309
    163  O         56.7670   15.8330   19.8610 O.2   216  GLY216     -0.2863
    164  N         57.0210   12.5170   16.4020 N.3   219  LYS219     -0.1245
    165  CA        55.9860   13.0320   15.4830 C.3   219  LYS219      0.1561
    166  C         55.4390   11.9160   14.5890 C.2   219  LYS219      0.2260
    167  O         56.0720   10.8640   14.4630 O.2   219  LYS219     -0.2867
    168  CB        56.5720   14.1830   14.6560 C.3   219  LYS219      0.0271
    169  CG        57.0390   15.3610   15.4780 C.3   219  LYS219      0.0035
    170  CD        55.9510   15.9050   16.3870 C.3   219  LYS219      0.0206
    171  CE        56.3240   17.2030   16.9370 C.3   219  LYS219      0.1093
    172  NZ        55.4740   17.5560   18.0990 N.3   219  LYS219     -0.1314
@<TRIPOS>BOND
     1    15    13    1
     2    25    26    2
     3    25    24    1
     4    24    23    1
     5    24    27    1
     6    12    11    2
     7    13    14    1
     8    13    10    1
     9    19    18    2
    10    23    18   am
    11    18    17    1
    12    33    34    2
    13    33    32    1
    14    27    28    1
    15    11    10    1
    16    11    16   am
    17    10     9    1
    18     9     3   am
    19    17    16    1
    20    17    20    1
    21    31    32    1
    22    29    28    2
    23    28    30   am
    24    32    35    1
    25     3     2    1
    26     3     4    2
    27     2     1    1
    28     2     5    1
    29    20    21    1
    30    20    22    1
    31    35    36    1
    32     7     6    1
    33   117   114    1
    34   116   115    2
    35     5     6    1
    36     6     8    1
    37   114   115    1
    38   114   113    1
    39    36    37   ar
    40    36    38   ar
    41   115   118   am
    42    37    39   ar
    43   113   107   am
    44    38    40   ar
    45   102   100   ar
    46   102   104   ar
    47   108   107    2
    48   100    99   ar
    49   107   106    1
    50   118   119    1
    51    39    41   ar
    52    95    94    1
    53    95    96    1
    54    95    98    1
    55   104   103   ar
    56   119   120    1
    57   119   122    1
    58    96    97    2
    59    40    41   ar
    60    99    98    1
    61    99   101   ar
    62    88    87    2
    63   120   121    2
    64   106   105    1
    65   106   109    1
    66    41    42    1
    67   167   166    2
    68    85    86    1
    69    86    87    1
    70    86    89    1
    71   166   165    1
    72   168   169    1
    73   168   165    1
    74   103   101   ar
    75    75    76    1
    76    75    77    1
    77    75    72    1
    78   122   123    1
    79    74    73    2
    80   169   170    1
    81   165   164    1
    82    90    89    1
    83    90    91    1
    84   109   110    1
    85    73    72    1
    86    73    78   am
    87    72    71    1
    88   124   123   ar
    89   123   125   ar
    90   170   171    1
    91   111   110   ar
    92   110   112   ar
    93    91    92    1
    94    92    93    1
    95   171   172    1
    96    78    79    1
    97    81    80    2
    98    79    80    1
    99    79    82    1
   100    57    56    2
   101    84    82    1
   102    59    58    1
   103    59    60    1
   104    82    83    1
   105   142   143    1
   106    58    55    1
   107   143   144    1
   108   143   146    1
   109   149   151   ar
   110   149   147   ar
   111   144   145    2
   112    70    68    1
   113    56    55    1
   114    56    63   am
   115   151   150   ar
   116    55    54    1
   117   146   147    1
   118   147   148   ar
   119    62    60   ar
   120    60    61   ar
   121    66    65    2
   122   140   139   ar
   123    64    65    1
   124    64    63    1
   125    64    67    1
   126    53    51    1
   127   150   148   ar
   128   139   138    1
   129   139   141   ar
   130   138   135    1
   131   163   162    2
   132   152   153    1
   133    68    67    1
   134    68    69    1
   135   153   154    1
   136   153   156    1
   137    51    50    2
   138    51    52    1
   139   162   161    1
   140   135   134    1
   141   135   136    1
   142   154   160   am
   143   154   155    2
   144    50    49    1
   145   160   161    1
   146   156   157    1
   147   132   131    2
   148   136   137    2
   149   129   128    2
   150    46    45    2
   151    49    48    1
   152   128   127    1
   153   157   158    1
   154   157   159    1
   155   131   133   am
   156   131   130    1
   157    45    44    1
   158    47    44    1
   159    47    48    1
   160    44    43    1
   161   130   127    1
   162   127   126    1
