@<TRIPOS>MOLECULE
tmp/3u31A01.pdb
 198 191 0 0 0
SMALL
GASTEIGER

@<TRIPOS>ATOM
      1  N        -13.0230   24.4910  -27.7070 N.3    27  GLY27      -0.1210
      2  CA       -12.0590   24.4440  -28.8100 C.3    27  GLY27       0.1956
      3  C        -11.2490   23.1760  -28.6740 C.2    27  GLY27       0.2613
      4  O        -11.6670   22.3200  -27.9420 O.2    27  GLY27      -0.2717
      5  N        -10.1020   23.0550  -29.3650 N.am   28  SER28      -0.1938
      6  CA        -9.5280   21.7140  -29.5730 C.3    28  SER28       0.2055
      7  C         -8.8810   21.2010  -28.3500 C.2    28  SER28       0.2643
      8  O         -8.6680   20.0080  -28.2060 O.2    28  SER28      -0.2714
      9  CB        -8.5450   21.6480  -30.7300 C.3    28  SER28       0.2130
     10  OG        -7.5430   22.5690  -30.5170 O.3    28  SER28      -0.2179
     11  N         -8.6510   22.1070  -27.4260 N.am   29  GLY29      -0.1954
     12  CA        -8.2080   21.7010  -26.1320 C.3    29  GLY29       0.1869
     13  C         -9.0920   20.6850  -25.4540 C.2    29  GLY29       0.2309
     14  O         -8.5810   19.8970  -24.6790 O.2    29  GLY29      -0.2863
     15  N         -8.2020   17.3500  -26.8360 N.3    32  ALA32      -0.1231
     16  CA        -6.7890   16.9970  -26.5440 C.3    32  ALA32       0.1694
     17  C         -6.6230   15.6730  -25.7920 C.2    32  ALA32       0.2591
     18  O         -5.7830   14.8320  -26.1640 O.2    32  ALA32      -0.2718
     19  CB        -6.0290   18.1560  -25.8020 C.3    32  ALA32       0.0304
     20  N         -7.4380   15.4740  -24.7550 N.am   33  GLU33      -0.1979
     21  CA        -7.3660   14.2850  -23.9230 C.3    33  GLU33       0.1602
     22  C         -8.2750   13.2370  -24.4970 C.2    33  GLU33       0.2287
     23  O         -8.6420   12.2520  -23.8570 O.2    33  GLU33      -0.2864
     24  CB        -7.6960   14.6370  -22.4660 C.3    33  GLU33       0.0415
     25  CG        -6.7450   15.7040  -21.9730 C.3    33  GLU33       0.1163
     26  CD        -7.2220   16.4200  -20.7250 C.2    33  GLU33       0.3649
     27  OE1       -7.7650   17.5330  -20.8590 O.co2  33  GLU33      -0.2457
     28  OE2       -7.0230   15.8840  -19.6110 O.co2  33  GLU33      -0.2457
     29  N         -3.7840   19.2250  -29.7020 N.3    38  SER38      -0.1217
     30  CA        -4.2410   20.5970  -30.0290 C.3    38  SER38       0.1889
     31  C         -3.1260   21.4260  -30.7320 C.2    38  SER38       0.2288
     32  O         -3.3750   22.2900  -31.6250 O.2    38  SER38      -0.2866
     33  CB        -4.8020   21.3050  -28.7720 C.3    38  SER38       0.2089
     34  OG        -3.8060   21.3760  -27.7540 O.3    38  SER38      -0.2183
     35  N         -0.8590   22.0160  -33.3620 N.3    40  ARG40      -0.1245
     36  CA        -0.7540   21.5190  -34.7150 C.3    40  ARG40       0.1563
     37  C          0.7060   21.4700  -35.2770 C.2    40  ARG40       0.2260
     38  O          0.9330   20.8730  -36.3350 O.2    40  ARG40      -0.2867
     39  CB        -1.6840   22.3350  -35.6250 C.3    40  ARG40       0.0307
     40  CG        -3.1140   22.5170  -35.0130 C.3    40  ARG40       0.0489
     41  CD        -3.8400   21.1420  -34.8220 C.3    40  ARG40       0.2205
     42  NE        -5.2860   21.2390  -35.0820 N.pl3  40  ARG40      -0.0865
     43  CZ        -6.2630   20.8380  -34.2530 C.cat  40  ARG40       0.5346
     44  NH1       -5.9620   20.2490  -33.0740 N.pl3  40  ARG40       0.1354
     45  NH2       -7.5510   20.9940  -34.6370 N.pl3  40  ARG40       0.1354
     46  N         -1.5690   21.9680  -43.6080 N.3    52  PRO52      -0.2116
     47  CA        -2.7260   22.7170  -43.1630 C.3    52  PRO52       0.1372
     48  C         -3.2200   23.7860  -44.2020 C.2    52  PRO52       0.2244
     49  O         -4.4430   24.0700  -44.2840 O.2    52  PRO52      -0.2868
     50  CB        -2.2420   23.3890  -41.8860 C.3    52  PRO52       0.0268
     51  CG        -0.6790   23.4100  -41.9410 C.3    52  PRO52       0.0207
     52  CD        -0.4540   22.0280  -42.6250 C.3    52  PRO52       0.0892
     53  N        -16.1560   25.0330  -31.4690 N.3   105  GLN105     -0.1231
     54  CA       -15.3870   25.0930  -32.7310 C.3   105  GLN105      0.1698
     55  C        -14.9160   23.6950  -33.1830 C.2   105  GLN105      0.2592
     56  O        -14.4460   23.5530  -34.2930 O.2   105  GLN105     -0.2718
     57  CB       -14.1360   25.9810  -32.5900 C.3   105  GLN105      0.0381
     58  CG       -14.4540   27.4140  -32.2060 C.3   105  GLN105      0.0905
     59  CD       -13.2420   28.0740  -31.5700 C.2   105  GLN105      0.2608
     60  OE1      -12.4470   28.6880  -32.2610 O.2   105  GLN105     -0.2717
     61  NE2      -13.0500   27.8620  -30.2710 N.am  105  GLN105     -0.0878
     62  N        -15.0110   22.6910  -32.3150 N.am  106  ASN106     -0.1974
     63  CA       -14.6910   21.3060  -32.6950 C.3   106  ASN106      0.1688
     64  C        -15.7120   20.6790  -33.6150 C.2   106  ASN106      0.2292
     65  O        -16.9250   20.8830  -33.4750 O.2   106  ASN106     -0.2864
     66  CB       -14.5880   20.4560  -31.4290 C.3   106  ASN106      0.1181
     67  CG       -13.6060   21.0530  -30.4220 C.2   106  ASN106      0.2629
     68  OD1      -12.5730   21.6150  -30.7940 O.2   106  ASN106     -0.2716
     69  ND2      -13.9590   20.9890  -29.1800 N.am  106  ASN106     -0.0877
     70  N        -18.4200   25.3030  -36.3580 N.3   123  HIS123     -0.1241
     71  CA       -17.5830   24.8730  -37.5030 C.3   123  HIS123      0.1621
     72  C        -18.0290   23.6280  -38.2020 C.2   123  HIS123      0.2264
     73  O        -17.2700   23.0980  -39.0720 O.2   123  HIS123     -0.2867
     74  CB       -16.1000   24.8250  -37.1480 C.3   123  HIS123      0.0745
     75  CG       -15.5610   26.1930  -36.8290 C.ar  123  HIS123      0.0817
     76  ND1      -14.4230   26.4040  -36.0790 N.ar  123  HIS123     -0.2268
     77  CD2      -16.0630   27.4230  -37.0950 C.ar  123  HIS123      0.1154
     78  CE1      -14.1950   27.6940  -35.9630 C.ar  123  HIS123      0.1986
     79  NE2      -15.1870   28.3430  -36.5430 N.ar  123  HIS123     -0.2212
     80  N        -11.0840   27.2940  -43.1470 N.3   172  PHE172     -0.1241
     81  CA       -10.6030   28.6480  -43.1580 C.3   172  PHE172      0.1605
     82  C        -10.9090   29.3010  -44.5090 C.2   172  PHE172      0.2264
     83  O        -10.7880   28.6290  -45.5550 O.2   172  PHE172     -0.2867
     84  CB        -9.1200   28.7410  -42.8120 C.3   172  PHE172      0.0534
     85  CG        -8.8510   28.5780  -41.3770 C.ar  172  PHE172     -0.0203
     86  CD1       -8.8740   29.6850  -40.5240 C.ar  172  PHE172     -0.0042
     87  CD2       -8.5660   27.3230  -40.8420 C.ar  172  PHE172     -0.0042
     88  CE1       -8.6630   29.5130  -39.1400 C.ar  172  PHE172     -0.0003
     89  CE2       -8.3580   27.1380  -39.4560 C.ar  172  PHE172     -0.0003
     90  CZ        -8.3810   28.2280  -38.6110 C.ar  172  PHE172     -0.0000
     91  N        -10.4440   25.2840  -23.3090 N.3   198  GLY198     -0.1210
     92  CA        -9.6210   24.5760  -24.2750 C.3   198  GLY198      0.1956
     93  C         -9.5690   25.2490  -25.6250 C.2   198  GLY198      0.2613
     94  O         -9.4710   24.5610  -26.6390 O.2   198  GLY198     -0.2717
     95  N         -9.6250   26.5860  -25.6480 N.am  199  THR199     -0.1938
     96  CA        -9.5110   27.3700  -26.9080 C.3   199  THR199      0.2028
     97  C         -8.5590   28.6250  -26.7630 C.2   199  THR199      0.2643
     98  O         -8.5220   29.2620  -25.7160 O.2   199  THR199     -0.2714
     99  CB       -10.8750   27.8810  -27.4070 C.3   199  THR199      0.1808
    100  OG1      -10.6990   28.5730  -28.6500 O.3   199  THR199     -0.2208
    101  CG2      -11.4180   28.8790  -26.4610 C.3   199  THR199      0.0379
    102  N         -7.8760   29.0250  -27.8260 N.am  200  SER200     -0.1935
    103  CA        -6.9260   30.1440  -27.7220 C.3   200  SER200      0.2055
    104  C         -7.6960   31.4190  -27.9630 C.2   200  SER200      0.2644
    105  O         -7.1810   32.5210  -27.7140 O.2   200  SER200     -0.2714
    106  CB        -5.8880   30.0600  -28.8220 C.3   200  SER200      0.2130
    107  OG        -6.5510   30.1740  -30.1100 O.3   200  SER200     -0.2179
    108  N         -8.8950   31.2690  -28.5230 N.am  201  SER201     -0.1935
    109  CA        -9.7760   32.3920  -28.8770 C.3   201  SER201      0.2055
    110  C         -9.1560   33.3410  -29.8510 C.2   201  SER201      0.2644
    111  O         -9.5250   34.5420  -29.8910 O.2   201  SER201     -0.2714
    112  CB       -10.2140   33.1870  -27.6560 C.3   201  SER201      0.2130
    113  OG       -11.0880   32.4350  -26.8280 O.3   201  SER201     -0.2179
    114  N         -8.2160   32.8100  -30.6250 N.am  202  THR202     -0.1936
    115  CA        -7.6380   33.5500  -31.7380 C.3   202  THR202      0.2028
    116  C         -8.3350   33.3850  -33.1240 C.2   202  THR202      0.2642
    117  O         -8.1310   34.2180  -34.0310 O.2   202  THR202     -0.2714
    118  CB        -6.1310   33.2250  -31.8720 C.3   202  THR202      0.1808
    119  OG1       -5.9630   31.8210  -32.1680 O.3   202  THR202     -0.2208
    120  CG2       -5.3620   33.6620  -30.5450 C.3   202  THR202      0.0379
    121  N         -9.0980   32.3140  -33.3260 N.am  203  VAL203     -0.1977
    122  CA        -9.9160   32.2470  -34.5180 C.3   203  VAL203      0.1596
    123  C        -11.0710   33.2670  -34.4210 C.2   203  VAL203      0.2287
    124  O        -11.6370   33.4370  -33.3510 O.2   203  VAL203     -0.2864
    125  CB       -10.3600   30.7770  -34.7940 C.3   203  VAL203      0.0276
    126  CG1      -11.2600   30.6590  -36.0470 C.3   203  VAL203      0.0022
    127  CG2       -9.1330   30.0030  -35.0030 C.3   203  VAL203      0.0022
    128  N        -11.0870   28.0020  -18.7680 N.3   223  ILE223     -0.1231
    129  CA       -10.4770   26.8080  -18.2270 C.3   223  ILE223      0.1692
    130  C         -9.5250   26.3490  -19.3070 C.2   223  ILE223      0.2592
    131  O         -9.9470   25.9910  -20.4070 O.2   223  ILE223     -0.2718
    132  CB       -11.4710   25.7130  -17.8850 C.3   223  ILE223      0.0266
    133  CG1      -12.5300   26.2350  -16.8890 C.3   223  ILE223      0.0019
    134  CG2      -10.7960   24.6580  -17.1300 C.3   223  ILE223      0.0020
    135  CD1      -13.8210   26.6670  -17.4660 C.3   223  ILE223      0.0001
    136  N         -8.2240   26.3700  -18.9910 N.am  224  ASN224     -0.1960
    137  CA        -7.1850   26.1080  -19.9910 C.3   224  ASN224      0.1819
    138  C         -5.8380   25.8200  -19.3030 C.2   224  ASN224      0.2621
    139  O         -5.5390   26.3800  -18.2180 O.2   224  ASN224     -0.2715
    140  CB        -7.0940   27.3570  -20.8870 C.3   224  ASN224      0.1195
    141  CG        -6.3450   27.1340  -22.2080 C.2   224  ASN224      0.2630
    142  OD1       -5.1750   26.7040  -22.2390 O.2   224  ASN224     -0.2716
    143  ND2       -6.9780   27.5590  -23.3010 N.am  224  ASN224     -0.0877
    144  N         -5.0250   24.9630  -19.9250 N.am  225  ILE225     -0.1963
    145  CA        -3.6420   24.7480  -19.4710 C.3   225  ILE225      0.1727
    146  C         -2.8120   26.0250  -19.5890 C.2   225  ILE225      0.2617
    147  O         -1.7630   26.1110  -18.9540 O.2   225  ILE225     -0.2715
    148  CB        -2.9740   23.5630  -20.1870 C.3   225  ILE225      0.0290
    149  CG1       -2.7530   23.8760  -21.6850 C.3   225  ILE225      0.0022
    150  CG2       -3.8040   22.2550  -19.9460 C.3   225  ILE225      0.0023
    151  CD1       -2.2420   22.6630  -22.5180 C.3   225  ILE225      0.0001
    152  N         -3.3050   27.0740  -20.2670 N.am  226  SER226     -0.1936
    153  CA        -2.5100   28.2630  -20.4080 C.3   226  SER226      0.2055
    154  C         -3.3080   29.5640  -20.5020 C.2   226  SER226      0.2643
    155  O         -4.5020   29.5670  -20.6920 O.2   226  SER226     -0.2714
    156  CB        -1.6280   28.1010  -21.6660 C.3   226  SER226      0.2130
    157  OG        -1.1600   29.3700  -22.1210 O.3   226  SER226     -0.2179
    158  N         -2.6460   30.6920  -20.3960 N.am  227  LYS227     -0.1963
    159  CA        -3.3070   31.9260  -20.7060 C.3   227  LYS227      0.1728
    160  C         -3.4820   31.9840  -22.2340 C.2   227  LYS227      0.2616
    161  O         -2.8990   31.1600  -22.9930 O.2   227  LYS227     -0.2715
    162  CB        -2.5600   33.1550  -20.1450 C.3   227  LYS227      0.0311
    163  CG        -2.3500   33.1190  -18.5760 C.3   227  LYS227      0.0038
    164  CD        -1.5370   34.3500  -18.0090 C.3   227  LYS227      0.0206
    165  CE        -0.2490   34.7370  -18.8650 C.3   227  LYS227      0.1093
    166  NZ         0.8790   33.7690  -18.6690 N.3   227  LYS227     -0.1314
    167  N         -4.3050   32.9390  -22.6780 N.am  228  THR228     -0.1951
    168  CA        -4.6520   32.9960  -24.0740 C.3   228  THR228      0.1897
    169  C         -4.7960   34.4140  -24.5410 C.2   228  THR228      0.2313
    170  O         -4.7030   35.4040  -23.7790 O.2   228  THR228     -0.2863
    171  CB        -6.0240   32.3310  -24.2980 C.3   228  THR228      0.1794
    172  OG1       -7.0360   33.2120  -23.7760 O.3   228  THR228     -0.2208
    173  CG2       -6.1280   31.0170  -23.6040 C.3   228  THR228      0.0378
    174  N         -6.0050   24.6240  -15.7190 N.3   241  ALA241     -0.1231
    175  CA        -6.3380   23.2260  -15.5440 C.3   241  ALA241      0.1694
    176  C         -6.5910   22.5530  -16.9050 C.2   241  ALA241      0.2592
    177  O         -6.8360   23.2250  -17.9270 O.2   241  ALA241     -0.2718
    178  CB        -7.5700   23.0890  -14.6500 C.3   241  ALA241      0.0304
    179  N         -6.4870   21.2310  -16.9220 N.am  242  LYS242     -0.1966
    180  CA        -6.8300   20.4530  -18.0840 C.3   242  LYS242      0.1728
    181  C         -8.3220   20.3180  -18.0200 C.2   242  LYS242      0.2616
    182  O         -8.9050   20.2410  -16.9410 O.2   242  LYS242     -0.2715
    183  CB        -6.2200   19.0660  -18.0090 C.3   242  LYS242      0.0311
    184  CG        -4.7000   19.0170  -18.1950 C.3   242  LYS242      0.0038
    185  CD        -4.1520   17.7170  -17.6220 C.3   242  LYS242      0.0206
    186  CE        -2.6180   17.6910  -17.6670 C.3   242  LYS242      0.1093
    187  NZ        -2.0400   16.8800  -16.5370 N.3   242  LYS242     -0.1314
    188  N         -8.9400   20.3480  -19.1900 N.am  243  PHE243     -0.1974
    189  CA       -10.3340   20.0430  -19.3410 C.3   243  PHE243      0.1639
    190  C        -10.7540   18.8820  -18.4660 C.2   243  PHE243      0.2290
    191  O        -11.8760   18.8930  -17.9500 O.2   243  PHE243     -0.2864
    192  CB       -10.5920   19.6980  -20.8150 C.3   243  PHE243      0.0560
    193  CG       -12.0140   19.3860  -21.1430 C.ar  243  PHE243     -0.0200
    194  CD1      -13.0670   20.2020  -20.6720 C.ar  243  PHE243     -0.0042
    195  CD2      -12.3080   18.2980  -21.9730 C.ar  243  PHE243     -0.0042
    196  CE1      -14.4130   19.9450  -21.0190 C.ar  243  PHE243     -0.0003
    197  CE2      -13.6700   17.9980  -22.3310 C.ar  243  PHE243     -0.0003
    198  CZ       -14.7210   18.8290  -21.8670 C.ar  243  PHE243     -0.0000
@<TRIPOS>BOND
     1    83    82    2
     2    82    81    1
     3    49    48    2
     4    48    47    1
     5    46    47    1
     6    46    52    1
     7    47    50    1
     8    81    80    1
     9    81    84    1
    10    84    85    1
    11    52    51    1
    12    51    50    1
    13    85    87   ar
    14    85    86   ar
    15    87    89   ar
    16    86    88   ar
    17    89    90   ar
    18    88    90   ar
    19    73    72    2
    20    72    71    1
    21    71    74    1
    22    71    70    1
    23    74    75    1
    24    77    75   ar
    25    77    79   ar
    26    75    76   ar
    27    79    78   ar
    28    38    37    2
    29    76    78   ar
    30   126   125    1
    31    39    40    1
    32    39    36    1
    33    37    36    1
    34    42    41    1
    35    42    43    2
    36    40    41    1
    37   127   125    1
    38   125   122    1
    39    36    35    1
    40    45    43    1
    41   122   123    1
    42   122   121    1
    43   123   124    2
    44    56    55    2
    45    43    44    1
    46   117   116    2
    47    64    65    2
    48    64    63    1
    49   121   116   am
    50    55    54    1
    51    55    62   am
    52   116   115    1
    53    54    57    1
    54    54    53    1
    55    63    62    1
    56    63    66    1
    57    57    58    1
    58    60    59    2
    59    58    59    1
    60   119   118    1
    61   118   115    1
    62   118   120    1
    63   115   114    1
    64    32    31    2
    65    59    61   am
    66    66    67    1
    67    68    67    2
    68    31    30    1
    69     9    10    1
    70     9     6    1
    71   114   110   am
    72    67    69   am
    73   107   106    1
    74    30    29    1
    75    30    33    1
    76   111   110    2
    77   110   109    1
    78     6     5    1
    79     6     7    1
    80     5     3   am
    81   109   108    1
    82   109   112    1
    83   106   103    1
    84     2     3    1
    85     2     1    1
    86    33    34    1
    87     3     4    2
    88   100    99    1
    89   108   104   am
    90     7     8    2
    91     7    11   am
    92   104   103    1
    93   104   105    2
    94   102   103    1
    95   102    97   am
    96   112   113    1
    97    11    12    1
    98    99    96    1
    99    99   101    1
   100    96    97    1
   101    96    95    1
   102    15    16    1
   103    97    98    2
   104    94    93    2
   105    16    19    1
   106    16    17    1
   107    18    17    2
   108    12    13    1
   109    17    20   am
   110    95    93   am
   111    93    92    1
   112    13    14    2
   113    20    21    1
   114   169   168    1
   115   169   170    2
   116    22    21    1
   117    22    23    2
   118   171   168    1
   119   171   172    1
   120   171   173    1
   121    92    91    1
   122   168   167    1
   123    21    24    1
   124   143   141   am
   125   161   160    2
   126   167   160   am
   127   151   149    1
   128    24    25    1
   129   197   195   ar
   130   197   198   ar
   131   142   141    2
   132   160   159    1
   133   141   140    1
   134   157   156    1
   135    25    26    1
   136   195   193   ar
   137   198   196   ar
   138   149   148    1
   139   156   153    1
   140   193   192    1
   141   193   194   ar
   142   196   194   ar
   143   140   137    1
   144    27    26   ar
   145   192   189    1
   146    26    28   ar
   147   159   158    1
   148   159   162    1
   149   155   154    2
   150   154   153    1
   151   154   158   am
   152   153   152    1
   153   131   130    2
   154   152   146   am
   155   148   150    1
   156   148   145    1
   157   162   163    1
   158   137   138    1
   159   137   136    1
   160   144   145    1
   161   144   138   am
   162   146   145    1
   163   146   147    2
   164   189   188    1
   165   189   190    1
   166   130   136   am
   167   130   129    1
   168   138   139    2
   169   188   181   am
   170   165   166    1
   171   165   164    1
   172   128   129    1
   173   163   164    1
   174   190   191    2
   175   129   132    1
   176   184   183    1
   177   184   185    1
   178   180   181    1
   179   180   183    1
   180   180   179    1
   181   181   182    2
   182   177   176    2
   183   132   134    1
   184   132   133    1
   185   186   185    1
   186   186   187    1
   187   135   133    1
   188   179   176   am
   189   176   175    1
   190   174   175    1
   191   175   178    1
