@<TRIPOS>MOLECULE
tmp/3u33A01.pdb
 137 134 0 0 0
SMALL
GASTEIGER

@<TRIPOS>ATOM
      1  N        -34.8570   19.8930  -79.3610 N.3   320  HIS320     -0.1241
      2  CA       -35.1100   19.0140  -78.2270 C.3   320  HIS320      0.1621
      3  C        -36.5720   19.0810  -77.7920 C.2   320  HIS320      0.2264
      4  O        -37.2260   18.0470  -77.6540 O.2   320  HIS320     -0.2867
      5  CB       -34.2060   19.3990  -77.0580 C.3   320  HIS320      0.0745
      6  CG       -34.4810   18.6340  -75.8030 C.ar  320  HIS320      0.0817
      7  ND1      -33.9210   17.4000  -75.5450 N.ar  320  HIS320     -0.2268
      8  CD2      -35.2510   18.9300  -74.7290 C.ar  320  HIS320      0.1154
      9  CE1      -34.3380   16.9680  -74.3680 C.ar  320  HIS320      0.1986
     10  NE2      -35.1460   17.8770  -73.8520 N.ar  320  HIS320     -0.2212
     11  N        -39.1110   15.9220  -77.1370 N.3   324  ARG324     -0.1245
     12  CA       -39.2940   15.5120  -75.7500 C.3   324  ARG324      0.1563
     13  C        -40.7370   15.6770  -75.3000 C.2   324  ARG324      0.2260
     14  O        -41.3240   16.7530  -75.4410 O.2   324  ARG324     -0.2867
     15  CB       -38.3820   16.3220  -74.8310 C.3   324  ARG324      0.0307
     16  CG       -38.5920   16.0550  -73.3450 C.3   324  ARG324      0.0489
     17  CD       -38.0770   14.6880  -72.9410 C.3   324  ARG324      0.2205
     18  NE       -37.6990   14.6600  -71.5320 N.pl3 324  ARG324     -0.0865
     19  CZ       -37.0950   13.6340  -70.9400 C.cat 324  ARG324      0.5346
     20  NH1      -36.8050   12.5450  -71.6400 N.pl3 324  ARG324      0.1354
     21  NH2      -36.7800   13.6930  -69.6490 N.pl3 324  ARG324      0.1354
     22  N        -43.5410   15.6020  -72.1750 N.3   326  VAL326     -0.1231
     23  CA       -43.7570   15.7010  -70.7410 C.3   326  VAL326      0.1692
     24  C        -45.2470   15.7990  -70.4870 C.2   326  VAL326      0.2592
     25  O        -45.9410   16.6000  -71.1230 O.2   326  VAL326     -0.2718
     26  CB       -43.0500   16.9250  -70.1100 C.3   326  VAL326      0.0266
     27  CG1      -41.5430   16.8200  -70.2850 C.3   326  VAL326      0.0020
     28  CG2      -43.5810   18.2340  -70.6910 C.3   326  VAL326      0.0020
     29  N        -45.7380   14.9710  -69.5690 N.am  327  PHE327     -0.1976
     30  CA       -47.1530   14.9740  -69.1960 C.3   327  PHE327      0.1639
     31  C        -48.0770   14.7270  -70.3930 C.2   327  PHE327      0.2290
     32  O        -49.1380   15.3450  -70.5060 O.2   327  PHE327     -0.2864
     33  CB       -47.5320   16.2820  -68.4820 C.3   327  PHE327      0.0560
     34  CG       -46.7050   16.5660  -67.2590 C.ar  327  PHE327     -0.0200
     35  CD1      -46.9660   15.9140  -66.0600 C.ar  327  PHE327     -0.0042
     36  CD2      -45.6620   17.4810  -67.3070 C.ar  327  PHE327     -0.0042
     37  CE1      -46.1980   16.1670  -64.9300 C.ar  327  PHE327     -0.0003
     38  CE2      -44.8920   17.7410  -66.1810 C.ar  327  PHE327     -0.0003
     39  CZ       -45.1610   17.0830  -64.9910 C.ar  327  PHE327     -0.0000
     40  N        -43.0050   18.7750  -75.3490 N.3   331  LEU331     -0.1245
     41  CA       -42.5790   19.8480  -74.4600 C.3   331  LEU331      0.1561
     42  C        -42.8490   21.2260  -75.0660 C.2   331  LEU331      0.2260
     43  O        -43.2460   22.1600  -74.3680 O.2   331  LEU331     -0.2867
     44  CB       -41.0980   19.6840  -74.1130 C.3   331  LEU331      0.0270
     45  CG       -40.4660   20.7270  -73.1870 C.3   331  LEU331      0.0019
     46  CD1      -41.3350   21.0040  -71.9660 C.3   331  LEU331      0.0001
     47  CD2      -39.0660   20.2900  -72.7670 C.3   331  LEU331      0.0001
     48  N        -46.3240   22.7370  -74.4850 N.3   334  GLN334     -0.1231
     49  CA       -46.6820   23.1830  -73.1420 C.3   334  GLN334      0.1683
     50  C        -46.7050   24.6990  -73.0940 C.2   334  GLN334      0.2434
     51  O        -45.7120   25.3460  -73.4130 O.2   334  GLN334     -0.2733
     52  CB       -45.7140   22.6200  -72.0940 C.3   334  GLN334      0.0380
     53  CG       -45.7200   21.1060  -71.9990 C.3   334  GLN334      0.0905
     54  CD       -47.0420   20.5550  -71.4900 C.2   334  GLN334      0.2608
     55  OE1      -47.8750   21.2940  -70.9580 O.2   334  GLN334     -0.2717
     56  NE2      -47.2380   19.2470  -71.6450 N.am  334  GLN334     -0.0878
     57  N        -47.8470   25.2720  -72.6990 N.am  335  PRO335     -0.2718
     58  CA       -48.0960   26.7180  -72.6910 C.3   335  PRO335      0.1535
     59  C        -46.9260   27.5510  -72.1560 C.2   335  PRO335      0.2598
     60  O        -46.4750   28.4540  -72.8530 O.2   335  PRO335     -0.2715
     61  CB       -49.3090   26.8460  -71.7720 C.3   335  PRO335      0.0310
     62  CG       -50.0450   25.5830  -71.9860 C.3   335  PRO335      0.0237
     63  CD       -49.0100   24.5150  -72.2090 C.3   335  PRO335      0.0939
     64  N        -46.4470   27.2520  -70.9520 N.am  336  LEU336     -0.1964
     65  CA       -45.3850   28.0400  -70.3420 C.3   336  LEU336      0.1728
     66  C        -44.0620   27.9140  -71.0910 C.2   336  LEU336      0.2616
     67  O        -43.3300   28.8910  -71.2260 O.2   336  LEU336     -0.2715
     68  CB       -45.1950   27.6500  -68.8770 C.3   336  LEU336      0.0311
     69  CG       -44.1990   28.4890  -68.0720 C.3   336  LEU336      0.0022
     70  CD1      -44.4780   29.9710  -68.2390 C.3   336  LEU336      0.0001
     71  CD2      -44.2280   28.1110  -66.5980 C.3   336  LEU336      0.0001
     72  N        -43.7500   26.7170  -71.5770 N.am  337  MET337     -0.1977
     73  CA       -42.5180   26.5180  -72.3370 C.3   337  MET337      0.1605
     74  C        -42.5880   27.2210  -73.6840 C.2   337  MET337      0.2287
     75  O        -41.6450   27.8970  -74.0970 O.2   337  MET337     -0.2864
     76  CB       -42.2230   25.0300  -72.5450 C.3   337  MET337      0.0413
     77  CG       -40.9660   24.7610  -73.3700 C.3   337  MET337      0.0598
     78  SD       -39.4620   25.4080  -72.5970 S.3   337  MET337     -0.1393
     79  CE       -38.9460   23.9890  -71.6480 C.3   337  MET337      0.0692
     80  N        -31.5860   24.6480  -69.6720 N.3   398  GLU398     -0.1231
     81  CA       -32.6200   24.1600  -68.7690 C.3   398  GLU398      0.1699
     82  C        -33.7800   23.5290  -69.5250 C.2   398  GLU398      0.2592
     83  O        -34.5320   22.7310  -68.9680 O.2   398  GLU398     -0.2718
     84  CB       -33.1260   25.2860  -67.8660 C.3   398  GLU398      0.0402
     85  CG       -34.0260   24.8240  -66.7330 C.3   398  GLU398      0.1161
     86  CD       -34.1870   25.8830  -65.6570 C.2   398  GLU398      0.3649
     87  OE1      -33.1620   26.3250  -65.0960 O.co2 398  GLU398     -0.2457
     88  OE2      -35.3360   26.2830  -65.3770 O.co2 398  GLU398     -0.2457
     89  N        -33.9260   23.8960  -70.7940 N.am  399  VAL399     -0.1966
     90  CA       -34.9580   23.3110  -71.6330 C.3   399  VAL399      0.1727
     91  C        -34.6600   21.8400  -71.8560 C.2   399  VAL399      0.2616
     92  O        -35.5700   21.0160  -71.8730 O.2   399  VAL399     -0.2715
     93  CB       -35.0550   24.0270  -72.9750 C.3   399  VAL399      0.0290
     94  CG1      -35.8870   23.2150  -73.9590 C.3   399  VAL399      0.0023
     95  CG2      -35.6440   25.4110  -72.7780 C.3   399  VAL399      0.0023
     96  N        -33.3790   21.5160  -72.0150 N.am  400  LEU400     -0.1963
     97  CA       -32.9280   20.1290  -72.1200 C.3   400  LEU400      0.1728
     98  C        -32.9670   19.4390  -70.7580 C.2   400  LEU400      0.2617
     99  O        -33.1900   18.2320  -70.6650 O.2   400  LEU400     -0.2715
    100  CB       -31.5100   20.0570  -72.7000 C.3   400  LEU400      0.0311
    101  CG       -31.3240   20.1550  -74.2170 C.3   400  LEU400      0.0022
    102  CD1      -32.0040   21.3850  -74.8020 C.3   400  LEU400      0.0001
    103  CD2      -29.8430   20.1500  -74.5660 C.3   400  LEU400      0.0001
    104  N        -32.7390   20.2110  -69.7000 N.am  401  GLY401     -0.1940
    105  CA       -32.7620   19.6730  -68.3520 C.3   401  GLY401      0.2014
    106  C        -31.4440   19.0520  -67.9280 C.2   401  GLY401      0.2639
    107  O        -30.3700   19.5670  -68.2480 O.2   401  GLY401     -0.2714
    108  N        -31.5230   17.9380  -67.2070 N.am  402  GLY402     -0.1939
    109  CA       -30.3380   17.2720  -66.6930 C.3   402  GLY402      0.2014
    110  C        -29.2460   17.0270  -67.7250 C.2   402  GLY402      0.2638
    111  O        -28.0810   17.3340  -67.4890 O.2   402  GLY402     -0.2714
    112  N        -29.6200   16.4800  -68.8750 N.am  403  ILE403     -0.1977
    113  CA       -28.6400   16.1310  -69.8890 C.3   403  ILE403      0.1596
    114  C        -27.9640   17.3550  -70.4880 C.2   403  ILE403      0.2287
    115  O        -26.8990   17.2410  -71.0930 O.2   403  ILE403     -0.2864
    116  CB       -29.2560   15.2970  -71.0260 C.3   403  ILE403      0.0276
    117  CG1      -30.2320   16.1400  -71.8430 C.3   403  ILE403      0.0022
    118  CG2      -29.9330   14.0620  -70.4800 C.3   403  ILE403      0.0022
    119  CD1      -30.7250   15.4340  -73.0830 C.3   403  ILE403      0.0001
    120  N        -26.7920   19.6850  -68.7140 N.3   405  TYR405     -0.1227
    121  CA       -25.8030   20.1010  -67.7260 C.3   405  TYR405      0.1736
    122  C        -24.5710   19.2070  -67.7970 C.2   405  TYR405      0.2595
    123  O        -23.5990   19.4130  -67.0750 O.2   405  TYR405     -0.2718
    124  CB       -26.4130   20.0620  -66.3270 C.3   405  TYR405      0.0548
    125  CG       -25.5630   20.6920  -65.2420 C.ar  405  TYR405     -0.0200
    126  CD1      -24.9170   19.9050  -64.2960 C.ar  405  TYR405     -0.0009
    127  CD2      -25.4200   22.0700  -65.1550 C.ar  405  TYR405     -0.0009
    128  CE1      -24.1520   20.4690  -63.3000 C.ar  405  TYR405      0.0417
    129  CE2      -24.6540   22.6430  -64.1580 C.ar  405  TYR405      0.0417
    130  CZ       -24.0210   21.8360  -63.2330 C.ar  405  TYR405      0.1957
    131  OH       -23.2600   22.4050  -62.2390 O.3   405  TYR405     -0.2866
    132  N        -24.6230   18.2160  -68.6790 N.am  406  CYS406     -0.1970
    133  CA       -23.5150   17.2840  -68.8530 C.3   406  CYS406      0.1712
    134  C        -22.6480   17.6880  -70.0340 C.2   406  CYS406      0.2296
    135  O        -23.1520   18.1480  -71.0580 O.2   406  CYS406     -0.2864
    136  CB       -24.0350   15.8570  -69.0390 C.3   406  CYS406      0.0983
    137  SG       -24.9710   15.2550  -67.6290 S.3   406  CYS406     -0.0798
@<TRIPOS>BOND
     1     1     2    1
     2     2     3    1
     3     2     5    1
     4     3     4    2
     5    11    12    1
     6     5     6    1
     7     6     7   ar
     8     6     8   ar
     9    12    13    1
    10    12    15    1
    11     7     9   ar
    12    14    13    2
    13    40    41    1
    14    42    41    1
    15    42    43    2
    16    15    16    1
    17   102   101    1
    18     8    10   ar
    19   103   101    1
    20    48    49    1
    21    41    44    1
    22     9    10   ar
    23   101   100    1
    24    44    45    1
    25    75    74    2
    26    94    93    1
    27    74    73    1
    28    51    50    2
    29    77    78    1
    30    77    76    1
    31    16    17    1
    32    45    47    1
    33    45    46    1
    34    49    50    1
    35    49    52    1
    36    50    57   am
    37   119   117    1
    38    93    95    1
    39    93    90    1
    40    17    18    1
    41    60    59    2
    42   100    97    1
    43    57    58    1
    44    57    63    1
    45    58    59    1
    46    58    61    1
    47    78    79    1
    48    76    73    1
    49    73    72    1
    50    63    62    1
    51    22    23    1
    52    59    64   am
    53    97    96    1
    54    97    98    1
    55    52    53    1
    56    96    91   am
    57    53    54    1
    58    62    61    1
    59    92    91    2
    60    91    90    1
    61   117   116    1
    62    56    54   am
    63    20    19    1
    64    90    89    1
    65    72    66   am
    66    18    19    2
    67    54    55    2
    68    67    66    2
    69    25    24    2
    70   115   114    2
    71    66    65    1
    72   135   134    2
    73   116   118    1
    74   116   113    1
    75    64    65    1
    76    19    21    1
    77    89    82   am
    78    98    99    2
    79    98   104   am
    80    23    24    1
    81    23    26    1
    82    28    26    1
    83    32    31    2
    84   114   113    1
    85    24    29   am
    86    31    30    1
    87    65    68    1
    88    27    26    1
    89   134   133    1
    90   113   112    1
    91   104   105    1
    92    80    81    1
    93    29    30    1
    94    82    83    2
    95    82    81    1
    96    30    33    1
    97   136   133    1
    98   136   137    1
    99    68    69    1
   100   112   110   am
   101   133   132    1
   102    81    84    1
   103   120   121    1
   104   132   122   am
   105    33    34    1
   106   105   106    1
   107   107   106    2
   108    70    69    1
   109    69    71    1
   110   106   108   am
   111    84    85    1
   112   122   121    1
   113   122   123    2
   114   121   124    1
   115   110   111    2
   116   110   109    1
   117    36    34   ar
   118    36    38   ar
   119    34    35   ar
   120   108   109    1
   121    85    86    1
   122   124   125    1
   123    38    39   ar
   124    35    37   ar
   125    86    88   ar
   126    86    87   ar
   127   125   127   ar
   128   125   126   ar
   129   127   129   ar
   130    39    37   ar
   131   126   128   ar
   132   129   130   ar
   133   128   130   ar
   134   130   131    1
