@<TRIPOS>MOLECULE
tmp/3u33A00.pdb
 209 200 0 0 0
SMALL
GASTEIGER

@<TRIPOS>ATOM
      1  N         -9.1230   38.9560  -84.5500 N.3   137  MET137     -0.1245
      2  CA        -7.9920   39.8640  -84.4120 C.3   137  MET137      0.1570
      3  C         -7.3460   40.1640  -85.7550 C.2   137  MET137      0.2261
      4  O         -7.0330   41.3100  -86.0630 O.2   137  MET137     -0.2867
      5  CB        -6.9540   39.3060  -83.4380 C.3   137  MET137      0.0387
      6  CG        -7.4250   39.2770  -82.0010 C.3   137  MET137      0.0595
      7  SD        -6.1140   38.9970  -80.8130 S.3   137  MET137     -0.1393
      8  CE        -5.6590   37.3070  -81.1470 C.3   137  MET137      0.0692
      9  N         -3.0380   40.6490  -80.6580 N.3   182  MET182     -0.1245
     10  CA        -3.0450   41.9460  -79.9980 C.3   182  MET182      0.1570
     11  C         -2.5980   41.8800  -78.5430 C.2   182  MET182      0.2261
     12  O         -3.2010   41.1890  -77.7400 O.2   182  MET182     -0.2867
     13  CB        -4.4310   42.5840  -80.1160 C.3   182  MET182      0.0387
     14  CG        -4.7350   43.0730  -81.5260 C.3   182  MET182      0.0595
     15  SD        -6.4230   43.6230  -81.7630 S.3   182  MET182     -0.1393
     16  CE        -6.4050   43.9490  -83.5240 C.3   182  MET182      0.0692
     17  N         -2.2830   44.1070  -75.4260 N.3   184  MET184     -0.1230
     18  CA        -2.5660   45.3530  -74.7170 C.3   184  MET184      0.1702
     19  C         -2.5420   45.1810  -73.2060 C.2   184  MET184      0.2593
     20  O         -1.7510   45.8160  -72.5080 O.2   184  MET184     -0.2718
     21  CB        -3.9170   45.9290  -75.1450 C.3   184  MET184      0.0401
     22  CG        -3.8670   46.7020  -76.4410 C.3   184  MET184      0.0596
     23  SD        -4.5880   45.8180  -77.8180 S.3   184  MET184     -0.1393
     24  CE        -6.3000   45.7540  -77.2970 C.3   184  MET184      0.0692
     25  N         -3.4190   44.3130  -72.7140 N.am  185  THR185     -0.1939
     26  CA        -3.6090   44.1010  -71.2840 C.3   185  THR185      0.2028
     27  C         -2.3290   43.7630  -70.5290 C.2   185  THR185      0.2642
     28  O         -1.5270   42.9460  -70.9690 O.2   185  THR185     -0.2714
     29  CB        -4.6390   42.9930  -71.0320 C.3   185  THR185      0.1808
     30  OG1       -5.8980   43.3880  -71.5830 O.3   185  THR185     -0.2208
     31  CG2       -4.8040   42.7450  -69.5480 C.3   185  THR185      0.0379
     32  N         -2.1460   44.4100  -69.3850 N.am  186  GLU186     -0.1976
     33  CA        -1.0630   44.0640  -68.4770 C.3   186  GLU186      0.1602
     34  C         -1.6400   43.7330  -67.1080 C.2   186  GLU186      0.2287
     35  O         -2.8480   43.8410  -66.8920 O.2   186  GLU186     -0.2864
     36  CB        -0.0260   45.1890  -68.3900 C.3   186  GLU186      0.0415
     37  CG         0.6900   45.4510  -69.7130 C.3   186  GLU186      0.1163
     38  CD         1.9450   46.2800  -69.5650 C.2   186  GLU186      0.3649
     39  OE1        2.3790   46.5240  -68.4200 O.co2 186  GLU186     -0.2457
     40  OE2        2.4990   46.6860  -70.6050 O.co2 186  GLU186     -0.2457
     41  N         -3.5820   46.6150  -65.4700 N.3   189  GLY189     -0.1210
     42  CA        -4.7990   47.0910  -66.0990 C.3   189  GLY189      0.1956
     43  C         -5.0540   46.5880  -67.5030 C.2   189  GLY189      0.2612
     44  O         -4.1260   46.3850  -68.2840 O.2   189  GLY189     -0.2717
     45  N         -6.3310   46.3910  -67.8180 N.am  190  GLY190     -0.1942
     46  CA        -6.7550   46.0100  -69.1520 C.3   190  GLY190      0.2014
     47  C         -7.5720   47.1130  -69.7990 C.2   190  GLY190      0.2640
     48  O         -7.3680   47.4470  -70.9590 O.2   190  GLY190     -0.2714
     49  N         -8.4980   47.6820  -69.0340 N.am  191  SER191     -0.1935
     50  CA        -9.3290   48.7740  -69.5070 C.3   191  SER191      0.2055
     51  C         -8.4900   50.0430  -69.5860 C.2   191  SER191      0.2643
     52  O         -8.5320   50.7870  -70.5680 O.2   191  SER191     -0.2714
     53  CB       -10.4900   48.9990  -68.5430 C.3   191  SER191      0.2130
     54  OG       -11.0660   47.7770  -68.1450 O.3   191  SER191     -0.2179
     55  N         -7.7340   50.2890  -68.5270 N.am  192  ASP192     -0.1971
     56  CA        -6.8810   51.4540  -68.4630 C.3   192  ASP192      0.1709
     57  C         -5.4980   51.0880  -69.0000 C.2   192  ASP192      0.2293
     58  O         -4.6210   50.6660  -68.2400 O.2   192  ASP192     -0.2864
     59  CB        -6.7910   51.9410  -67.0190 C.3   192  ASP192      0.1436
     60  CG        -5.9660   53.2040  -66.8780 C.2   192  ASP192      0.3671
     61  OD1       -5.5130   53.4930  -65.7490 O.co2 192  ASP192     -0.2456
     62  OD2       -5.7710   53.9040  -67.8960 O.co2 192  ASP192     -0.2456
     63  N         -0.2310   40.3710  -69.9150 N.3   215  TRP215     -0.1227
     64  CA        -0.9480   39.5140  -68.9620 C.3   215  TRP215      0.1737
     65  C         -1.8380   38.4880  -69.6630 C.2   215  TRP215      0.2595
     66  O         -1.8850   37.3210  -69.2780 O.2   215  TRP215     -0.2718
     67  CB        -1.7850   40.4100  -68.0460 C.3   215  TRP215      0.0564
     68  CG        -2.3630   39.7880  -66.8020 C.ar  215  TRP215      0.0003
     69  CD1       -3.5230   40.1570  -66.1820 C.ar  215  TRP215      0.0946
     70  CD2       -1.8130   38.7210  -66.0130 C.ar  215  TRP215      0.0152
     71  NE1       -3.7310   39.3920  -65.0620 N.ar  215  TRP215     -0.2442
     72  CE2       -2.6990   38.5010  -64.9360 C.ar  215  TRP215      0.0810
     73  CE3       -0.6660   37.9310  -66.1110 C.ar  215  TRP215      0.0012
     74  CZ2       -2.4750   37.5220  -63.9720 C.ar  215  TRP215      0.0191
     75  CZ3       -0.4430   36.9670  -65.1520 C.ar  215  TRP215      0.0001
     76  CH2       -1.3450   36.7680  -64.0980 C.ar  215  TRP215      0.0015
     77  N         -2.5530   38.9450  -70.6840 N.am  216  PHE216     -0.1976
     78  CA        -3.3400   38.0700  -71.5390 C.3   216  PHE216      0.1639
     79  C         -2.8850   38.2820  -72.9620 C.2   216  PHE216      0.2290
     80  O         -3.0580   39.3610  -73.5190 O.2   216  PHE216     -0.2864
     81  CB        -4.8320   38.3730  -71.4130 C.3   216  PHE216      0.0560
     82  CG        -5.4570   37.8260  -70.1650 C.ar  216  PHE216     -0.0200
     83  CD1       -6.3030   36.7320  -70.2220 C.ar  216  PHE216     -0.0042
     84  CD2       -5.1920   38.3950  -68.9320 C.ar  216  PHE216     -0.0042
     85  CE1       -6.8820   36.2250  -69.0780 C.ar  216  PHE216     -0.0003
     86  CE2       -5.7660   37.8890  -67.7820 C.ar  216  PHE216     -0.0003
     87  CZ        -6.6120   36.8000  -67.8590 C.ar  216  PHE216     -0.0000
     88  N         -3.2930   36.3680  -76.3110 N.3   218  SER218     -0.1217
     89  CA        -3.9180   35.2830  -77.0440 C.3   218  SER218      0.1889
     90  C         -3.2460   34.9950  -78.3780 C.2   218  SER218      0.2288
     91  O         -2.6340   35.8670  -78.9870 O.2   218  SER218     -0.2866
     92  CB        -5.4070   35.5600  -77.2380 C.3   218  SER218      0.2089
     93  OG        -6.1040   35.4510  -76.0090 O.3   218  SER218     -0.2183
     94  N         -8.5140   28.3510  -68.5590 N.3   260  LYS260     -0.1245
     95  CA        -9.7330   29.1490  -68.6710 C.3   260  LYS260      0.1561
     96  C        -11.0440   28.4020  -68.4140 C.2   260  LYS260      0.2260
     97  O        -11.1380   27.1880  -68.5930 O.2   260  LYS260     -0.2867
     98  CB        -9.7710   29.8340  -70.0420 C.3   260  LYS260      0.0271
     99  CG        -8.5980   30.7790  -70.2770 C.3   260  LYS260      0.0035
    100  CD        -8.6300   31.3930  -71.6620 C.3   260  LYS260      0.0206
    101  CE        -8.2140   30.4000  -72.7100 C.3   260  LYS260      0.1093
    102  NZ        -8.0060   31.0840  -74.0020 N.3   260  LYS260     -0.1314
    103  N        -13.4960   29.0020  -73.7430 N.3   263  ASN263     -0.1240
    104  CA       -12.5670   29.4910  -74.7530 C.3   263  ASN263      0.1653
    105  C        -11.3090   28.6270  -74.7540 C.2   263  ASN263      0.2266
    106  O        -10.2390   29.0690  -75.1400 O.2   263  ASN263     -0.2867
    107  CB       -12.2230   30.9540  -74.4600 C.3   263  ASN263      0.1155
    108  CG       -11.4790   31.6240  -75.5880 C.2   263  ASN263      0.2627
    109  OD1      -10.3030   31.9450  -75.4590 O.2   263  ASN263     -0.2716
    110  ND2      -12.1630   31.8460  -76.7020 N.am  263  ASN263     -0.0877
    111  N         -8.5580   27.8720  -77.5420 N.3   266  ASN266     -0.1240
    112  CA        -7.6910   28.9860  -77.8750 C.3   266  ASN266      0.1653
    113  C         -6.5720   29.1650  -76.8500 C.2   266  ASN266      0.2266
    114  O         -6.8210   29.1960  -75.6570 O.2   266  ASN266     -0.2867
    115  CB        -8.5470   30.2530  -77.9450 C.3   266  ASN266      0.1155
    116  CG        -7.7620   31.4910  -78.3370 C.2   266  ASN266      0.2627
    117  OD1       -6.8310   31.4380  -79.1470 O.2   266  ASN266     -0.2716
    118  ND2       -8.1490   32.6240  -77.7660 N.am  266  ASN266     -0.0877
    119  N         -4.1540   31.2220  -74.7070 N.3   268  SER268     -0.1217
    120  CA        -3.9430   32.5530  -74.1490 C.3   268  SER268      0.1889
    121  C         -2.7740   32.5060  -73.1830 C.2   268  SER268      0.2288
    122  O         -2.8000   31.7440  -72.2130 O.2   268  SER268     -0.2866
    123  CB        -5.1890   33.0400  -73.4200 C.3   268  SER268      0.2089
    124  OG        -6.1970   33.3990  -74.3340 O.3   268  SER268     -0.2183
    125  N        -16.7570   35.2830  -71.6940 N.3   420  VAL420     -0.1245
    126  CA       -15.5220   35.7920  -72.2610 C.3   420  VAL420      0.1561
    127  C        -15.8060   36.9700  -73.1880 C.2   420  VAL420      0.2260
    128  O        -15.0600   37.9400  -73.1960 O.2   420  VAL420     -0.2867
    129  CB       -14.7050   34.6970  -72.9830 C.3   420  VAL420      0.0252
    130  CG1      -15.2510   34.4520  -74.3740 C.3   420  VAL420      0.0019
    131  CG2      -13.2330   35.0890  -73.0390 C.3   420  VAL420      0.0019
    132  N        -16.3430   40.1480  -71.1670 N.3   423  ILE423     -0.1231
    133  CA       -15.1390   40.6070  -70.4870 C.3   423  ILE423      0.1692
    134  C        -14.1140   41.1970  -71.4570 C.2   423  ILE423      0.2592
    135  O        -13.4370   42.1670  -71.1370 O.2   423  ILE423     -0.2718
    136  CB       -14.4920   39.4530  -69.6900 C.3   423  ILE423      0.0266
    137  CG1      -15.3390   39.1210  -68.4570 C.3   423  ILE423      0.0019
    138  CG2      -13.0640   39.8020  -69.2920 C.3   423  ILE423      0.0020
    139  CD1      -14.9410   37.8390  -67.7630 C.3   423  ILE423      0.0001
    140  N        -14.0190   40.5980  -72.6400 N.am  424  TRP424     -0.1962
    141  CA       -13.0760   41.0090  -73.6810 C.3   424  TRP424      0.1771
    142  C        -13.1460   42.5030  -73.9560 C.2   424  TRP424      0.2620
    143  O        -14.2060   43.1100  -73.8570 O.2   424  TRP424     -0.2715
    144  CB       -13.3720   40.2530  -74.9850 C.3   424  TRP424      0.0590
    145  CG       -12.3290   39.2470  -75.4260 C.ar  424  TRP424      0.0006
    146  CD1      -12.2690   37.9180  -75.0970 C.ar  424  TRP424      0.0946
    147  CD2      -11.2250   39.4880  -76.3080 C.ar  424  TRP424      0.0152
    148  NE1      -11.1880   37.3260  -75.7090 N.ar  424  TRP424     -0.2442
    149  CE2      -10.5300   38.2690  -76.4540 C.ar  424  TRP424      0.0810
    150  CE3      -10.7510   40.6190  -76.9820 C.ar  424  TRP424      0.0012
    151  CZ2       -9.3880   38.1530  -77.2440 C.ar  424  TRP424      0.0191
    152  CZ3       -9.6180   40.5010  -77.7670 C.ar  424  TRP424      0.0001
    153  CH2       -8.9500   39.2790  -77.8920 C.ar  424  TRP424      0.0015
    154  N        -12.0040   43.0850  -74.3110 N.am  425  GLU425     -0.1963
    155  CA       -11.9340   44.4590  -74.7990 C.3   425  GLU425      0.1733
    156  C        -12.6730   45.4550  -73.9090 C.2   425  GLU425      0.2617
    157  O        -13.5860   46.1370  -74.3680 O.2   425  GLU425     -0.2715
    158  CB       -12.4800   44.5540  -76.2320 C.3   425  GLU425      0.0429
    159  CG       -11.9680   43.4900  -77.2070 C.3   425  GLU425      0.1163
    160  CD       -10.7600   43.9390  -78.0270 C.2   425  GLU425      0.3649
    161  OE1      -10.3000   45.0890  -77.8640 O.co2 425  GLU425     -0.2457
    162  OE2      -10.2690   43.1330  -78.8460 O.co2 425  GLU425     -0.2457
    163  N        -12.2840   45.5370  -72.6400 N.am  426  GLY426     -0.1940
    164  CA       -12.7800   46.5830  -71.7610 C.3   426  GLY426      0.2014
    165  C        -13.9200   46.2160  -70.8290 C.2   426  GLY426      0.2640
    166  O        -14.0030   46.7410  -69.7200 O.2   426  GLY426     -0.2714
    167  N        -14.8050   45.3340  -71.2810 N.am  427  SER427     -0.1935
    168  CA       -15.9440   44.8770  -70.4820 C.3   427  SER427      0.2055
    169  C        -17.1420   45.8210  -70.5780 C.2   427  SER427      0.2644
    170  O        -17.0340   46.9170  -71.1080 O.2   427  SER427     -0.2714
    171  CB       -15.5500   44.6420  -69.0200 C.3   427  SER427      0.2130
    172  OG       -14.5740   43.6220  -68.9050 O.3   427  SER427     -0.2179
    173  N        -18.2810   45.3810  -70.0560 N.am  428  GLY428     -0.1939
    174  CA       -19.5340   46.0940  -70.2170 C.3   428  GLY428      0.2014
    175  C        -19.5130   47.5590  -69.8340 C.2   428  GLY428      0.2639
    176  O        -19.9810   48.4130  -70.5790 O.2   428  GLY428     -0.2714
    177  N        -18.9840   47.8570  -68.6560 N.am  429  ASN429     -0.1958
    178  CA       -18.9410   49.2300  -68.1830 C.3   429  ASN429      0.1819
    179  C        -18.2250   50.1320  -69.1790 C.2   429  ASN429      0.2621
    180  O        -18.6980   51.2240  -69.4860 O.2   429  ASN429     -0.2715
    181  CB       -18.2820   49.3080  -66.8080 C.3   429  ASN429      0.1195
    182  CG       -19.1730   48.7820  -65.7080 C.2   429  ASN429      0.2630
    183  OD1      -20.2950   48.3470  -65.9600 O.2   429  ASN429     -0.2716
    184  ND2      -18.6750   48.8100  -64.4760 N.am  429  ASN429     -0.0877
    185  N        -17.0890   49.6740  -69.6940 N.am  430  ILE430     -0.1977
    186  CA       -16.3390   50.4690  -70.6550 C.3   430  ILE430      0.1596
    187  C        -17.1680   50.7360  -71.9080 C.2   430  ILE430      0.2287
    188  O        -17.1420   51.8310  -72.4550 O.2   430  ILE430     -0.2864
    189  CB       -15.0000   49.8160  -71.0210 C.3   430  ILE430      0.0276
    190  CG1      -14.0610   49.8450  -69.8190 C.3   430  ILE430      0.0022
    191  CG2      -14.3490   50.5370  -72.1750 C.3   430  ILE430      0.0022
    192  CD1      -13.8340   51.2270  -69.2600 C.3   430  ILE430      0.0001
    193  N        -19.5990   53.4760  -70.8540 N.3   433  LEU433     -0.1245
    194  CA       -18.9230   54.7610  -70.7440 C.3   433  LEU433      0.1561
    195  C        -18.6340   55.3200  -72.1320 C.2   433  LEU433      0.2260
    196  O        -18.7060   56.5230  -72.3510 O.2   433  LEU433     -0.2867
    197  CB       -17.6360   54.6380  -69.9270 C.3   433  LEU433      0.0270
    198  CG       -17.8410   54.2650  -68.4580 C.3   433  LEU433      0.0019
    199  CD1      -16.5180   54.1210  -67.7420 C.3   433  LEU433      0.0001
    200  CD2      -18.7080   55.2990  -67.7690 C.3   433  LEU433      0.0001
    201  N        -23.0040   59.5950  -65.1010 N.3   479  GLU479     -0.1245
    202  CA       -22.2220   58.4040  -65.4020 C.3   479  GLU479      0.1567
    203  C        -22.8440   57.1250  -64.8190 C.2   479  GLU479      0.2260
    204  O        -22.7990   56.0730  -65.4520 O.2   479  GLU479     -0.2867
    205  CB       -20.7810   58.5900  -64.9110 C.3   479  GLU479      0.0388
    206  CG       -19.8000   57.5220  -65.3540 C.3   479  GLU479      0.1160
    207  CD       -18.3480   57.9440  -65.1560 C.2   479  GLU479      0.3649
    208  OE1      -18.0660   59.1580  -65.2090 O.co2 479  GLU479     -0.2457
    209  OE2      -17.4840   57.0650  -64.9430 O.co2 479  GLU479     -0.2457
@<TRIPOS>BOND
     1     4     3    2
     2     3     2    1
     3     1     2    1
     4     2     5    1
     5    16    15    1
     6     5     6    1
     7     6     7    1
     8    15    14    1
     9    14    13    1
    10     8     7    1
    11     9    10    1
    12    13    10    1
    13    10    11    1
    14   117   116    2
    15    91    90    2
    16   162   160   ar
    17    11    12    2
    18    90    89    1
    19   116   115    1
    20   116   118   am
    21   160   161   ar
    22   160   159    1
    23   115   112    1
    24   153   152   ar
    25   153   151   ar
    26   112   111    1
    27   112   113    1
    28    23    24    1
    29    23    22    1
    30   152   150   ar
    31   151   149   ar
    32    92    89    1
    33    92    93    1
    34   159   158    1
    35    89    88    1
    36   150   147   ar
    37   113   114    2
    38   110   108   am
    39   149   147   ar
    40   149   148   ar
    41    22    21    1
    42   147   145   ar
    43   158   155    1
    44   148   146   ar
    45   108   109    2
    46   108   107    1
    47    17    18    1
    48   145   146   ar
    49   145   144    1
    50    21    18    1
    51   106   105    2
    52   144   141    1
    53   155   154    1
    54   155   156    1
    55   105   104    1
    56   104   107    1
    57   104   103    1
    58    18    19    1
    59   119   120    1
    60   130   129    1
    61   157   156    2
    62   124   123    1
    63   154   142   am
    64   120   123    1
    65   120   121    1
    66   102   101    1
    67   142   143    2
    68   142   141    1
    69   156   163   am
    70   141   140    1
    71    80    79    2
    72    19    25   am
    73    19    20    2
    74   128   127    2
    75   127   126    1
    76   121   122    2
    77   131   129    1
    78   129   126    1
    79    79    78    1
    80    25    26    1
    81   101   100    1
    82   140   134   am
    83   163   164    1
    84   188   187    2
    85   196   195    2
    86   126   125    1
    87   191   189    1
    88   195   194    1
    89   187   186    1
    90   164   165    1
    91   100    99    1
    92    30    29    1
    93    78    81    1
    94    78    77    1
    95   134   135    2
    96   134   133    1
    97    81    82    1
    98    26    29    1
    99    26    27    1
   100   167   165   am
   101   167   168    1
   102   132   133    1
   103   170   169    2
   104    29    31    1
   105   189   186    1
   106   189   190    1
   107    28    27    2
   108    48    47    2
   109   193   194    1
   110   165   166    2
   111   194   197    1
   112    77    65   am
   113   186   185    1
   114    40    38   ar
   115   176   175    2
   116   169   168    1
   117   169   173   am
   118    52    51    2
   119    27    32   am
   120   133   136    1
   121   168   171    1
   122    99    98    1
   123    83    82   ar
   124    83    85   ar
   125   174   173    1
   126   174   175    1
   127    82    84   ar
   128    98    95    1
   129   197   198    1
   130    63    64    1
   131   175   177   am
   132   190   192    1
   133    47    46    1
   134    47    49   am
   135    37    38    1
   136    37    36    1
   137   185   179   am
   138   136   138    1
   139   136   137    1
   140    65    66    2
   141    65    64    1
   142    51    50    1
   143    51    55   am
   144    38    39   ar
   145    50    49    1
   146    50    53    1
   147   180   179    2
   148    32    33    1
   149   179   178    1
   150    46    45    1
   151    85    87   ar
   152   171   172    1
   153    57    56    1
   154    57    58    2
   155    64    67    1
   156    84    86   ar
   157    95    94    1
   158    95    96    1
   159   177   178    1
   160    97    96    2
   161    53    54    1
   162    55    56    1
   163    33    36    1
   164    33    34    1
   165    56    59    1
   166   198   200    1
   167   198   199    1
   168   137   139    1
   169    44    43    2
   170   178   181    1
   171    67    68    1
   172    62    60   ar
   173    87    86   ar
   174    45    43   am
   175    43    42    1
   176    34    35    2
   177    59    60    1
   178    60    61   ar
   179   181   182    1
   180    68    69   ar
   181    68    70   ar
   182    69    71   ar
   183    73    70   ar
   184    73    75   ar
   185    42    41    1
   186    70    72   ar
   187   183   182    2
   188   182   184   am
   189   204   203    2
   190   202   201    1
   191   202   205    1
   192   202   203    1
   193   206   207    1
   194   206   205    1
   195   208   207   ar
   196   207   209   ar
   197    75    76   ar
   198    71    72   ar
   199    72    74   ar
   200    76    74   ar
