@<TRIPOS>MOLECULE
tmp/3u3fB01.pdb
 101 94 0 0 0
SMALL
GASTEIGER

@<TRIPOS>ATOM
      1  N        -31.3880   -8.1120   69.9460 N.3     5  TYR5       -0.1241
      2  CA       -31.6450   -7.0690   68.9660 C.3     5  TYR5        0.1605
      3  C        -32.4870   -5.9320   69.5430 C.2     5  TYR5        0.2264
      4  O        -32.2510   -4.7570   69.2560 O.2     5  TYR5       -0.2867
      5  CB       -32.3520   -7.6760   67.7540 C.3     5  TYR5        0.0534
      6  CG       -32.8010   -6.6670   66.7220 C.ar    5  TYR5       -0.0201
      7  CD1      -31.9910   -6.3420   65.6440 C.ar    5  TYR5       -0.0009
      8  CD2      -34.0390   -6.0430   66.8230 C.ar    5  TYR5       -0.0009
      9  CE1      -32.3970   -5.4200   64.6950 C.ar    5  TYR5        0.0417
     10  CE2      -34.4530   -5.1190   65.8800 C.ar    5  TYR5        0.0417
     11  CZ       -33.6280   -4.8120   64.8150 C.ar    5  TYR5        0.1957
     12  OH       -34.0400   -3.8930   63.8720 O.3     5  TYR5       -0.2866
     13  N        -30.7360   -3.9050   72.3010 N.3     8  VAL8       -0.1231
     14  CA       -29.8310   -3.0770   71.5300 C.3     8  VAL8        0.1692
     15  C        -30.5220   -1.8440   70.9410 C.2     8  VAL8        0.2591
     16  O        -29.9180   -0.7860   70.8210 O.2     8  VAL8       -0.2718
     17  CB       -29.1890   -3.8810   70.4030 C.3     8  VAL8        0.0266
     18  CG1      -28.6280   -2.9500   69.3490 C.3     8  VAL8        0.0020
     19  CG2      -28.1040   -4.7860   70.9600 C.3     8  VAL8        0.0020
     20  N        -31.7850   -1.9870   70.5620 N.am    9  MET9       -0.1979
     21  CA       -32.5410   -0.8740   70.0130 C.3     9  MET9        0.1605
     22  C        -33.0410    0.0570   71.1070 C.2     9  MET9        0.2287
     23  O        -32.9800    1.2790   70.9680 O.2     9  MET9       -0.2864
     24  CB       -33.7310   -1.3940   69.2280 C.3     9  MET9        0.0413
     25  CG       -33.4360   -1.7870   67.7970 C.3     9  MET9        0.0598
     26  SD       -34.8860   -1.3630   66.8190 S.3     9  MET9       -0.1393
     27  CE       -36.1730   -1.7380   68.0040 C.3     9  MET9        0.0692
     28  N        -30.1140    2.1210   72.1080 N.3    12  VAL12      -0.1231
     29  CA       -29.7900    3.1830   71.1700 C.3    12  VAL12       0.1692
     30  C        -30.8440    4.2760   71.2280 C.2    12  VAL12       0.2591
     31  O        -30.5690    5.4410   70.9330 O.2    12  VAL12      -0.2718
     32  CB       -29.6770    2.6670   69.7530 C.3    12  VAL12       0.0266
     33  CG1      -29.2860    3.7930   68.8290 C.3    12  VAL12       0.0020
     34  CG2      -28.6510    1.5660   69.7000 C.3    12  VAL12       0.0020
     35  N        -32.0590    3.8980   71.6090 N.am   13  ARG13      -0.1980
     36  CA       -33.1130    4.8840   71.7520 C.3    13  ARG13       0.1597
     37  C        -32.8460    5.7150   72.9950 C.2    13  ARG13       0.2287
     38  O        -32.8700    6.9470   72.9440 O.2    13  ARG13      -0.2864
     39  CB       -34.4900    4.2240   71.8050 C.3    13  ARG13       0.0334
     40  CG       -35.1850    4.1540   70.4430 C.3    13  ARG13       0.0492
     41  CD       -36.6630    3.7980   70.5760 C.3    13  ARG13       0.2205
     42  NE       -36.8650    2.4370   71.0700 N.pl3  13  ARG13      -0.0865
     43  CZ       -37.1120    1.3860   70.2880 C.cat  13  ARG13       0.5346
     44  NH1      -37.1960    1.5350   68.9620 N.pl3  13  ARG13       0.1354
     45  NH2      -37.2800    0.1840   70.8370 N.pl3  13  ARG13       0.1354
     46  N        -30.5120    8.3340   72.3940 N.3    16  LEU16      -0.1245
     47  CA       -30.9930    9.4590   71.6000 C.3    16  LEU16       0.1561
     48  C        -31.8560   10.4100   72.4140 C.2    16  LEU16       0.2260
     49  O        -31.8840   11.6190   72.1610 O.2    16  LEU16      -0.2867
     50  CB       -31.7450    8.9770   70.3650 C.3    16  LEU16       0.0270
     51  CG       -30.7720    8.5890   69.2620 C.3    16  LEU16       0.0019
     52  CD1      -31.5160    8.0840   68.0500 C.3    16  LEU16       0.0001
     53  CD2      -29.8920    9.7850   68.9080 C.3    16  LEU16       0.0001
     54  N        -29.6580   12.6530   74.1140 N.3    19  LYS19      -0.1245
     55  CA       -29.1380   13.6620   73.2000 C.3    19  LYS19       0.1561
     56  C        -30.0100   14.9200   73.1940 C.2    19  LYS19       0.2260
     57  O        -29.5040   16.0460   73.2130 O.2    19  LYS19      -0.2867
     58  CB       -28.9920   13.0930   71.7810 C.3    19  LYS19       0.0271
     59  CG       -28.5810   14.1230   70.7180 C.3    19  LYS19       0.0035
     60  CD       -28.2930   13.4720   69.3570 C.3    19  LYS19       0.0206
     61  CE       -27.8870   14.5130   68.3100 C.3    19  LYS19       0.1093
     62  NZ       -27.4770   13.9010   67.0130 N.3    19  LYS19      -0.1314
     63  N        -22.7070    8.3740   72.7400 N.3   105  HIS105     -0.1241
     64  CA       -22.6910    7.9730   71.3410 C.3   105  HIS105      0.1621
     65  C        -21.8240    6.7150   71.2110 C.2   105  HIS105      0.2264
     66  O        -22.2650    5.6890   70.6750 O.2   105  HIS105     -0.2867
     67  CB       -22.1550    9.1170   70.4760 C.3   105  HIS105      0.0745
     68  CG       -22.1130    8.8110   69.0070 C.ar  105  HIS105      0.0817
     69  ND1      -21.0870    8.1020   68.4250 N.ar  105  HIS105     -0.2268
     70  CD2      -22.9590    9.1510   68.0030 C.ar  105  HIS105      0.1154
     71  CE1      -21.3090    8.0010   67.1220 C.ar  105  HIS105      0.1986
     72  NE2      -22.4340    8.6280   66.8440 N.ar  105  HIS105     -0.2212
     73  N        -23.4270    3.7570   72.3640 N.3   108  ALA108     -0.1231
     74  CA       -24.3920    3.2390   71.4000 C.3   108  ALA108      0.1694
     75  C        -23.6750    2.4070   70.3670 C.2   108  ALA108      0.2591
     76  O        -23.9660    1.2300   70.1990 O.2   108  ALA108     -0.2718
     77  CB       -25.1440    4.3680   70.7230 C.3   108  ALA108      0.0304
     78  N        -22.7210    3.0250   69.6860 N.am  109  VAL109     -0.1980
     79  CA       -21.9470    2.3280   68.6800 C.3   109  VAL109      0.1595
     80  C        -21.4800    0.9580   69.1690 C.2   109  VAL109      0.2287
     81  O        -21.7160   -0.0530   68.5090 O.2   109  VAL109     -0.2864
     82  CB       -20.7450    3.1530   68.2810 C.3   109  VAL109      0.0276
     83  CG1      -19.8870    2.3760   67.3270 C.3   109  VAL109      0.0022
     84  CG2      -21.2100    4.4450   67.6610 C.3   109  VAL109      0.0022
     85  N        -24.0860   -1.6320   69.0880 N.3   112  LYS112     -0.1245
     86  CA       -24.2600   -2.1680   67.7460 C.3   112  LYS112      0.1561
     87  C        -23.1870   -3.2250   67.4980 C.2   112  LYS112      0.2260
     88  O        -23.4930   -4.3560   67.1060 O.2   112  LYS112     -0.2867
     89  CB       -24.1860   -1.0340   66.7110 C.3   112  LYS112      0.0271
     90  CG       -24.2260   -1.4830   65.2510 C.3   112  LYS112      0.0035
     91  CD       -25.4180   -2.4200   65.0140 C.3   112  LYS112      0.0206
     92  CE       -25.8180   -2.5440   63.5290 C.3   112  LYS112      0.1093
     93  NZ       -24.7370   -3.0840   62.6410 N.3   112  LYS112     -0.1314
     94  N        -23.9540   -6.2640   68.9560 N.3   115  LEU115     -0.1245
     95  CA       -24.9380   -6.9790   68.1590 C.3   115  LEU115      0.1561
     96  C        -24.2730   -7.7390   67.0250 C.2   115  LEU115      0.2260
     97  O        -24.4880   -8.9360   66.8790 O.2   115  LEU115     -0.2867
     98  CB       -25.9960   -6.0240   67.6060 C.3   115  LEU115      0.0270
     99  CG       -27.1440   -6.6550   66.8180 C.3   115  LEU115      0.0019
    100  CD1      -27.7750   -7.8230   67.5610 C.3   115  LEU115      0.0001
    101  CD2      -28.1690   -5.5930   66.5160 C.3   115  LEU115      0.0001
@<TRIPOS>BOND
     1    93    92    1
     2    92    91    1
     3    12    11    1
     4     9    11   ar
     5     9     7   ar
     6    11    10   ar
     7    91    90    1
     8    90    89    1
     9     7     6   ar
    10    10     8   ar
    11   101    99    1
    12    89    86    1
    13     6     8   ar
    14     6     5    1
    15    99   100    1
    16    99    98    1
    17    26    25    1
    18    26    27    1
    19    72    71   ar
    20    72    70   ar
    21    97    96    2
    22    62    61    1
    23    96    95    1
    24    88    87    2
    25    71    69   ar
    26    83    82    1
    27    87    86    1
    28    98    95    1
    29    84    82    1
    30    86    85    1
    31     5     2    1
    32    25    24    1
    33    70    68   ar
    34    52    51    1
    35    95    94    1
    36    82    79    1
    37    61    60    1
    38    69    68   ar
    39    81    80    2
    40    79    80    1
    41    79    78    1
    42    33    32    1
    43    53    51    1
    44    44    43    1
    45     2     3    1
    46     2     1    1
    47    68    67    1
    48    24    21    1
    49     4     3    2
    50    51    50    1
    51    18    17    1
    52    60    59    1
    53    78    75   am
    54    34    32    1
    55    32    29    1
    56    21    20    1
    57    21    22    1
    58    76    75    2
    59    43    45    1
    60    43    42    2
    61    50    47    1
    62    75    74    1
    63    17    19    1
    64    17    14    1
    65    40    41    1
    66    40    39    1
    67    67    64    1
    68    20    15   am
    69    41    42    1
    70    66    65    2
    71    59    58    1
    72    77    74    1
    73    16    15    2
    74    31    30    2
    75    15    14    1
    76    23    22    2
    77    29    30    1
    78    29    28    1
    79    65    64    1
    80    30    35   am
    81    64    63    1
    82    74    73    1
    83    14    13    1
    84    47    46    1
    85    47    48    1
    86    35    36    1
    87    36    39    1
    88    36    37    1
    89    58    55    1
    90    49    48    2
    91    38    37    2
    92    56    55    1
    93    56    57    2
    94    55    54    1
