@<TRIPOS>MOLECULE
tmp/3u3fC00.pdb
 141 129 0 0 0
SMALL
GASTEIGER

@<TRIPOS>ATOM
      1  N        -33.4050  -20.1360   40.3680 N.3    31  VAL31      -0.1245
      2  CA       -32.1710  -20.2610   39.6070 C.3    31  VAL31       0.1561
      3  C        -31.2220  -19.1090   39.8490 C.2    31  VAL31       0.2260
      4  O        -30.0370  -19.3000   40.1380 O.2    31  VAL31      -0.2867
      5  CB       -32.4530  -20.2310   38.1150 C.3    31  VAL31       0.0252
      6  CG1      -31.1790  -20.5120   37.3720 C.3    31  VAL31       0.0019
      7  CG2      -33.5470  -21.2350   37.7570 C.3    31  VAL31       0.0019
      8  N        -29.4590  -19.3450   43.1550 N.3    34  VAL34      -0.1231
      9  CA       -28.4180  -20.3590   43.1440 C.3    34  VAL34       0.1692
     10  C        -27.2840  -19.8420   42.2980 C.2    34  VAL34       0.2591
     11  O        -26.1100  -20.0580   42.5910 O.2    34  VAL34      -0.2718
     12  CB       -28.9310  -21.6890   42.5750 C.3    34  VAL34       0.0266
     13  CG1      -27.7930  -22.6850   42.4240 C.3    34  VAL34       0.0020
     14  CG2      -30.0230  -22.2490   43.4760 C.3    34  VAL34       0.0020
     15  N        -27.6410  -19.1170   41.2530 N.am   35  LYS35      -0.1980
     16  CA       -26.6270  -18.5210   40.4210 C.3    35  LYS35       0.1596
     17  C        -25.7140  -17.5970   41.2310 C.2    35  LYS35       0.2287
     18  O        -24.4920  -17.6360   41.0790 O.2    35  LYS35      -0.2864
     19  CB       -27.2730  -17.7710   39.2770 C.3    35  LYS35       0.0298
     20  CG       -26.3380  -17.6420   38.1120 C.3    35  LYS35       0.0038
     21  CD       -27.0240  -17.1150   36.8750 C.3    35  LYS35       0.0206
     22  CE       -25.9860  -16.7960   35.7920 C.3    35  LYS35       0.1093
     23  NZ       -26.5610  -16.0420   34.6400 N.3    35  LYS35      -0.1314
     24  N        -23.3640  -19.4340   43.2810 N.3    38  GLY38      -0.1210
     25  CA       -22.3090  -19.9070   42.4140 C.3    38  GLY38       0.1956
     26  C        -21.2400  -18.8550   42.2070 C.2    38  GLY38       0.2611
     27  O        -20.0520  -19.0960   42.4370 O.2    38  GLY38      -0.2717
     28  N        -21.6750  -17.6760   41.7790 N.am   39  LEU39      -0.1979
     29  CA       -20.7550  -16.5980   41.4570 C.3    39  LEU39       0.1596
     30  C        -19.8480  -16.2720   42.6370 C.2    39  LEU39       0.2287
     31  O        -18.6390  -16.1120   42.4700 O.2    39  LEU39      -0.2864
     32  CB       -21.5300  -15.3620   40.9910 C.3    39  LEU39       0.0297
     33  CG       -22.0290  -15.3950   39.5370 C.3    39  LEU39       0.0022
     34  CD1      -23.2940  -14.5680   39.3340 C.3    39  LEU39       0.0001
     35  CD2      -20.9230  -14.9390   38.5890 C.3    39  LEU39       0.0001
     36  N        -19.1460  -18.2690   45.1000 N.3    41  LEU41      -0.1231
     37  CA       -18.2840  -19.4140   45.3550 C.3    41  LEU41       0.1693
     38  C        -17.0730  -19.2950   44.4650 C.2    41  LEU41       0.2591
     39  O        -15.9460  -19.5080   44.9050 O.2    41  LEU41      -0.2718
     40  CB       -18.9870  -20.7430   45.0910 C.3    41  LEU41       0.0284
     41  CG       -18.0610  -21.9750   45.0660 C.3    41  LEU41       0.0019
     42  CD1      -17.2420  -22.1130   46.3390 C.3    41  LEU41       0.0001
     43  CD2      -18.8460  -23.2490   44.8170 C.3    41  LEU41       0.0001
     44  N        -17.3060  -18.9360   43.2080 N.am   42  ARG42      -0.1980
     45  CA       -16.2010  -18.7540   42.2790 C.3    42  ARG42       0.1597
     46  C        -15.2250  -17.7070   42.8000 C.2    42  ARG42       0.2287
     47  O        -14.0190  -17.9330   42.7920 O.2    42  ARG42      -0.2864
     48  CB       -16.6970  -18.3600   40.8890 C.3    42  ARG42       0.0334
     49  CG       -15.5610  -18.1350   39.9010 C.3    42  ARG42       0.0492
     50  CD       -15.9680  -17.2280   38.7520 C.3    42  ARG42       0.2205
     51  NE       -14.8000  -16.7860   37.9980 N.pl3  42  ARG42      -0.0865
     52  CZ       -14.1580  -17.5510   37.1220 C.cat  42  ARG42       0.5346
     53  NH1      -14.5790  -18.7900   36.9040 N.pl3  42  ARG42       0.1354
     54  NH2      -13.0990  -17.0850   36.4710 N.pl3  42  ARG42       0.1354
     55  N        -13.1790  -19.4880   45.4430 N.3    45  ILE45      -0.1231
     56  CA       -12.2460  -20.4480   44.8610 C.3    45  ILE45       0.1692
     57  C        -11.0860  -19.7280   44.1840 C.2    45  ILE45       0.2592
     58  O         -9.9230  -20.1020   44.3530 O.2    45  ILE45      -0.2718
     59  CB       -12.9570  -21.3560   43.8370 C.3    45  ILE45       0.0266
     60  CG1      -13.5040  -22.6080   44.5260 C.3    45  ILE45       0.0019
     61  CG2      -12.0190  -21.7380   42.6970 C.3    45  ILE45       0.0020
     62  CD1      -14.3850  -23.4460   43.6240 C.3    45  ILE45       0.0001
     63  N        -11.4160  -18.6800   43.4340 N.am   46  GLY46      -0.1957
     64  CA       -10.4280  -17.9050   42.7130 C.3    46  GLY46       0.1869
     65  C         -9.3420  -17.4250   43.6450 C.2    46  GLY46       0.2309
     66  O         -8.1810  -17.7960   43.4880 O.2    46  GLY46      -0.2863
     67  N         -6.9140  -20.2360   44.8020 N.3    49  ASP49      -0.1239
     68  CA        -5.9660  -20.6750   43.7870 C.3    49  ASP49       0.1674
     69  C         -4.7990  -19.6880   43.7140 C.2    49  ASP49       0.2266
     70  O         -3.7110  -20.0280   43.2470 O.2    49  ASP49      -0.2867
     71  CB        -6.6580  -20.7910   42.4190 C.3    49  ASP49       0.1410
     72  CG        -7.5150  -22.0410   42.3010 C.2    49  ASP49       0.3668
     73  OD1       -7.7040  -22.7110   43.3380 O.co2  49  ASP49      -0.2456
     74  OD2       -7.9960  -22.3520   41.1810 O.co2  49  ASP49      -0.2456
     75  N         -7.0070  -28.3910   48.1010 N.3    64  GLU64      -0.1245
     76  CA        -7.5340  -28.7550   46.7900 C.3    64  GLU64       0.1567
     77  C         -8.6890  -29.7380   46.9440 C.2    64  GLU64       0.2260
     78  O         -9.5560  -29.8350   46.0730 O.2    64  GLU64      -0.2867
     79  CB        -6.4450  -29.3670   45.9010 C.3    64  GLU64       0.0388
     80  CG        -5.5690  -28.3550   45.1600 C.3    64  GLU64       0.1160
     81  CD        -4.7710  -28.9860   44.0170 C.2    64  GLU64       0.3649
     82  OE1       -4.8910  -30.2120   43.8000 O.co2  64  GLU64      -0.2457
     83  OE2       -4.0250  -28.2520   43.3310 O.co2  64  GLU64      -0.2457
     84  N        -11.9310  -27.7740   47.9420 N.3    67  GLN67      -0.1231
     85  CA       -12.3600  -27.0960   46.7260 C.3    67  GLN67       0.1698
     86  C        -13.2390  -28.0080   45.8940 C.2    67  GLN67       0.2592
     87  O        -14.3600  -27.6430   45.5410 O.2    67  GLN67      -0.2718
     88  CB       -11.1610  -26.6560   45.8960 C.3    67  GLN67       0.0381
     89  CG       -10.5290  -25.3720   46.3760 C.3    67  GLN67       0.0905
     90  CD        -9.3490  -24.9440   45.5220 C.2    67  GLN67       0.2608
     91  OE1       -8.5780  -25.7760   45.0380 O.2    67  GLN67      -0.2717
     92  NE2       -9.2040  -23.6390   45.3290 N.am   67  GLN67      -0.0878
     93  N        -12.7310  -29.2010   45.5920 N.am   68  LYS68      -0.1980
     94  CA       -13.4930  -30.1620   44.8060 C.3    68  LYS68       0.1596
     95  C        -14.8190  -30.4250   45.5040 C.2    68  LYS68       0.2287
     96  O        -15.8730  -30.5290   44.8690 O.2    68  LYS68      -0.2864
     97  CB       -12.7180  -31.4720   44.6240 C.3    68  LYS68       0.0298
     98  CG       -13.2340  -32.3420   43.4650 C.3    68  LYS68       0.0038
     99  CD       -12.7280  -33.7870   43.5280 C.3    68  LYS68       0.0206
    100  CE       -13.2790  -34.6150   42.3680 C.3    68  LYS68       0.1093
    101  NZ       -13.0660  -36.0800   42.5480 N.3    68  LYS68      -0.1314
    102  N        -17.4770  -27.9500   44.9050 N.3    71  ASN71      -0.1240
    103  CA       -18.0960  -28.1350   43.6040 C.3    71  ASN71       0.1653
    104  C        -19.1030  -29.2770   43.6060 C.2    71  ASN71       0.2266
    105  O        -20.1190  -29.2140   42.9240 O.2    71  ASN71      -0.2867
    106  CB       -17.0340  -28.3090   42.5280 C.3    71  ASN71       0.1155
    107  CG       -16.2650  -27.0260   42.2800 C.2    71  ASN71       0.2627
    108  OD1      -16.5080  -26.0140   42.9350 O.2    71  ASN71      -0.2716
    109  ND2      -15.3390  -27.0570   41.3340 N.am   71  ASN71      -0.0877
    110  N        -21.9690  -27.5460   45.4120 N.3    74  LEU74      -0.1231
    111  CA       -22.6530  -26.6650   44.4890 C.3    74  LEU74       0.1693
    112  C        -23.4770  -27.4950   43.5220 C.2    74  LEU74       0.2591
    113  O        -24.6510  -27.2100   43.2890 O.2    74  LEU74      -0.2718
    114  CB       -21.6530  -25.8160   43.7170 C.3    74  LEU74       0.0284
    115  CG       -22.2990  -24.9260   42.6530 C.3    74  LEU74       0.0019
    116  CD1      -23.4830  -24.1230   43.2130 C.3    74  LEU74       0.0001
    117  CD2      -21.2570  -24.0070   42.0430 C.3    74  LEU74       0.0001
    118  N        -22.8500  -28.5370   42.9820 N.am   75  ALA75      -0.1980
    119  CA       -23.4830  -29.4170   42.0100 C.3    75  ALA75       0.1597
    120  C        -24.7290  -30.0920   42.5660 C.2    75  ALA75       0.2287
    121  O        -25.7140  -30.2730   41.8480 O.2    75  ALA75      -0.2864
    122  CB       -22.5050  -30.4430   41.5360 C.3    75  ALA75       0.0319
    123  N        -27.4500  -27.4170   42.8360 N.3    78  ILE78      -0.1245
    124  CA       -28.0630  -27.1480   41.5440 C.3    78  ILE78       0.1561
    125  C        -29.0860  -28.2160   41.2180 C.2    78  ILE78       0.2260
    126  O        -30.1580  -27.9440   40.6740 O.2    78  ILE78      -0.2867
    127  CB       -27.0120  -27.1380   40.4330 C.3    78  ILE78       0.0252
    128  CG1      -25.8570  -26.2160   40.8050 C.3    78  ILE78       0.0019
    129  CG2      -27.6220  -26.6740   39.1340 C.3    78  ILE78       0.0019
    130  CD1      -24.8370  -26.0950   39.7190 C.3    78  ILE78       0.0001
    131  N        -33.2200  -27.9300   40.8250 N.3    82  ARG82      -0.1245
    132  CA       -33.9550  -28.3630   39.6320 C.3    82  ARG82       0.1563
    133  C        -35.1640  -29.2090   40.0010 C.2    82  ARG82       0.2260
    134  O        -36.2380  -29.1110   39.3990 O.2    82  ARG82      -0.2867
    135  CB       -33.0400  -29.1900   38.7320 C.3    82  ARG82       0.0307
    136  CG       -32.7230  -28.5630   37.3760 C.3    82  ARG82       0.0489
    137  CD       -31.4160  -27.7600   37.4280 C.3    82  ARG82       0.2205
    138  NE       -31.0590  -27.1200   36.1550 N.pl3  82  ARG82      -0.0865
    139  CZ       -31.6420  -26.0190   35.6730 C.cat  82  ARG82       0.5346
    140  NH1      -32.6360  -25.4370   36.3400 N.pl3  82  ARG82       0.1354
    141  NH2      -31.2410  -25.4990   34.5150 N.pl3  82  ARG82       0.1354
@<TRIPOS>BOND
     1   141   139    1
     2    23    22    1
     3   139   138    2
     4   139   140    1
     5    22    21    1
     6   138   137    1
     7    54    52    1
     8    21    20    1
     9    53    52    1
    10    52    51    2
    11     6     5    1
    12   136   137    1
    13   136   135    1
    14     7     5    1
    15    51    50    1
    16    20    19    1
    17     5     2    1
    18    35    33    1
    19   135   132    1
    20    50    49    1
    21   129   127    1
    22    19    16    1
    23    34    33    1
    24   134   133    2
    25    33    32    1
    26     2     3    1
    27     2     1    1
    28   132   133    1
    29   132   131    1
    30   130   128    1
    31     3     4    2
    32    49    48    1
    33    16    17    1
    34    16    15    1
    35   127   128    1
    36   127   124    1
    37   126   125    2
    38    48    45    1
    39    32    29    1
    40    18    17    2
    41    74    72   ar
    42   125   124    1
    43    15    10   am
    44   109   107   am
    45    29    28    1
    46    29    30    1
    47   122   119    1
    48   124   123    1
    49    28    26   am
    50   121   120    2
    51   119   120    1
    52   119   118    1
    53   117   115    1
    54    26    25    1
    55    26    27    2
    56    45    46    1
    57    45    44    1
    58   107   106    1
    59   107   108    2
    60    10    11    2
    61    10     9    1
    62    72    71    1
    63    72    73   ar
    64   100   101    1
    65   100    99    1
    66    25    24    1
    67    71    68    1
    68    13    12    1
    69    31    30    2
    70   106   103    1
    71    12     9    1
    72    12    14    1
    73   115   116    1
    74   115   114    1
    75    61    59    1
    76    64    63    1
    77    64    65    1
    78    47    46    2
    79   105   104    2
    80   118   112   am
    81     9     8    1
    82    44    38   am
    83    70    69    2
    84   113   112    2
    85    83    81   ar
    86    63    57   am
    87    98    99    1
    88    98    97    1
    89    66    65    2
    90   112   111    1
    91   103   104    1
    92   103   102    1
    93    62    60    1
    94    69    68    1
    95   114   111    1
    96    68    67    1
    97    82    81   ar
    98    59    60    1
    99    59    56    1
   100    81    80    1
   101    57    58    2
   102    57    56    1
   103    38    39    2
   104    38    37    1
   105   111   110    1
   106    97    94    1
   107    94    95    1
   108    94    93    1
   109    43    41    1
   110    56    55    1
   111    96    95    2
   112    91    90    2
   113    41    40    1
   114    41    42    1
   115    40    37    1
   116    36    37    1
   117    80    79    1
   118    92    90   am
   119    90    89    1
   120    87    86    2
   121    93    86   am
   122    86    85    1
   123    88    89    1
   124    88    85    1
   125    79    76    1
   126    78    77    2
   127    85    84    1
   128    76    77    1
   129    76    75    1
