@<TRIPOS>MOLECULE
tmp/3u3fD00.pdb
 148 137 0 0 0
SMALL
GASTEIGER

@<TRIPOS>ATOM
      1  N        -41.0510   12.5160   82.9800 N.3    31  VAL31      -0.1245
      2  CA       -41.0570   11.2630   82.2370 C.3    31  VAL31       0.1561
      3  C        -39.8780   10.3500   82.5590 C.2    31  VAL31       0.2260
      4  O        -40.0750    9.1870   82.9400 O.2    31  VAL31      -0.2867
      5  CB       -41.0020   11.5060   80.7360 C.3    31  VAL31       0.0252
      6  CG1      -41.3090   10.2140   80.0140 C.3    31  VAL31       0.0019
      7  CG2      -41.9770   12.6090   80.3430 C.3    31  VAL31       0.0019
      8  N        -40.2620    8.5360   85.8750 N.3    34  VAL34      -0.1231
      9  CA       -41.2660    7.4930   85.8400 C.3    34  VAL34       0.1692
     10  C        -40.7650    6.3620   84.9680 C.2    34  VAL34       0.2591
     11  O        -40.9940    5.1800   85.2330 O.2    34  VAL34      -0.2718
     12  CB       -42.5770    8.0380   85.2800 C.3    34  VAL34       0.0266
     13  CG1      -43.6250    6.9330   85.1640 C.3    34  VAL34       0.0020
     14  CG2      -43.0780    9.1540   86.1670 C.3    34  VAL34       0.0020
     15  N        -40.0560    6.7290   83.9190 N.am   35  LYS35      -0.1980
     16  CA       -39.4300    5.7160   83.1010 C.3    35  LYS35       0.1596
     17  C        -38.5150    4.7990   83.9100 C.2    35  LYS35       0.2287
     18  O        -38.5570    3.5850   83.7320 O.2    35  LYS35      -0.2864
     19  CB       -38.6320    6.3620   81.9990 C.3    35  LYS35       0.0298
     20  CG       -38.7330    5.5820   80.7420 C.3    35  LYS35       0.0038
     21  CD       -38.0010    6.2350   79.6170 C.3    35  LYS35       0.0206
     22  CE       -37.6430    5.1770   78.5880 C.3    35  LYS35       0.1093
     23  NZ       -36.8040    5.7190   77.4980 N.3    35  LYS35      -0.1314
     24  N        -40.4840    2.4290   85.9220 N.3    38  GLY38      -0.1210
     25  CA       -40.9000    1.3770   85.0210 C.3    38  GLY38       0.1956
     26  C        -39.7810    0.3710   84.8390 C.2    38  GLY38       0.2611
     27  O        -39.9400   -0.8270   85.1040 O.2    38  GLY38      -0.2717
     28  N        -38.6290    0.8720   84.4090 N.am   39  LEU39      -0.1979
     29  CA       -37.4970    0.0060   84.1110 C.3    39  LEU39       0.1596
     30  C        -37.1390   -0.9380   85.2680 C.2    39  LEU39       0.2287
     31  O        -36.9070   -2.1290   85.0410 O.2    39  LEU39      -0.2864
     32  CB       -36.2890    0.8290   83.6480 C.3    39  LEU39       0.0297
     33  CG       -36.2930    1.2580   82.1760 C.3    39  LEU39       0.0022
     34  CD1      -35.3450    2.4300   81.9120 C.3    39  LEU39       0.0001
     35  CD2      -35.9440    0.0690   81.2940 C.3    39  LEU39       0.0001
     36  N        -39.1790   -1.7590   87.7180 N.3    41  LEU41      -0.1231
     37  CA       -40.3100   -2.6260   87.9840 C.3    41  LEU41       0.1693
     38  C        -40.1350   -3.8410   87.1110 C.2    41  LEU41       0.2591
     39  O        -40.2050   -4.9730   87.5840 O.2    41  LEU41      -0.2718
     40  CB       -41.6370   -1.9620   87.6490 C.3    41  LEU41       0.0284
     41  CG       -42.8210   -2.9410   87.7090 C.3    41  LEU41       0.0019
     42  CD1      -42.7960   -3.7510   88.9870 C.3    41  LEU41       0.0001
     43  CD2      -44.1410   -2.2120   87.5620 C.3    41  LEU41       0.0001
     44  N        -39.8650   -3.5990   85.8330 N.am   42  ARG42      -0.1980
     45  CA       -39.6760   -4.6900   84.8950 C.3    42  ARG42       0.1597
     46  C        -38.6640   -5.6880   85.4260 C.2    42  ARG42       0.2287
     47  O        -38.9130   -6.8890   85.4230 O.2    42  ARG42      -0.2864
     48  CB       -39.2230   -4.1760   83.5350 C.3    42  ARG42       0.0334
     49  CG       -39.0670   -5.2930   82.5210 C.3    42  ARG42       0.0492
     50  CD       -39.0190   -4.7880   81.0890 C.3    42  ARG42       0.2205
     51  NE       -38.9520   -5.9100   80.1580 N.pl3  42  ARG42      -0.0865
     52  CZ       -37.9250   -6.7510   80.0890 C.cat  42  ARG42       0.5346
     53  NH1      -36.8840   -6.5890   80.9000 N.pl3  42  ARG42       0.1354
     54  NH2      -37.9380   -7.7530   79.2160 N.pl3  42  ARG42       0.1354
     55  N        -40.2850   -7.6760   88.1160 N.3    45  ILE45      -0.1231
     56  CA       -41.2470   -8.6070   87.5300 C.3    45  ILE45       0.1692
     57  C        -40.5220   -9.7960   86.9050 C.2    45  ILE45       0.2592
     58  O        -40.8830  -10.9530   87.1380 O.2    45  ILE45      -0.2718
     59  CB       -42.1290   -7.9270   86.4560 C.3    45  ILE45       0.0266
     60  CG1      -43.3410   -7.2580   87.0970 C.3    45  ILE45       0.0019
     61  CG2      -42.6100   -8.9390   85.4320 C.3    45  ILE45       0.0020
     62  CD1      -44.1550   -6.4460   86.1090 C.3    45  ILE45       0.0001
     63  N        -39.4860   -9.4970   86.1260 N.am   46  GLY46      -0.1957
     64  CA       -38.7210  -10.5210   85.4460 C.3    46  GLY46       0.1869
     65  C        -38.2150  -11.5800   86.4020 C.2    46  GLY46       0.2309
     66  O        -38.4850  -12.7650   86.2240 O.2    46  GLY46      -0.2863
     67  N        -41.0500  -14.0580   87.4770 N.3    49  ASP49      -0.1239
     68  CA       -41.4840  -15.0280   86.4730 C.3    49  ASP49       0.1674
     69  C        -40.5260  -16.2190   86.3670 C.2    49  ASP49       0.2266
     70  O        -40.8970  -17.2840   85.8620 O.2    49  ASP49      -0.2867
     71  CB       -41.6500  -14.3410   85.1110 C.3    49  ASP49       0.1410
     72  CG       -42.9340  -13.5380   85.0180 C.2    49  ASP49       0.3668
     73  OD1      -43.6250  -13.4230   86.0530 O.co2  49  ASP49      -0.2456
     74  OD2      -43.2540  -13.0240   83.9210 O.co2  49  ASP49      -0.2456
     75  N        -48.7830   -8.8930   90.7880 N.3    67  GLN67      -0.1231
     76  CA       -48.0530   -8.5200   89.5840 C.3    67  GLN67       0.1698
     77  C        -48.8850   -7.6400   88.6870 C.2    67  GLN67       0.2592
     78  O        -48.4770   -6.5310   88.3500 O.2    67  GLN67      -0.2718
     79  CB       -47.6440   -9.7560   88.8020 C.3    67  GLN67       0.0381
     80  CG       -46.2360  -10.2100   89.0790 C.3    67  GLN67       0.0905
     81  CD       -45.9230  -11.5300   88.4080 C.2    67  GLN67       0.2608
     82  OE1      -46.7390  -12.4540   88.4250 O.2    67  GLN67      -0.2717
     83  NE2      -44.7430  -11.6250   87.8010 N.am   67  GLN67      -0.0878
     84  N        -50.0580   -8.1340   88.3030 N.am   68  LYS68      -0.1980
     85  CA       -50.9390   -7.3620   87.4430 C.3    68  LYS68       0.1596
     86  C        -51.2700   -6.0470   88.1450 C.2    68  LYS68       0.2287
     87  O        -51.3460   -4.9860   87.5160 O.2    68  LYS68      -0.2864
     88  CB       -52.2170   -8.1430   87.1150 C.3    68  LYS68       0.0298
     89  CG       -52.9960   -7.5740   85.9230 C.3    68  LYS68       0.0038
     90  CD       -54.4820   -7.9450   85.9610 C.3    68  LYS68       0.0206
     91  CE       -55.2640   -7.2020   84.8830 C.3    68  LYS68       0.1093
     92  NZ       -56.7350   -7.3040   85.0890 N.3    68  LYS68      -0.1314
     93  N        -48.8160   -3.4160   87.6220 N.3    71  ASN71      -0.1240
     94  CA       -48.9480   -2.7760   86.3300 C.3    71  ASN71       0.1653
     95  C        -50.0910   -1.7830   86.3360 C.2    71  ASN71       0.2266
     96  O        -50.0830   -0.8080   85.5840 O.2    71  ASN71      -0.2867
     97  CB       -49.0860   -3.8060   85.2170 C.3    71  ASN71       0.1155
     98  CG       -47.8370   -4.6460   85.0650 C.2    71  ASN71       0.2627
     99  OD1      -46.8280   -4.3910   85.7190 O.2    71  ASN71      -0.2716
    100  ND2      -47.8900   -5.6450   84.1990 N.am   71  ASN71      -0.0877
    101  N        -48.4070    1.2430   88.1180 N.3    74  LEU74      -0.1231
    102  CA       -47.5610    1.9050   87.1520 C.3    74  LEU74       0.1693
    103  C        -48.4450    2.6480   86.1690 C.2    74  LEU74       0.2591
    104  O        -48.2700    3.8430   85.9320 O.2    74  LEU74      -0.2718
    105  CB       -46.7140    0.8830   86.4110 C.3    74  LEU74       0.0284
    106  CG       -45.8130    1.4820   85.3330 C.3    74  LEU74       0.0019
    107  CD1      -44.9590    2.6320   85.8840 C.3    74  LEU74       0.0001
    108  CD2      -44.9410    0.4020   84.6990 C.3    74  LEU74       0.0001
    109  N        -49.4130    1.9280   85.6130 N.am   75  ALA75      -0.1980
    110  CA       -50.3210    2.4880   84.6260 C.3    75  ALA75       0.1597
    111  C        -50.9970    3.7510   85.1440 C.2    75  ALA75       0.2287
    112  O        -51.1830    4.7150   84.4030 O.2    75  ALA75      -0.2864
    113  CB       -51.3450    1.4650   84.2330 C.3    75  ALA75       0.0319
    114  N        -48.3730    6.6430   85.5330 N.3    78  ILE78      -0.1231
    115  CA       -48.1690    7.3050   84.2550 C.3    78  ILE78       0.1692
    116  C        -49.2630    8.3170   83.9630 C.2    78  ILE78       0.2592
    117  O        -48.9910    9.4220   83.4970 O.2    78  ILE78      -0.2718
    118  CB       -48.1430    6.2960   83.1100 C.3    78  ILE78       0.0266
    119  CG1      -47.1580    5.1720   83.4160 C.3    78  ILE78       0.0019
    120  CG2      -47.7590    6.9800   81.8210 C.3    78  ILE78       0.0020
    121  CD1      -46.9880    4.2010   82.2860 C.3    78  ILE78       0.0001
    122  N        -50.5070    7.9270   84.2210 N.am   79  ASN79      -0.1974
    123  CA       -51.6290    8.8200   83.9790 C.3    79  ASN79       0.1688
    124  C        -51.4830   10.0840   84.8230 C.2    79  ASN79       0.2292
    125  O        -51.4960   11.2050   84.3010 O.2    79  ASN79      -0.2864
    126  CB       -52.9610    8.0960   84.2210 C.3    79  ASN79       0.1181
    127  CG       -53.4170    7.2770   82.9980 C.2    79  ASN79       0.2629
    128  OD1      -54.0800    7.8060   82.0980 O.2    79  ASN79      -0.2716
    129  ND2      -53.0610    5.9890   82.9660 N.am   79  ASN79      -0.0877
    130  N        -48.8140   11.2300   86.0260 N.3    81  MET81      -0.1230
    131  CA       -47.6770   11.9990   85.5570 C.3    81  MET81       0.1702
    132  C        -48.0820   12.8740   84.3930 C.2    81  MET81       0.2592
    133  O        -47.7250   14.0530   84.3320 O.2    81  MET81      -0.2718
    134  CB       -46.5430   11.0790   85.1210 C.3    81  MET81       0.0401
    135  CG       -45.3830   11.8050   84.4510 C.3    81  MET81       0.0596
    136  SD       -45.1830   11.4130   82.6920 S.3    81  MET81      -0.1393
    137  CE       -45.0110    9.6210   82.7300 C.3    81  MET81       0.0692
    138  N        -48.8290   12.2820   83.4640 N.am   82  ARG82      -0.1980
    139  CA       -49.2020   12.9760   82.2450 C.3    82  ARG82       0.1597
    140  C        -50.1110   14.1360   82.6030 C.2    82  ARG82       0.2287
    141  O        -50.0670   15.2000   81.9920 O.2    82  ARG82      -0.2864
    142  CB       -49.8570   12.0160   81.2510 C.3    82  ARG82       0.0334
    143  CG       -48.8810   11.0130   80.6140 C.3    82  ARG82       0.0492
    144  CD       -49.1610   10.7870   79.1150 C.3    82  ARG82       0.2205
    145  NE       -48.1590    9.9320   78.4660 N.pl3  82  ARG82      -0.0865
    146  CZ       -46.9470   10.3420   78.0860 C.cat  82  ARG82       0.5346
    147  NH1      -46.5680   11.6000   78.2910 N.pl3  82  ARG82       0.1354
    148  NH2      -46.1060    9.4930   77.5060 N.pl3  82  ARG82       0.1354
@<TRIPOS>BOND
     1    23    22    1
     2   148   146    1
     3   146   147    1
     4   146   145    2
     5   145   144    1
     6    22    21    1
     7   144   143    1
     8    54    52    1
     9    21    20    1
    10     6     5    1
    11    52    51    2
    12    52    53    1
    13    51    50    1
    14     7     5    1
    15   143   142    1
    16     5     2    1
    17    20    19    1
    18    50    49    1
    19   142   139    1
    20    35    33    1
    21   120   118    1
    22    34    33    1
    23   141   140    2
    24    19    16    1
    25   128   127    2
    26    33    32    1
    27     2     3    1
    28     2     1    1
    29   139   140    1
    30   139   138    1
    31   121   119    1
    32    49    48    1
    33     3     4    2
    34   136   137    1
    35   136   135    1
    36   129   127   am
    37   127   126    1
    38    16    17    1
    39    16    15    1
    40   118   119    1
    41   118   115    1
    42   138   132   am
    43   117   116    2
    44    48    45    1
    45    32    29    1
    46    18    17    2
    47    15    10   am
    48    74    72   ar
    49   116   122   am
    50   116   115    1
    51   123   122    1
    52   123   126    1
    53   123   124    1
    54    29    28    1
    55    29    30    1
    56   100    98   am
    57   113   110    1
    58   115   114    1
    59   125   124    2
    60   133   132    2
    61   132   131    1
    62   112   111    2
    63    28    26   am
    64   135   134    1
    65   110   111    1
    66   110   109    1
    67   108   106    1
    68    26    25    1
    69    26    27    2
    70    91    92    1
    71    91    90    1
    72    45    46    1
    73    45    44    1
    74    10    11    2
    75    10     9    1
    76    72    71    1
    77    72    73   ar
    78    25    24    1
    79    31    30    2
    80    98    97    1
    81    98    99    2
    82    71    68    1
    83   134   131    1
    84    13    12    1
    85    97    94    1
    86    12     9    1
    87    12    14    1
    88   106   107    1
    89   106   105    1
    90    47    46    2
    91    61    59    1
    92    64    63    1
    93    64    65    1
    94   131   130    1
    95    96    95    2
    96   109   103   am
    97    44    38   am
    98     9     8    1
    99    70    69    2
   100    89    90    1
   101    89    88    1
   102   104   103    2
   103    62    60    1
   104    63    57   am
   105   103   102    1
   106    66    65    2
   107    94    95    1
   108    94    93    1
   109    69    68    1
   110   105   102    1
   111    59    60    1
   112    59    56    1
   113    68    67    1
   114    57    58    2
   115    57    56    1
   116    38    39    2
   117    38    37    1
   118    88    85    1
   119   102   101    1
   120    85    86    1
   121    85    84    1
   122    87    86    2
   123    56    55    1
   124    43    41    1
   125    40    41    1
   126    40    37    1
   127    41    42    1
   128    36    37    1
   129    83    81   am
   130    84    77   am
   131    78    77    2
   132    81    82    2
   133    81    80    1
   134    77    76    1
   135    79    80    1
   136    79    76    1
   137    76    75    1
