@<TRIPOS>MOLECULE
tmp/3u3hA00.pdb
 158 150 0 0 0
SMALL
GASTEIGER

@<TRIPOS>ATOM
      1  N         36.0720   74.1220   63.0590 N.3    15  TRP15      -0.1241
      2  CA        37.1650   74.2920   62.1140 C.3    15  TRP15       0.1605
      3  C         38.2460   75.2690   62.5870 C.2    15  TRP15       0.2264
      4  O         39.2410   75.4560   61.8910 O.2    15  TRP15      -0.2867
      5  CB        36.5900   74.7870   60.7810 C.3    15  TRP15       0.0550
      6  CG        36.0490   76.1860   60.8650 C.ar   15  TRP15       0.0003
      7  CD1       36.7530   77.3210   60.6170 C.ar   15  TRP15       0.0946
      8  CD2       34.7170   76.6140   61.2340 C.ar   15  TRP15       0.0152
      9  NE1       35.9700   78.4180   60.7950 N.ar   15  TRP15      -0.2442
     10  CE2       34.7170   78.0220   61.1790 C.ar   15  TRP15       0.0810
     11  CE3       33.5280   75.9530   61.5750 C.ar   15  TRP15       0.0012
     12  CZ2       33.5870   78.7860   61.4490 C.ar   15  TRP15       0.0191
     13  CZ3       32.4120   76.7150   61.8570 C.ar   15  TRP15       0.0001
     14  CH2       32.4450   78.1140   61.7900 C.ar   15  TRP15       0.0015
     15  N         30.4750   73.7370   59.9620 N.3    53  HIS53      -0.1241
     16  CA        30.0470   73.4550   58.5890 C.3    53  HIS53       0.1621
     17  C         29.5990   71.9990   58.5320 C.2    53  HIS53       0.2264
     18  O         30.1950   71.1500   59.2040 O.2    53  HIS53      -0.2867
     19  CB        31.1940   73.5760   57.5630 C.3    53  HIS53       0.0745
     20  CG        31.8700   74.9080   57.5360 C.ar   53  HIS53       0.0817
     21  ND1       32.8650   75.2520   58.4190 N.ar   53  HIS53      -0.2268
     22  CD2       31.7150   75.9740   56.7130 C.ar   53  HIS53       0.1154
     23  CE1       33.2620   76.4870   58.1660 C.ar   53  HIS53       0.1986
     24  NE2       32.5850   76.9470   57.1300 N.ar   53  HIS53      -0.2212
     25  N         26.4980   76.1820   59.3350 N.3    89  THR89      -0.1203
     26  CA        26.7430   76.7070   58.0100 C.3    89  THR89       0.1994
     27  C         27.0860   75.5510   57.0620 C.2    89  THR89       0.2618
     28  O         27.2420   74.4010   57.4920 O.2    89  THR89      -0.2717
     29  CB        27.8400   77.8040   58.0760 C.3    89  THR89       0.1784
     30  OG1       28.0020   78.4110   56.7960 O.3    89  THR89      -0.2211
     31  CG2       29.1760   77.2490   58.5350 C.3    89  THR89       0.0376
     32  N         27.1870   75.8650   55.7790 N.am   90  THR90      -0.1952
     33  CA        27.4730   74.8780   54.7400 C.3    90  THR90       0.1897
     34  C         28.8830   75.1230   54.2200 C.2    90  THR90       0.2313
     35  O         29.2880   76.2750   54.0670 O.2    90  THR90      -0.2863
     36  CB        26.5270   75.0390   53.5290 C.3    90  THR90       0.1794
     37  OG1       25.2290   75.4620   53.9480 O.3    90  THR90      -0.2208
     38  CG2       26.4210   73.7510   52.7210 C.3    90  THR90       0.0378
     39  N         32.8010   75.6900   49.5850 N.3    93  PHE93      -0.1241
     40  CA        34.0780   76.2180   49.1240 C.3    93  PHE93       0.1605
     41  C         35.2210   75.2110   48.9940 C.2    93  PHE93       0.2264
     42  O         36.1100   75.4470   48.1770 O.2    93  PHE93      -0.2867
     43  CB        34.5200   77.4280   49.9720 C.3    93  PHE93       0.0534
     44  CG        34.4880   77.1660   51.4550 C.ar   93  PHE93      -0.0203
     45  CD1       35.5470   76.5610   52.1040 C.ar   93  PHE93      -0.0042
     46  CD2       33.3700   77.4970   52.1920 C.ar   93  PHE93      -0.0042
     47  CE1       35.4960   76.3030   53.4570 C.ar   93  PHE93      -0.0003
     48  CE2       33.3170   77.2390   53.5530 C.ar   93  PHE93      -0.0003
     49  CZ        34.3820   76.6400   54.1790 C.ar   93  PHE93      -0.0000
     50  N         24.5530   80.5220   58.8600 N.3   134  VAL134     -0.1245
     51  CA        25.4670   81.4360   58.1790 C.3   134  VAL134      0.1561
     52  C         25.6990   80.9760   56.7500 C.2   134  VAL134      0.2260
     53  O         25.7410   79.7830   56.4500 O.2   134  VAL134     -0.2867
     54  CB        26.7960   81.5400   58.9660 C.3   134  VAL134      0.0252
     55  CG1       27.9550   82.0910   58.1300 C.3   134  VAL134      0.0019
     56  CG2       26.5890   82.4070   60.2090 C.3   134  VAL134      0.0019
     57  N         28.6400   81.9310   53.9670 N.3   136  TRP136     -0.1241
     58  CA        29.8310   82.6220   53.4920 C.3   136  TRP136      0.1605
     59  C         30.1280   82.1270   52.0870 C.2   136  TRP136      0.2264
     60  O         30.6190   81.0070   51.8920 O.2   136  TRP136     -0.2867
     61  CB        31.0420   82.3850   54.4010 C.3   136  TRP136      0.0550
     62  CG        32.2920   82.9300   53.7900 C.ar  136  TRP136      0.0003
     63  CD1       32.5200   84.2180   53.3990 C.ar  136  TRP136      0.0946
     64  CD2       33.4760   82.1980   53.4560 C.ar  136  TRP136      0.0152
     65  NE1       33.7630   84.3290   52.8370 N.ar  136  TRP136     -0.2442
     66  CE2       34.3830   83.1100   52.8750 C.ar  136  TRP136      0.0810
     67  CE3       33.8570   80.8630   53.5950 C.ar  136  TRP136      0.0012
     68  CZ2       35.6500   82.7220   52.4170 C.ar  136  TRP136      0.0191
     69  CZ3       35.1080   80.4780   53.1470 C.ar  136  TRP136      0.0001
     70  CH2       35.9900   81.4010   52.5630 C.ar  136  TRP136      0.0015
     71  N         27.6920   86.3660   55.2810 N.3   180  GLU180     -0.1245
     72  CA        29.0170   86.7750   55.7050 C.3   180  GLU180      0.1567
     73  C         29.7850   87.3770   54.5290 C.2   180  GLU180      0.2260
     74  O         30.2000   86.6540   53.6230 O.2   180  GLU180     -0.2867
     75  CB        29.7610   85.5690   56.2610 C.3   180  GLU180      0.0388
     76  CG        31.1400   85.9100   56.7740 C.3   180  GLU180      0.1160
     77  CD        31.7410   84.8070   57.5930 C.2   180  GLU180      0.3649
     78  OE1       30.9990   83.8570   57.9370 O.co2 180  GLU180     -0.2457
     79  OE2       32.9500   84.9130   57.9170 O.co2 180  GLU180     -0.2457
     80  N         33.0420   89.0740   52.5690 N.3   182  LYS182     -0.1245
     81  CA        34.5100   89.0350   52.5890 C.3   182  LYS182      0.1561
     82  C         34.9690   89.6690   51.2790 C.2   182  LYS182      0.2260
     83  O         34.3450   89.4200   50.2540 O.2   182  LYS182     -0.2867
     84  CB        35.0260   87.6060   52.6650 C.3   182  LYS182      0.0271
     85  CG        36.5230   87.4930   52.9340 C.3   182  LYS182      0.0035
     86  CD        36.9710   86.0440   53.0110 C.3   182  LYS182      0.0206
     87  CE        38.3670   85.8680   53.4920 C.3   182  LYS182      0.1093
     88  NZ        38.5660   84.3630   53.6740 N.3   182  LYS182     -0.1314
     89  N         26.5640   88.3660   59.0960 N.3   214  ASN214     -0.1240
     90  CA        27.5510   87.7710   59.9900 C.3   214  ASN214      0.1653
     91  C         28.9200   88.3790   59.6580 C.2   214  ASN214      0.2266
     92  O         29.7220   87.7700   58.9550 O.2   214  ASN214     -0.2867
     93  CB        27.6730   86.2570   59.8070 C.3   214  ASN214      0.1155
     94  CG        28.5910   85.6350   60.8440 C.2   214  ASN214      0.2627
     95  OD1       28.5000   85.9820   62.0210 O.2   214  ASN214     -0.2716
     96  ND2       29.4680   84.7280   60.4370 N.am  214  ASN214     -0.0877
     97  N         32.7820   89.5830   59.9120 N.3   216  GLU216     -0.1245
     98  CA        33.9900   89.0630   60.5280 C.3   216  GLU216      0.1567
     99  C         35.0280   90.1740   60.6300 C.2   216  GLU216      0.2260
    100  O         35.3040   90.8610   59.6430 O.2   216  GLU216     -0.2867
    101  CB        34.5540   87.8800   59.7250 C.3   216  GLU216      0.0388
    102  CG        35.8330   87.3070   60.3230 C.3   216  GLU216      0.1160
    103  CD        36.2490   86.0040   59.6960 C.2   216  GLU216      0.3649
    104  OE1       35.4010   85.1230   59.5650 O.co2 216  GLU216     -0.2457
    105  OE2       37.4250   85.8620   59.3280 O.co2 216  GLU216     -0.2457
    106  N         37.7090   90.3550   57.9420 N.3   219  HIS219     -0.1241
    107  CA        37.2270   90.5560   56.5780 C.3   219  HIS219      0.1621
    108  C         37.0910   92.0440   56.2560 C.2   219  HIS219      0.2264
    109  O         37.5460   92.4960   55.2060 O.2   219  HIS219     -0.2867
    110  CB        35.9000   89.8660   56.3640 C.3   219  HIS219      0.0745
    111  CG        35.9780   88.3790   56.3900 C.ar  219  HIS219      0.0817
    112  ND1       34.8740   87.6050   56.0990 N.ar  219  HIS219     -0.2268
    113  CD2       36.9660   87.5160   56.7040 C.ar  219  HIS219      0.1154
    114  CE1       35.1750   86.3310   56.2150 C.ar  219  HIS219      0.1986
    115  NE2       36.4350   86.2420   56.5890 N.ar  219  HIS219     -0.2212
    116  N         31.5390   87.1670   63.7340 N.3   244  ASP244     -0.1239
    117  CA        32.7600   86.3750   63.7870 C.3   244  ASP244      0.1674
    118  C         33.9040   87.2660   64.2930 C.2   244  ASP244      0.2266
    119  O         34.2430   88.2870   63.6840 O.2   244  ASP244     -0.2867
    120  CB        33.1570   85.8380   62.3990 C.3   244  ASP244      0.1410
    121  CG        32.4270   84.5710   61.9390 C.2   244  ASP244      0.3668
    122  OD1       31.5630   84.0440   62.6490 O.co2 244  ASP244     -0.2456
    123  OD2       32.7390   84.1280   60.8080 O.co2 244  ASP244     -0.2456
    124  N         43.9180   86.8040   54.8160 N.3   254  ASP254     -0.1239
    125  CA        43.0640   86.5740   55.9950 C.3   254  ASP254      0.1674
    126  C         43.8440   85.8010   57.0820 C.2   254  ASP254      0.2266
    127  O         44.0230   84.5830   56.9680 O.2   254  ASP254     -0.2867
    128  CB        41.8550   85.7660   55.4640 C.3   254  ASP254      0.1410
    129  CG        40.7420   85.5610   56.4540 C.2   254  ASP254      0.3668
    130  OD1       40.4730   86.4430   57.2960 O.co2 254  ASP254     -0.2456
    131  OD2       40.0850   84.4990   56.2960 O.co2 254  ASP254     -0.2456
    132  N         31.1510   84.7200   68.8130 N.3   284  HIS284     -0.1241
    133  CA        31.7060   83.5780   68.0940 C.3   284  HIS284      0.1621
    134  C         33.0890   83.9100   67.5650 C.2   284  HIS284      0.2264
    135  O         33.2750   84.9600   66.9490 O.2   284  HIS284     -0.2867
    136  CB        30.7890   83.2340   66.9160 C.3   284  HIS284      0.0745
    137  CG        31.2460   82.0730   66.0750 C.ar  284  HIS284      0.0817
    138  ND1       31.6790   82.2130   64.7790 N.ar  284  HIS284     -0.2268
    139  CD2       31.2790   80.7390   66.3300 C.ar  284  HIS284      0.1154
    140  CE1       31.9600   81.0160   64.2800 C.ar  284  HIS284      0.1986
    141  NE2       31.7210   80.0990   65.1990 N.ar  284  HIS284     -0.2212
    142  N         35.9130   82.9900   64.9500 N.3   286  ASP286     -0.1239
    143  CA        36.3140   82.3310   63.7130 C.3   286  ASP286      0.1674
    144  C         37.7880   82.6660   63.5190 C.2   286  ASP286      0.2266
    145  O         38.1350   83.6880   62.9600 O.2   286  ASP286     -0.2867
    146  CB        35.4910   82.7900   62.5220 C.3   286  ASP286      0.1410
    147  CG        35.8040   81.9960   61.2720 C.2   286  ASP286      0.3668
    148  OD1       36.7070   81.1330   61.3200 O.co2 286  ASP286     -0.2456
    149  OD2       35.1440   82.2200   60.2410 O.co2 286  ASP286     -0.2456
    150  N         42.1360   80.9740   63.6920 N.3   288  LYS288     -0.1245
    151  CA        43.0250   79.8510   63.5080 C.3   288  LYS288      0.1561
    152  C         44.2000   79.9770   64.4680 C.2   288  LYS288      0.2260
    153  O         44.9830   80.9140   64.3740 O.2   288  LYS288     -0.2867
    154  CB        43.5680   79.8540   62.0810 C.3   288  LYS288      0.0271
    155  CG        42.5260   79.4810   61.0580 C.3   288  LYS288      0.0035
    156  CD        43.0160   79.6440   59.6390 C.3   288  LYS288      0.0206
    157  CE        41.9950   79.0970   58.6440 C.3   288  LYS288      0.1093
    158  NZ        40.6140   79.6690   58.8420 N.3   288  LYS288     -0.1314
@<TRIPOS>BOND
     1    42    41    2
     2    41    40    1
     3    40    39    1
     4    40    43    1
     5    43    44    1
     6    83    82    2
     7    82    81    1
     8    44    45   ar
     9    44    46   ar
    10    60    59    2
    11    59    58    1
    12    45    47   ar
    13    46    48   ar
    14    68    70   ar
    15    68    66   ar
    16    70    69   ar
    17    80    81    1
    18    81    84    1
    19    84    85    1
    20    38    36    1
    21    65    66   ar
    22    65    63   ar
    23    66    64   ar
    24    85    86    1
    25    86    87    1
    26    69    67   ar
    27    63    62   ar
    28    64    67   ar
    29    64    62   ar
    30    47    49   ar
    31    58    57    1
    32    58    61    1
    33    87    88    1
    34    36    37    1
    35    36    33    1
    36    48    49   ar
    37    74    73    2
    38    62    61    1
    39    35    34    2
    40    34    33    1
    41    73    72    1
    42    33    32    1
    43   124   125    1
    44   109   108    2
    45    71    72    1
    46   128   125    1
    47   128   129    1
    48    72    75    1
    49    32    27   am
    50   125   126    1
    51   112   114   ar
    52   112   111   ar
    53   114   115   ar
    54   108   107    1
    55    75    76    1
    56   131   129   ar
    57   110   111    1
    58   110   107    1
    59   111   113   ar
    60    53    52    2
    61   129   130   ar
    62   107   106    1
    63   115   113   ar
    64    22    24   ar
    65    22    20   ar
    66    52    51    1
    67    76    77    1
    68    30    29    1
    69   127   126    2
    70    27    28    2
    71    27    26    1
    72    24    23   ar
    73    20    19    1
    74    20    21   ar
    75    19    16    1
    76    77    79   ar
    77    77    78   ar
    78    26    29    1
    79    26    25    1
    80    29    31    1
    81    55    54    1
    82    23    21   ar
    83    51    50    1
    84    51    54    1
    85    17    16    1
    86    17    18    2
    87    16    15    1
    88   157   158    1
    89   157   156    1
    90    92    91    2
    91    54    56    1
    92    89    90    1
    93   105   103   ar
    94   104   103   ar
    95   156   155    1
    96   100    99    2
    97    91    90    1
    98   103   102    1
    99   101   102    1
   100   101    98    1
   101    93    90    1
   102    93    94    1
   103    97    98    1
   104   149   147   ar
   105    96    94   am
   106    98    99    1
   107     7     9   ar
   108     7     6   ar
   109     5     6    1
   110     5     2    1
   111     9    10   ar
   112   123   121   ar
   113    94    95    2
   114     6     8   ar
   115   155   154    1
   116    10     8   ar
   117    10    12   ar
   118     8    11   ar
   119   147   148   ar
   120   147   146    1
   121    12    14   ar
   122    11    13   ar
   123    14    13   ar
   124     4     3    2
   125   121   120    1
   126   121   122   ar
   127   154   151    1
   128     2     3    1
   129     2     1    1
   130   120   117    1
   131   146   143    1
   132   145   144    2
   133   151   150    1
   134   151   152    1
   135   144   143    1
   136   119   118    2
   137   143   142    1
   138   116   117    1
   139   117   118    1
   140   140   138   ar
   141   140   141   ar
   142   153   152    2
   143   138   137   ar
   144   141   139   ar
   145   137   139   ar
   146   137   136    1
   147   136   133    1
   148   135   134    2
   149   134   133    1
   150   133   132    1
