@<TRIPOS>MOLECULE
tmp/3u3kA01.pdb
 170 166 0 0 0
SMALL
GASTEIGER

@<TRIPOS>ATOM
      1  N         25.8010   -8.2040  -14.7860 N.3    15  ILE15      -0.1245
      2  CA        25.5940   -9.5600  -14.4340 C.3    15  ILE15       0.1561
      3  C         25.3100  -10.2210  -15.7920 C.2    15  ILE15       0.2260
      4  O         24.4850   -9.7300  -16.5620 O.2    15  ILE15      -0.2867
      5  CB        24.4200   -9.6680  -13.4570 C.3    15  ILE15       0.0252
      6  CG1       24.7860   -9.0020  -12.1140 C.3    15  ILE15       0.0019
      7  CG2       23.9860  -11.1580  -13.2340 C.3    15  ILE15       0.0019
      8  CD1       23.6090   -8.9140  -11.1460 C.3    15  ILE15       0.0001
      9  N         21.8640  -10.7620  -17.0190 N.3    18  PHE18      -0.1241
     10  CA        21.1780   -9.5480  -17.4530 C.3    18  PHE18       0.1605
     11  C         21.6110   -9.1450  -18.8500 C.2    18  PHE18       0.2264
     12  O         20.7880   -8.7860  -19.6630 O.2    18  PHE18      -0.2867
     13  CB        21.4070   -8.3930  -16.4850 C.3    18  PHE18       0.0534
     14  CG        20.8120   -8.5960  -15.1250 C.ar   18  PHE18      -0.0203
     15  CD1       20.5060   -9.8580  -14.6330 C.ar   18  PHE18      -0.0042
     16  CD2       20.6210   -7.5190  -14.3210 C.ar   18  PHE18      -0.0042
     17  CE1       20.0100  -10.0010  -13.4110 C.ar   18  PHE18      -0.0003
     18  CE2       20.1110   -7.6770  -13.0790 C.ar   18  PHE18      -0.0003
     19  CZ        19.8130   -8.9040  -12.6140 C.ar   18  PHE18      -0.0000
     20  N         21.2930    0.7750   -8.6220 N.3    41  PRO41      -0.2102
     21  CA        20.9080   -0.1350   -7.5510 C.3    41  PRO41       0.1504
     22  C         21.1190    0.4200   -6.1590 C.2    41  PRO41       0.2575
     23  O         22.0540    1.2280   -5.9200 O.2    41  PRO41      -0.2718
     24  CB        21.8550   -1.3250   -7.7470 C.3    41  PRO41       0.0282
     25  CG        22.1570   -1.3470   -9.2550 C.3    41  PRO41       0.0208
     26  CD        22.3600    0.1860   -9.4630 C.3    41  PRO41       0.0893
     27  N         20.2530   -0.0540   -5.2650 N.am   42  LYS42      -0.1980
     28  CA        20.2570    0.2080   -3.8360 C.3    42  LYS42       0.1596
     29  C         19.8730    1.6210   -3.5260 C.2    42  LYS42       0.2287
     30  O         20.1940    2.1350   -2.4610 O.2    42  LYS42      -0.2864
     31  CB        21.6280   -0.0850   -3.2480 C.3    42  LYS42       0.0298
     32  CG        22.2810   -1.3380   -3.8870 C.3    42  LYS42       0.0038
     33  CD        21.2970   -2.5580   -3.9230 C.3    42  LYS42       0.0206
     34  CE        20.6430   -2.9010   -2.5430 C.3    42  LYS42       0.1093
     35  NZ        19.5810   -3.8810   -2.8380 N.3    42  LYS42      -0.1314
     36  N         14.7110    1.4960   -5.1570 N.3    45  THR45      -0.1218
     37  CA        13.8880    0.9730   -6.2530 C.3    45  THR45       0.1862
     38  C         12.6430    0.3260   -5.7180 C.2    45  THR45       0.2287
     39  O         11.5260    0.5860   -6.2120 O.2    45  THR45      -0.2866
     40  CB        14.6170   -0.0810   -7.0920 C.3    45  THR45       0.1770
     41  OG1       15.9590    0.3600   -7.3260 O.3    45  THR45      -0.2211
     42  CG2       13.8640   -0.2850   -8.4380 C.3    45  THR45       0.0375
     43  N         10.8830   -6.1010  -14.0510 N.3    75  PHE75      -0.1241
     44  CA        12.2990   -5.6300  -14.0840 C.3    75  PHE75       0.1605
     45  C         12.9010   -5.8930  -15.4850 C.2    75  PHE75       0.2264
     46  O         13.1960   -7.0500  -15.8440 O.2    75  PHE75      -0.2867
     47  CB        12.9950   -6.3620  -12.9520 C.3    75  PHE75       0.0534
     48  CG        14.4010   -5.9970  -12.7180 C.ar   75  PHE75      -0.0203
     49  CD1       15.1590   -6.7960  -11.8590 C.ar   75  PHE75      -0.0042
     50  CD2       14.9970   -4.8940  -13.3120 C.ar   75  PHE75      -0.0042
     51  CE1       16.5180   -6.5040  -11.6110 C.ar   75  PHE75      -0.0003
     52  CE2       16.3390   -4.6030  -13.0560 C.ar   75  PHE75      -0.0003
     53  CZ        17.0950   -5.3910  -12.1940 C.ar   75  PHE75      -0.0000
     54  N         15.9700   -8.1040  -16.4060 N.3    78  PHE78      -0.1241
     55  CA        16.1980   -9.1630  -15.4110 C.3    78  PHE78       0.1605
     56  C         16.1670  -10.5750  -16.0230 C.2    78  PHE78       0.2264
     57  O         15.3580  -10.8520  -16.9280 O.2    78  PHE78      -0.2867
     58  CB        15.1570   -9.0420  -14.2930 C.3    78  PHE78       0.0534
     59  CG        15.2490  -10.0860  -13.2810 C.ar   78  PHE78      -0.0203
     60  CD1       16.1690   -9.9930  -12.2940 C.ar   78  PHE78      -0.0042
     61  CD2       14.3970  -11.2040  -13.3290 C.ar   78  PHE78      -0.0042
     62  CE1       16.2890  -10.9930  -11.3270 C.ar   78  PHE78      -0.0003
     63  CE2       14.4760  -12.2130  -12.3680 C.ar   78  PHE78      -0.0003
     64  CZ        15.4260  -12.1260  -11.3600 C.ar   78  PHE78      -0.0000
     65  N         10.6100   -1.4670  -14.1240 N.3   100  LYS100     -0.1245
     66  CA        11.7980   -1.1460  -13.2910 C.3   100  LYS100      0.1561
     67  C         13.0460   -1.2720  -14.1130 C.2   100  LYS100      0.2260
     68  O         13.2030   -2.2780  -14.8270 O.2   100  LYS100     -0.2867
     69  CB        11.8990   -2.1960  -12.1640 C.3   100  LYS100      0.0271
     70  CG        13.2770   -2.2710  -11.4260 C.3   100  LYS100      0.0035
     71  CD        13.2180   -3.1540  -10.1640 C.3   100  LYS100      0.0206
     72  CE        14.5680   -3.7310   -9.6990 C.3   100  LYS100      0.1093
     73  NZ        14.3830   -4.8280   -8.6910 N.3   100  LYS100     -0.1314
     74  N         17.6620   -0.4360  -14.0920 N.3   102  HIS102     -0.1241
     75  CA        18.9030    0.2070  -13.6600 C.3   102  HIS102      0.1621
     76  C         19.8200    0.5730  -14.8420 C.2   102  HIS102      0.2264
     77  O         20.9470    1.0570  -14.6550 O.2   102  HIS102     -0.2867
     78  CB        19.6950   -0.6910  -12.7000 C.3   102  HIS102      0.0745
     79  CG        18.9240   -1.1600  -11.5090 C.ar  102  HIS102      0.0817
     80  ND1       18.3570   -0.2940  -10.5890 N.ar  102  HIS102     -0.2268
     81  CD2       18.6920   -2.4220  -11.0390 C.ar  102  HIS102      0.1154
     82  CE1       17.7910   -1.0030   -9.6100 C.ar  102  HIS102      0.1986
     83  NE2       17.9800   -2.2950   -9.8590 N.ar  102  HIS102     -0.2212
     84  N         24.4750   -6.0990   -0.3530 N.3   136  PHE136     -0.1241
     85  CA        23.6140   -6.7230   -1.3720 C.3   136  PHE136      0.1605
     86  C         24.3840   -7.7650   -2.1810 C.2   136  PHE136      0.2264
     87  O         23.8410   -8.8360   -2.5110 O.2   136  PHE136     -0.2867
     88  CB        22.9550   -5.6830   -2.2890 C.3   136  PHE136      0.0534
     89  CG        21.8480   -6.2490   -3.2190 C.ar  136  PHE136     -0.0203
     90  CD1       20.7190   -6.8970   -2.6940 C.ar  136  PHE136     -0.0042
     91  CD2       21.9270   -6.0970   -4.6050 C.ar  136  PHE136     -0.0042
     92  CE1       19.7020   -7.4070   -3.5410 C.ar  136  PHE136     -0.0003
     93  CE2       20.9460   -6.5650   -5.4440 C.ar  136  PHE136     -0.0003
     94  CZ        19.8140   -7.2260   -4.9030 C.ar  136  PHE136     -0.0000
     95  N         22.8110  -11.5620   -2.6620 N.3   140  ALA140     -0.1245
     96  CA        22.2810  -11.7610   -4.0150 C.3   140  ALA140      0.1562
     97  C         23.3700  -12.4320   -4.8210 C.2   140  ALA140      0.2260
     98  O         24.2320  -11.7550   -5.4310 O.2   140  ALA140     -0.2867
     99  CB        21.8390  -10.4230   -4.6620 C.3   140  ALA140      0.0290
    100  N         23.9680  -14.1040   -7.5880 N.3   142  VAL142     -0.1231
    101  CA        24.3870  -13.9980   -8.9900 C.3   142  VAL142      0.1692
    102  C         25.5380  -13.0360   -9.1800 C.2   142  VAL142      0.2592
    103  O         26.1160  -13.0030  -10.2620 O.2   142  VAL142     -0.2718
    104  CB        23.2280  -13.5440   -9.8930 C.3   142  VAL142      0.0266
    105  CG1       22.1060  -14.6280   -9.8730 C.3   142  VAL142      0.0020
    106  CG2       22.6670  -12.1920   -9.4180 C.3   142  VAL142      0.0020
    107  N         25.8580  -12.2500   -8.1410 N.am  143  HIS143     -0.1976
    108  CA        26.8110  -11.1540   -8.2410 C.3   143  HIS143      0.1656
    109  C         28.1850  -11.7580   -8.0640 C.2   143  HIS143      0.2291
    110  O         28.3280  -12.7310   -7.3520 O.2   143  HIS143     -0.2864
    111  CB        26.6020  -10.1160   -7.1230 C.3   143  HIS143      0.0771
    112  CG        25.4500   -9.1870   -7.3380 C.ar  143  HIS143      0.0820
    113  ND1       24.2390   -9.3460   -6.7040 N.ar  143  HIS143     -0.2267
    114  CD2       25.3460   -8.0520   -8.0690 C.ar  143  HIS143      0.1154
    115  CE1       23.4220   -8.3810   -7.0810 C.ar  143  HIS143      0.1986
    116  NE2       24.0640   -7.5850   -7.9180 N.ar  143  HIS143     -0.2212
    117  N         26.5040   -2.6260  -13.1270 N.3   163  TYR163     -0.1241
    118  CA        25.8450   -1.4870  -13.7110 C.3   163  TYR163      0.1605
    119  C         26.7870   -0.2630  -13.8040 C.2   163  TYR163      0.2264
    120  O         26.3560    0.8550  -14.1930 O.2   163  TYR163     -0.2867
    121  CB        24.5590   -1.1370  -12.9630 C.3   163  TYR163      0.0534
    122  CG        23.3880   -2.0580  -13.2030 C.ar  163  TYR163     -0.0201
    123  CD1       22.6310   -1.9260  -14.3300 C.ar  163  TYR163     -0.0009
    124  CD2       23.0240   -3.0520  -12.2890 C.ar  163  TYR163     -0.0009
    125  CE1       21.5510   -2.7530  -14.5770 C.ar  163  TYR163      0.0417
    126  CE2       21.8930   -3.8830  -12.5230 C.ar  163  TYR163      0.0417
    127  CZ        21.1740   -3.7100  -13.6880 C.ar  163  TYR163      0.1957
    128  OH        20.0560   -4.4310  -13.9820 O.3   163  TYR163     -0.2866
    129  N         11.3100   -9.6970   -0.5630 N.3   234  TYR234     -0.1241
    130  CA        12.0650  -10.6750   -1.3590 C.3   234  TYR234      0.1605
    131  C         12.4160  -12.0510   -0.6740 C.2   234  TYR234      0.2264
    132  O         13.2120  -12.8240   -1.2120 O.2   234  TYR234     -0.2867
    133  CB        13.3370  -10.0270   -1.9490 C.3   234  TYR234      0.0534
    134  CG        13.1180   -9.1540   -3.1810 C.ar  234  TYR234     -0.0201
    135  CD1       12.8600   -7.7840   -3.0620 C.ar  234  TYR234     -0.0009
    136  CD2       13.2020   -9.6810   -4.4680 C.ar  234  TYR234     -0.0009
    137  CE1       12.6820   -6.9760   -4.1880 C.ar  234  TYR234      0.0417
    138  CE2       13.0220   -8.8580   -5.6150 C.ar  234  TYR234      0.0417
    139  CZ        12.7630   -7.5050   -5.4360 C.ar  234  TYR234      0.1957
    140  OH        12.5740   -6.6660   -6.5270 O.3   234  TYR234     -0.2866
    141  N         19.1900  -17.9280   -4.6770 N.3   241  PHE241     -0.1227
    142  CA        19.1730  -16.6720   -5.4070 C.3   241  PHE241      0.1736
    143  C         19.3770  -15.4800   -4.4660 C.2   241  PHE241      0.2595
    144  O         20.2090  -14.6020   -4.7320 O.2   241  PHE241     -0.2718
    145  CB        17.8430  -16.5540   -6.1450 C.3   241  PHE241      0.0547
    146  CG        17.7280  -15.3310   -6.9700 C.ar  241  PHE241     -0.0202
    147  CD1       18.5050  -15.1730   -8.0880 C.ar  241  PHE241     -0.0042
    148  CD2       16.8380  -14.3290   -6.6180 C.ar  241  PHE241     -0.0042
    149  CE1       18.4130  -14.0170   -8.8460 C.ar  241  PHE241     -0.0003
    150  CE2       16.7240  -13.1880   -7.3620 C.ar  241  PHE241     -0.0003
    151  CZ        17.5290  -13.0250   -8.4810 C.ar  241  PHE241     -0.0000
    152  N         18.6340  -15.4510   -3.3590 N.am  242  MET242     -0.1979
    153  CA        18.8680  -14.4350   -2.3090 C.3   242  MET242      0.1605
    154  C         18.8730  -15.0860   -0.9290 C.2   242  MET242      0.2287
    155  O         17.9160  -15.7470   -0.5380 O.2   242  MET242     -0.2864
    156  CB        17.8190  -13.3200   -2.3710 C.3   242  MET242      0.0413
    157  CG        17.9130  -12.4230   -3.6100 C.3   242  MET242      0.0598
    158  SD        16.6910  -11.0890   -3.6270 S.3   242  MET242     -0.1393
    159  CE        17.3060  -10.0820   -4.9680 C.3   242  MET242      0.0692
    160  N         17.2840   -8.3820    2.4840 N.3   249  PHE249     -0.1241
    161  CA        17.0640   -7.4020    1.4350 C.3   249  PHE249      0.1605
    162  C         16.7500   -6.0930    2.1030 C.2   249  PHE249      0.2264
    163  O         17.4100   -5.1020    1.8800 O.2   249  PHE249     -0.2867
    164  CB        15.9370   -7.7880    0.4720 C.3   249  PHE249      0.0534
    165  CG        15.8610   -6.8750   -0.6960 C.ar  249  PHE249     -0.0203
    166  CD1       16.5620   -7.1490   -1.8520 C.ar  249  PHE249     -0.0042
    167  CD2       15.1400   -5.6760   -0.6240 C.ar  249  PHE249     -0.0042
    168  CE1       16.5060   -6.2870   -2.9120 C.ar  249  PHE249     -0.0003
    169  CE2       15.0900   -4.8360   -1.6740 C.ar  249  PHE249     -0.0003
    170  CZ        15.7960   -5.1350   -2.8320 C.ar  249  PHE249     -0.0000
@<TRIPOS>BOND
     1    12    11    2
     2    11    10    1
     3    10     9    1
     4    10    13    1
     5    57    56    2
     6     4     3    2
     7    13    14    1
     8    54    55    1
     9    56    55    1
    10    46    45    2
    11     3     2    1
    12    45    44    1
    13    55    58    1
    14    14    15   ar
    15    14    16   ar
    16    76    77    2
    17    76    75    1
    18    68    67    2
    19     1     2    1
    20    15    17   ar
    21   125   123   ar
    22   125   127   ar
    23     2     5    1
    24   123   122   ar
    25    16    18   ar
    26    58    59    1
    27   120   119    2
    28    65    66    1
    29    67    66    1
    30    74    75    1
    31    44    43    1
    32    44    47    1
    33   128   127    1
    34   119   118    1
    35   118   117    1
    36   118   121    1
    37   127   126   ar
    38    75    78    1
    39     5     7    1
    40     5     6    1
    41    17    19   ar
    42    61    59   ar
    43    61    63   ar
    44    50    52   ar
    45    50    48   ar
    46    66    69    1
    47    59    60   ar
    48   122   121    1
    49   122   124   ar
    50    18    19   ar
    51    52    53   ar
    52    47    48    1
    53    48    49   ar
    54    78    79    1
    55   126   124   ar
    56    63    64   ar
    57    60    62   ar
    58    53    51   ar
    59    69    70    1
    60     6     8    1
    61    49    51   ar
    62    79    81   ar
    63    79    80   ar
    64    70    71    1
    65    64    62   ar
    66    81    83   ar
    67    80    82   ar
    68   103   102    2
    69    71    72    1
    70   104   105    1
    71   104   106    1
    72   104   101    1
    73    83    82   ar
    74    72    73    1
    75    26    25    1
    76    26    20    1
    77    25    24    1
    78   102   101    1
    79   102   107   am
    80   101   100    1
    81   149   151   ar
    82   149   147   ar
    83    20    21    1
    84   151   150   ar
    85    42    40    1
    86   108   107    1
    87   108   109    1
    88   108   111    1
    89   147   146   ar
    90   114   116   ar
    91   114   112   ar
    92   109   110    2
    93   116   115   ar
    94    24    21    1
    95    21    22    1
    96   150   148   ar
    97   112   111    1
    98   112   113   ar
    99    41    40    1
   100    40    37    1
   101   115   113   ar
   102   146   148   ar
   103   146   145    1
   104   140   139    1
   105    37    38    1
   106    37    36    1
   107    39    38    2
   108    22    23    2
   109    22    27   am
   110   145   142    1
   111   138   139   ar
   112   138   136   ar
   113    93    94   ar
   114    93    91   ar
   115   139   137   ar
   116    98    97    2
   117   142   141    1
   118   142   143    1
   119    27    28    1
   120   159   158    1
   121    94    92   ar
   122    97    96    1
   123   144   143    2
   124    99    96    1
   125    91    89   ar
   126   136   134   ar
   127   143   152   am
   128   137   135   ar
   129    96    95    1
   130    33    32    1
   131    33    34    1
   132    32    31    1
   133    28    29    1
   134    28    31    1
   135   158   157    1
   136   157   156    1
   137    92    90   ar
   138    29    30    2
   139   152   153    1
   140    89    90   ar
   141    89    88    1
   142   134   135   ar
   143   134   133    1
   144   168   170   ar
   145   168   166   ar
   146    35    34    1
   147   170   169   ar
   148    87    86    2
   149   156   153    1
   150   153   154    1
   151    88    85    1
   152    86    85    1
   153   133   130    1
   154   166   165   ar
   155   169   167   ar
   156    85    84    1
   157   130   131    1
   158   130   129    1
   159   132   131    2
   160   154   155    2
   161   165   167   ar
   162   165   164    1
   163   164   161    1
   164   161   162    1
   165   161   160    1
   166   163   162    2
