@<TRIPOS>MOLECULE
tmp/3u3kA00.pdb
 198 194 0 0 0
SMALL
GASTEIGER

@<TRIPOS>ATOM
      1  N         21.2930    0.7750   -8.6220 N.3    41  PRO41      -0.2102
      2  CA        20.9080   -0.1350   -7.5510 C.3    41  PRO41       0.1504
      3  C         21.1190    0.4200   -6.1590 C.2    41  PRO41       0.2576
      4  O         22.0540    1.2280   -5.9200 O.2    41  PRO41      -0.2718
      5  CB        21.8550   -1.3250   -7.7470 C.3    41  PRO41       0.0282
      6  CG        22.1570   -1.3470   -9.2550 C.3    41  PRO41       0.0208
      7  CD        22.3600    0.1860   -9.4630 C.3    41  PRO41       0.0893
      8  N         20.2530   -0.0540   -5.2650 N.am   42  LYS42      -0.1966
      9  CA        20.2570    0.2080   -3.8360 C.3    42  LYS42       0.1728
     10  C         19.8730    1.6210   -3.5260 C.2    42  LYS42       0.2617
     11  O         20.1940    2.1350   -2.4610 O.2    42  LYS42      -0.2715
     12  CB        21.6280   -0.0850   -3.2480 C.3    42  LYS42       0.0311
     13  CG        22.2810   -1.3380   -3.8870 C.3    42  LYS42       0.0038
     14  CD        21.2970   -2.5580   -3.9230 C.3    42  LYS42       0.0206
     15  CE        20.6430   -2.9010   -2.5430 C.3    42  LYS42       0.1093
     16  NZ        19.5810   -3.8810   -2.8380 N.3    42  LYS42      -0.1314
     17  N         19.1240    2.2450   -4.4400 N.am   43  SER43      -0.1936
     18  CA        18.7870    3.6470   -4.2520 C.3    43  SER43       0.2055
     19  C         17.3740    3.8820   -3.8020 C.2    43  SER43       0.2644
     20  O         16.9860    5.0160   -3.5610 O.2    43  SER43      -0.2714
     21  CB        19.0630    4.3650   -5.5170 C.3    43  SER43       0.2130
     22  OG        20.4530    4.2730   -5.7940 O.3    43  SER43      -0.2179
     23  N         16.6160    2.8140   -3.6160 N.am   44  GLY44      -0.1939
     24  CA        15.1920    2.9460   -3.2510 C.3    44  GLY44       0.2014
     25  C         14.2270    2.3950   -4.2930 C.2    44  GLY44       0.2640
     26  O         13.0590    2.7580   -4.3140 O.2    44  GLY44      -0.2714
     27  N         14.7110    1.4960   -5.1570 N.am   45  THR45      -0.1936
     28  CA        13.8880    0.9730   -6.2530 C.3    45  THR45       0.2028
     29  C         12.6430    0.3260   -5.7180 C.2    45  THR45       0.2643
     30  O         11.5260    0.5860   -6.2120 O.2    45  THR45      -0.2714
     31  CB        14.6170   -0.0810   -7.0920 C.3    45  THR45       0.1808
     32  OG1       15.9590    0.3600   -7.3260 O.3    45  THR45      -0.2208
     33  CG2       13.8640   -0.2850   -8.4380 C.3    45  THR45       0.0379
     34  N         12.8240   -0.5130   -4.7090 N.am   46  THR46      -0.1936
     35  CA        11.7120   -1.2970   -4.2190 C.3    46  THR46       0.2028
     36  C         10.7400   -0.3670   -3.4910 C.2    46  THR46       0.2642
     37  O          9.5300   -0.4460   -3.6430 O.2    46  THR46      -0.2714
     38  CB        12.1990   -2.3900   -3.3210 C.3    46  THR46       0.1808
     39  OG1       13.2680   -3.0640   -3.9550 O.3    46  THR46      -0.2208
     40  CG2       11.0910   -3.4170   -3.0440 C.3    46  THR46       0.0379
     41  N         11.2860    0.5360   -2.7120 N.am   47  TRP47      -0.1973
     42  CA        10.4640    1.5050   -2.0080 C.3    47  TRP47       0.1640
     43  C          9.5290    2.3290   -2.9110 C.2    47  TRP47       0.2290
     44  O          8.3430    2.3930   -2.5960 O.2    47  TRP47      -0.2864
     45  CB        11.3750    2.4170   -1.2170 C.3    47  TRP47       0.0576
     46  CG        10.7210    3.3260   -0.3110 C.ar   47  TRP47       0.0006
     47  CD1        9.3980    3.3990   -0.0220 C.ar   47  TRP47       0.0946
     48  CD2       11.3570    4.3000    0.4770 C.ar   47  TRP47       0.0152
     49  NE1        9.1630    4.3890    0.8790 N.ar   47  TRP47      -0.2442
     50  CE2       10.3570    4.9490    1.2270 C.ar   47  TRP47       0.0810
     51  CE3       12.6800    4.6640    0.6670 C.ar   47  TRP47       0.0012
     52  CZ2       10.6360    5.9530    2.1420 C.ar   47  TRP47       0.0191
     53  CZ3       12.9480    5.6810    1.5530 C.ar   47  TRP47       0.0001
     54  CH2       11.9330    6.3110    2.2780 C.ar   47  TRP47       0.0015
     55  N         17.6620   -0.4360  -14.0920 N.3   102  HIS102     -0.1241
     56  CA        18.9030    0.2070  -13.6600 C.3   102  HIS102      0.1621
     57  C         19.8200    0.5730  -14.8420 C.2   102  HIS102      0.2264
     58  O         20.9470    1.0570  -14.6550 O.2   102  HIS102     -0.2867
     59  CB        19.6950   -0.6910  -12.7000 C.3   102  HIS102      0.0745
     60  CG        18.9240   -1.1600  -11.5090 C.ar  102  HIS102      0.0817
     61  ND1       18.3570   -0.2940  -10.5890 N.ar  102  HIS102     -0.2268
     62  CD2       18.6920   -2.4220  -11.0390 C.ar  102  HIS102      0.1154
     63  CE1       17.7910   -1.0030   -9.6100 C.ar  102  HIS102      0.1986
     64  NE2       17.9800   -2.2950   -9.8590 N.ar  102  HIS102     -0.2212
     65  N         20.4300    8.4780   -4.4740 N.3   124  ARG124     -0.1245
     66  CA        20.7470    8.3400   -3.0680 C.3   124  ARG124      0.1563
     67  C         22.2300    8.6240   -2.9310 C.2   124  ARG124      0.2260
     68  O         23.0050    8.3420   -3.8680 O.2   124  ARG124     -0.2867
     69  CB        20.4600    6.8980   -2.6250 C.3   124  ARG124      0.0307
     70  CG        20.8540    6.5030   -1.1620 C.3   124  ARG124      0.0489
     71  CD        20.2430    5.1270   -0.8300 C.3   124  ARG124      0.2205
     72  NE        20.2460    4.8490    0.5860 N.pl3 124  ARG124     -0.0865
     73  CZ        20.2890    3.6480    1.1580 C.cat 124  ARG124      0.5346
     74  NH1       20.3460    2.5330    0.4350 N.pl3 124  ARG124      0.1354
     75  NH2       20.3180    3.5570    2.5040 N.pl3 124  ARG124      0.1354
     76  N         25.9530    5.7470    1.2470 N.3   128  ASP128     -0.1239
     77  CA        24.9540    4.7310    1.6120 C.3   128  ASP128      0.1674
     78  C         24.7260    3.7230    0.5040 C.2   128  ASP128      0.2266
     79  O         24.4410    2.5730    0.7960 O.2   128  ASP128     -0.2867
     80  CB        23.6240    5.3600    2.1050 C.3   128  ASP128      0.1410
     81  CG        23.7400    5.9300    3.5310 C.2   128  ASP128      0.3668
     82  OD1       24.3860    5.2780    4.3830 O.co2 128  ASP128     -0.2456
     83  OD2       23.2150    7.0410    3.7800 O.co2 128  ASP128     -0.2456
     84  N         25.1200   -0.3000    1.1410 N.3   132  SER132     -0.1217
     85  CA        24.0020   -1.1840    0.7210 C.3   132  SER132      0.1889
     86  C         24.4020   -2.1290   -0.4060 C.2   132  SER132      0.2288
     87  O         24.1470   -3.3390   -0.3400 O.2   132  SER132     -0.2866
     88  CB        22.7820   -0.3540    0.2980 C.3   132  SER132      0.2089
     89  OG        21.7510   -1.1460   -0.2640 O.3   132  SER132     -0.2183
     90  N         24.4750   -6.0990   -0.3530 N.3   136  PHE136     -0.1241
     91  CA        23.6140   -6.7230   -1.3720 C.3   136  PHE136      0.1605
     92  C         24.3840   -7.7650   -2.1810 C.2   136  PHE136      0.2264
     93  O         23.8410   -8.8360   -2.5110 O.2   136  PHE136     -0.2867
     94  CB        22.9550   -5.6830   -2.2890 C.3   136  PHE136      0.0534
     95  CG        21.8480   -6.2490   -3.2190 C.ar  136  PHE136     -0.0203
     96  CD1       20.7190   -6.8970   -2.6940 C.ar  136  PHE136     -0.0042
     97  CD2       21.9270   -6.0970   -4.6050 C.ar  136  PHE136     -0.0042
     98  CE1       19.7020   -7.4070   -3.5410 C.ar  136  PHE136     -0.0003
     99  CE2       20.9460   -6.5650   -5.4440 C.ar  136  PHE136     -0.0003
    100  CZ        19.8140   -7.2260   -4.9030 C.ar  136  PHE136     -0.0000
    101  N         16.2730    9.5220   -2.2140 N.3   187  TYR187     -0.1241
    102  CA        15.9860    8.6350   -1.1230 C.3   187  TYR187      0.1605
    103  C         16.0060    9.4270    0.2140 C.2   187  TYR187      0.2264
    104  O         15.0970    9.3760    1.0090 O.2   187  TYR187     -0.2867
    105  CB        17.0200    7.5270   -1.1310 C.3   187  TYR187      0.0534
    106  CG        16.9630    6.5650    0.0150 C.ar  187  TYR187     -0.0201
    107  CD1       16.5430    5.2530   -0.1890 C.ar  187  TYR187     -0.0009
    108  CD2       17.4180    6.9130    1.2720 C.ar  187  TYR187     -0.0009
    109  CE1       16.5040    4.3320    0.8480 C.ar  187  TYR187      0.0417
    110  CE2       17.4010    5.9970    2.3150 C.ar  187  TYR187      0.0417
    111  CZ        16.9380    4.7010    2.0990 C.ar  187  TYR187      0.1957
    112  OH        16.9090    3.7620    3.1100 O.3   187  TYR187     -0.2866
    113  N         13.1960    9.6800    3.1160 N.3   191  LYS191     -0.1245
    114  CA        13.4040    9.4200    4.5640 C.3   191  LYS191      0.1561
    115  C         12.9230   10.5960    5.4730 C.2   191  LYS191      0.2260
    116  O         12.2020   10.3860    6.4740 O.2   191  LYS191     -0.2867
    117  CB        14.8700    9.0810    4.8820 C.3   191  LYS191      0.0271
    118  CG        15.1840    7.5690    4.8330 C.3   191  LYS191      0.0035
    119  CD        15.1410    6.8810    6.2600 C.3   191  LYS191      0.0206
    120  CE        13.8740    6.1030    6.5450 C.3   191  LYS191      0.1093
    121  NZ        14.2180    4.8190    7.2250 N.3   191  LYS191     -0.1314
    122  N          4.1800    1.9130    3.3100 N.3   221  THR221     -0.1218
    123  CA         5.4540    1.9960    2.6020 C.3   221  THR221      0.1862
    124  C          6.6420    2.3170    3.5330 C.2   221  THR221      0.2287
    125  O          7.7440    2.5790    3.0600 O.2   221  THR221     -0.2866
    126  CB         5.4080    3.0770    1.5210 C.3   221  THR221      0.1770
    127  OG1        5.0780    4.3430    2.1260 O.3   221  THR221     -0.2211
    128  CG2        4.4030    2.7250    0.4480 C.3   221  THR221      0.0375
    129  N          9.7170    1.4770    6.1390 N.3   223  PHE223     -0.1241
    130  CA        10.6870    0.3920    6.1850 C.3   223  PHE223      0.1605
    131  C         10.2040   -0.8100    7.0060 C.2   223  PHE223      0.2264
    132  O         10.3030   -1.9510    6.5370 O.2   223  PHE223     -0.2867
    133  CB        12.0350    0.8680    6.7280 C.3   223  PHE223      0.0534
    134  CG        13.0740   -0.2560    6.8750 C.ar  223  PHE223     -0.0203
    135  CD1       13.8250   -0.7020    5.7640 C.ar  223  PHE223     -0.0042
    136  CD2       13.2940   -0.8720    8.1270 C.ar  223  PHE223     -0.0042
    137  CE1       14.7950   -1.7270    5.8980 C.ar  223  PHE223     -0.0003
    138  CE2       14.2650   -1.9050    8.2870 C.ar  223  PHE223     -0.0003
    139  CZ        15.0290   -2.3210    7.1600 C.ar  223  PHE223     -0.0000
    140  N          7.5260   -2.6570    5.1810 N.3   226  MET226     -0.1245
    141  CA         7.9650   -3.3000    3.9380 C.3   226  MET226      0.1570
    142  C          8.9490   -4.4370    4.2570 C.2   226  MET226      0.2261
    143  O          9.0990   -5.3700    3.4770 O.2   226  MET226     -0.2867
    144  CB         8.5090   -2.2910    2.9100 C.3   226  MET226      0.0387
    145  CG         7.4420   -1.3960    2.2520 C.3   226  MET226      0.0595
    146  SD         8.0840   -0.3000    0.9400 S.3   226  MET226     -0.1393
    147  CE         8.8050   -1.5260   -0.1570 C.3   226  MET226      0.0692
    148  N         17.2840   -8.3820    2.4840 N.3   249  PHE249     -0.1227
    149  CA        17.0640   -7.4020    1.4350 C.3   249  PHE249      0.1736
    150  C         16.7500   -6.0930    2.1030 C.2   249  PHE249      0.2595
    151  O         17.4100   -5.1020    1.8800 O.2   249  PHE249     -0.2718
    152  CB        15.9370   -7.7880    0.4720 C.3   249  PHE249      0.0547
    153  CG        15.8610   -6.8750   -0.6960 C.ar  249  PHE249     -0.0202
    154  CD1       16.5620   -7.1490   -1.8520 C.ar  249  PHE249     -0.0042
    155  CD2       15.1400   -5.6760   -0.6240 C.ar  249  PHE249     -0.0042
    156  CE1       16.5060   -6.2870   -2.9120 C.ar  249  PHE249     -0.0003
    157  CE2       15.0900   -4.8360   -1.6740 C.ar  249  PHE249     -0.0003
    158  CZ        15.7960   -5.1350   -2.8320 C.ar  249  PHE249     -0.0000
    159  N         15.7340   -6.1110    2.9410 N.am  250  MET250     -0.1965
    160  CA        15.3990   -4.9750    3.7740 C.3   250  MET250      0.1736
    161  C         16.3710   -4.9780    4.9400 C.2   250  MET250      0.2616
    162  O         16.2170   -5.7720    5.8670 O.2   250  MET250     -0.2715
    163  CB        13.9530   -5.1090    4.2480 C.3   250  MET250      0.0427
    164  CG        12.9900   -5.0970    3.0980 C.3   250  MET250      0.0599
    165  SD        12.9830   -3.4980    2.2830 S.3   250  MET250     -0.1393
    166  CE        11.7810   -3.8070    0.9800 C.3   250  MET250      0.0692
    167  N         17.3680   -4.0960    4.8730 N.am  251  ARG251     -0.1963
    168  CA        18.5580   -4.2180    5.7030 C.3   251  ARG251      0.1729
    169  C         18.4670   -3.3160    6.9460 C.2   251  ARG251      0.2616
    170  O         18.3640   -3.8110    8.0910 O.2   251  ARG251     -0.2715
    171  CB        19.8350   -3.9410    4.8690 C.3   251  ARG251      0.0348
    172  CG        21.1240   -4.5840    5.4730 C.3   251  ARG251      0.0492
    173  CD        22.4420   -4.2090    4.7080 C.3   251  ARG251      0.2205
    174  NE        22.6480   -2.7520    4.6030 N.pl3 251  ARG251     -0.0865
    175  CZ        23.2910   -1.9770    5.4790 C.cat 251  ARG251      0.5346
    176  NH1       23.9020   -2.4640    6.5760 N.pl3 251  ARG251      0.1354
    177  NH2       23.3410   -0.6770    5.2530 N.pl3 251  ARG251      0.1354
    178  N         18.5290   -2.0120    6.7280 N.am  252  LYS252     -0.1963
    179  CA        18.3400   -1.0450    7.7920 C.3   252  LYS252      0.1728
    180  C         17.4440    0.1030    7.3810 C.2   252  LYS252      0.2617
    181  O         16.8310    0.7660    8.2200 O.2   252  LYS252     -0.2715
    182  CB        19.6970   -0.5120    8.2720 C.3   252  LYS252      0.0311
    183  CG        20.4770   -1.5250    9.1780 C.3   252  LYS252      0.0038
    184  CD        21.8390   -0.9390    9.5560 C.3   252  LYS252      0.0206
    185  CE        22.7690   -1.9060   10.3040 C.3   252  LYS252      0.1093
    186  NZ        24.0000   -1.1300   10.7180 N.3   252  LYS252     -0.1314
    187  N         17.3770    0.3560    6.0850 N.am  253  GLY253     -0.1940
    188  CA        16.5940    1.4430    5.5920 C.3   253  GLY253      0.2014
    189  C         16.9180    2.7800    6.1880 C.2   253  GLY253      0.2638
    190  O         16.0200    3.5800    6.3470 O.2   253  GLY253     -0.2714
    191  N         18.1830    3.0440    6.5030 N.am  254  MET254     -0.1976
    192  CA        18.6360    4.2740    7.1720 C.3   254  MET254      0.1605
    193  C         19.3210    5.1860    6.1640 C.2   254  MET254      0.2287
    194  O         19.9420    4.6930    5.2510 O.2   254  MET254     -0.2864
    195  CB        19.6860    3.9500    8.2620 C.3   254  MET254      0.0413
    196  CG        19.2470    3.0170    9.4360 C.3   254  MET254      0.0598
    197  SD        20.5500    2.7880   10.7050 S.3   254  MET254     -0.1393
    198  CE        19.8210    1.5390   11.7860 C.3   254  MET254      0.0692
@<TRIPOS>BOND
     1    57    58    2
     2    57    56    1
     3    55    56    1
     4    56    59    1
     5    59    60    1
     6    60    62   ar
     7    60    61   ar
     8    62    64   ar
     9    61    63   ar
    10    64    63   ar
    11     7     6    1
    12     7     1    1
    13     6     5    1
    14     1     2    1
    15    33    31    1
    16     5     2    1
    17     2     3    1
    18    32    31    1
    19    31    28    1
    20    28    29    1
    21    28    27    1
    22    30    29    2
    23     3     4    2
    24     3     8   am
    25    22    21    1
    26    29    34   am
    27    21    18    1
    28    99   100   ar
    29    99    97   ar
    30     8     9    1
    31    27    25   am
    32   100    98   ar
    33    34    35    1
    34    97    95   ar
    35    65    66    1
    36    17    18    1
    37    17    10   am
    38    26    25    2
    39    25    24    1
    40    18    19    1
    41    35    36    1
    42    35    38    1
    43    39    38    1
    44    14    13    1
    45    14    15    1
    46    13    12    1
    47    68    67    2
    48     9    10    1
    49     9    12    1
    50    19    23   am
    51    19    20    2
    52    37    36    2
    53    23    24    1
    54    98    96   ar
    55    10    11    2
    56    36    41   am
    57    38    40    1
    58    95    96   ar
    59    95    94    1
    60    66    67    1
    61    66    69    1
    62   156   158   ar
    63   156   154   ar
    64    43    44    2
    65    43    42    1
    66    16    15    1
    67   158   157   ar
    68    41    42    1
    69    69    70    1
    70    93    92    2
    71    94    91    1
    72   101   102    1
    73    92    91    1
    74    42    45    1
    75   154   153   ar
    76   157   155   ar
    77    91    90    1
    78    45    46    1
    79    70    71    1
    80   105   102    1
    81   105   106    1
    82   102   103    1
    83    71    72    1
    84   153   155   ar
    85   153   152    1
    86    86    87    2
    87    86    85    1
    88    46    47   ar
    89    46    48   ar
    90    89    88    1
    91   107   106   ar
    92   107   109   ar
    93   147   146    1
    94    47    49   ar
    95   106   108   ar
    96   103   104    2
    97    88    85    1
    98    74    73    1
    99   128   126    1
   100   152   149    1
   101    48    51   ar
   102    48    50   ar
   103    78    79    2
   104    78    77    1
   105    72    73    2
   106    51    53   ar
   107    85    84    1
   108   109   111   ar
   109    49    50   ar
   110   146   145    1
   111   166   165    1
   112    73    75    1
   113    50    52   ar
   114    76    77    1
   115   108   110   ar
   116   149   150    1
   117   149   148    1
   118   126   127    1
   119   126   123    1
   120    53    54   ar
   121    77    80    1
   122   151   150    2
   123   111   110   ar
   124   111   112    1
   125   150   159   am
   126    80    81    1
   127    52    54   ar
   128   145   144    1
   129   165   164    1
   130   123   122    1
   131   123   124    1
   132   144   141    1
   133   159   160    1
   134   125   124    2
   135   164   163    1
   136   113   114    1
   137   143   142    2
   138    81    83   ar
   139    81    82   ar
   140   160   163    1
   141   160   161    1
   142   141   142    1
   143   141   140    1
   144   114   117    1
   145   114   115    1
   146   174   173    1
   147   174   175    2
   148   173   172    1
   149   118   117    1
   150   118   119    1
   151   171   172    1
   152   171   168    1
   153   167   161   am
   154   167   168    1
   155   161   162    2
   156   194   193    2
   157   177   175    1
   158   115   116    2
   159   175   176    1
   160   188   187    1
   161   188   189    1
   162   168   169    1
   163   135   137   ar
   164   135   134   ar
   165   137   139   ar
   166   187   180   am
   167   129   130    1
   168   193   192    1
   169   130   133    1
   170   130   131    1
   171   189   190    2
   172   189   191   am
   173   119   120    1
   174   191   192    1
   175   132   131    2
   176   120   121    1
   177   178   169   am
   178   178   179    1
   179   133   134    1
   180   134   136   ar
   181   169   170    2
   182   139   138   ar
   183   192   195    1
   184   180   179    1
   185   180   181    2
   186   179   182    1
   187   136   138   ar
   188   195   196    1
   189   182   183    1
   190   183   184    1
   191   196   197    1
   192   184   185    1
   193   185   186    1
   194   197   198    1
