@<TRIPOS>MOLECULE
tmp/3u3lA00.pdb
 164 155 0 0 0
SMALL
GASTEIGER

@<TRIPOS>ATOM
      1  N         27.5920   -0.9130   13.3450 N.3    43  ILE43      -0.1245
      2  CA        26.8390   -1.4520   12.2160 C.3    43  ILE43       0.1561
      3  C         27.6570   -2.5300   11.5010 C.2    43  ILE43       0.2260
      4  O         27.1650   -3.6360   11.2710 O.2    43  ILE43      -0.2867
      5  CB        26.4270   -0.3320   11.2500 C.3    43  ILE43       0.0252
      6  CG1       25.3830    0.5600   11.9360 C.3    43  ILE43       0.0019
      7  CG2       25.8680   -0.9190    9.9520 C.3    43  ILE43       0.0019
      8  CD1       25.1580    1.9200   11.2600 C.3    43  ILE43       0.0001
      9  N         28.0600   -5.8640   13.6330 N.3    46  LYS46      -0.1231
     10  CA        26.8830   -6.7250   13.6960 C.3    46  LYS46       0.1693
     11  C         26.6200   -7.4340   12.3670 C.2    46  LYS46       0.2591
     12  O         26.2860   -8.6150   12.3470 O.2    46  LYS46      -0.2718
     13  CB        25.6510   -5.9460   14.1640 C.3    46  LYS46       0.0285
     14  CG        25.7300   -5.5360   15.6330 C.3    46  LYS46       0.0035
     15  CD        25.8470   -6.7710   16.5410 C.3    46  LYS46       0.0206
     16  CE        25.8160   -6.4120   18.0280 C.3    46  LYS46       0.1093
     17  NZ        27.0550   -5.7120   18.4610 N.3    46  LYS46      -0.1314
     18  N         26.7740   -6.7160   11.2560 N.am   47  ILE47      -0.1980
     19  CA        26.6420   -7.3430    9.9410 C.3    47  ILE47       0.1595
     20  C         27.6940   -8.4380    9.7540 C.2    47  ILE47       0.2287
     21  O         27.3790   -9.5400    9.3150 O.2    47  ILE47      -0.2864
     22  CB        26.7480   -6.2880    8.8260 C.3    47  ILE47       0.0276
     23  CG1       25.4930   -5.4210    8.8200 C.3    47  ILE47       0.0022
     24  CG2       26.9450   -6.9470    7.4580 C.3    47  ILE47       0.0022
     25  CD1       25.6250   -4.1850    7.9570 C.3    47  ILE47       0.0001
     26  N         29.3360  -10.0420   12.1190 N.3    49  ASP49      -0.1225
     27  CA        29.0520  -11.0900   13.0920 C.3    49  ASP49       0.1805
     28  C         28.0420  -12.0850   12.5210 C.2    49  ASP49       0.2597
     29  O         28.2510  -13.2970   12.6100 O.2    49  ASP49      -0.2718
     30  CB        28.5260  -10.5250   14.4260 C.3    49  ASP49       0.1424
     31  CG        29.6230   -9.9580   15.3190 C.2    49  ASP49       0.3668
     32  OD1       30.8250  -10.1620   15.0410 O.co2  49  ASP49      -0.2456
     33  OD2       29.2670   -9.3220   16.3390 O.co2  49  ASP49      -0.2456
     34  N         26.9540  -11.5870   11.9360 N.am   50  VAL50      -0.1980
     35  CA        25.9190  -12.5010   11.4630 C.3    50  VAL50       0.1595
     36  C         26.3940  -13.2650   10.2350 C.2    50  VAL50       0.2287
     37  O         26.1060  -14.4510   10.0880 O.2    50  VAL50      -0.2864
     38  CB        24.5430  -11.8200   11.2400 C.3    50  VAL50       0.0276
     39  CG1       24.5900  -10.8470   10.0710 C.3    50  VAL50       0.0022
     40  CG2       23.4710  -12.8750   11.0160 C.3    50  VAL50       0.0022
     41  N         28.6220  -16.0320   11.3990 N.3    53  HIS53      -0.1241
     42  CA        27.8590  -17.0550   12.0980 C.3    53  HIS53       0.1621
     43  C         27.1000  -17.9060   11.0890 C.2    53  HIS53       0.2264
     44  O         27.0840  -19.1360   11.1740 O.2    53  HIS53      -0.2867
     45  CB        26.8960  -16.3990   13.0870 C.3    53  HIS53       0.0745
     46  CG        26.2220  -17.3640   14.0090 C.ar   53  HIS53       0.0817
     47  ND1       26.9000  -18.0450   14.9970 N.ar   53  HIS53      -0.2268
     48  CD2       24.9290  -17.7570   14.1000 C.ar   53  HIS53       0.1154
     49  CE1       26.0550  -18.8190   15.6540 C.ar   53  HIS53       0.1986
     50  NE2       24.8520  -18.6620   15.1300 N.ar   53  HIS53      -0.2212
     51  N         21.9850  -21.9750   12.3900 N.3    59  TRP59      -0.1241
     52  CA        20.5580  -21.7030   12.2580 C.3    59  TRP59       0.1605
     53  C         19.8680  -22.6370   11.2700 C.2    59  TRP59       0.2264
     54  O         18.7960  -22.3200   10.7560 O.2    59  TRP59      -0.2867
     55  CB        20.3410  -20.2510   11.8280 C.3    59  TRP59       0.0550
     56  CG        20.7730  -19.2500   12.8520 C.ar   59  TRP59       0.0003
     57  CD1       21.1450  -19.5010   14.1420 C.ar   59  TRP59       0.0946
     58  CD2       20.8810  -17.8340   12.6720 C.ar   59  TRP59       0.0152
     59  NE1       21.4760  -18.3260   14.7760 N.ar   59  TRP59      -0.2442
     60  CE2       21.3210  -17.2880   13.8950 C.ar   59  TRP59       0.0810
     61  CE3       20.6450  -16.9730   11.5960 C.ar   59  TRP59       0.0012
     62  CZ2       21.5310  -15.9230   14.0700 C.ar   59  TRP59       0.0191
     63  CZ3       20.8520  -15.6170   11.7750 C.ar   59  TRP59       0.0001
     64  CH2       21.2890  -15.1060   12.9990 C.ar   59  TRP59       0.0015
     65  N         17.8490   -1.1310    2.8720 N.3   105  LEU105     -0.1245
     66  CA        16.9870   -1.4540    4.0010 C.3   105  LEU105      0.1561
     67  C         16.5730   -0.1610    4.6820 C.2   105  LEU105      0.2260
     68  O         17.3700    0.7860    4.7780 O.2   105  LEU105     -0.2867
     69  CB        17.7040   -2.3510    5.0100 C.3   105  LEU105      0.0270
     70  CG        18.2630   -3.6500    4.4290 C.3   105  LEU105      0.0019
     71  CD1       18.9330   -4.4990    5.5160 C.3   105  LEU105      0.0001
     72  CD2       17.1500   -4.4200    3.7250 C.3   105  LEU105      0.0001
     73  N         14.7070    1.1850    8.2390 N.3   107  PHE107     -0.1241
     74  CA        14.2420    0.8770    9.5850 C.3   107  PHE107      0.1605
     75  C         13.5220    2.0870   10.1450 C.2   107  PHE107      0.2264
     76  O         14.0930    3.1710   10.2510 O.2   107  PHE107     -0.2867
     77  CB        15.4120    0.4720   10.4880 C.3   107  PHE107      0.0534
     78  CG        16.1570   -0.7390   10.0000 C.ar  107  PHE107     -0.0203
     79  CD1       15.7610   -2.0120   10.3770 C.ar  107  PHE107     -0.0042
     80  CD2       17.2460   -0.6040    9.1560 C.ar  107  PHE107     -0.0042
     81  CE1       16.4440   -3.1370    9.9270 C.ar  107  PHE107     -0.0003
     82  CE2       17.9320   -1.7290    8.7000 C.ar  107  PHE107     -0.0003
     83  CZ        17.5280   -2.9910    9.0900 C.ar  107  PHE107     -0.0000
     84  N         20.1610    1.9890   16.3380 N.3   121  ILE121     -0.1245
     85  CA        20.9060    0.9460   15.6500 C.3   121  ILE121      0.1561
     86  C         20.6140   -0.4180   16.2760 C.2   121  ILE121      0.2260
     87  O         20.3760   -1.3990   15.5640 O.2   121  ILE121     -0.2867
     88  CB        22.4110    1.2400   15.6700 C.3   121  ILE121      0.0252
     89  CG1       22.7080    2.4900   14.8330 C.3   121  ILE121      0.0019
     90  CG2       23.2010    0.0280   15.1640 C.3   121  ILE121      0.0019
     91  CD1       24.1210    3.0170   14.9980 C.3   121  ILE121      0.0001
     92  N         17.3600   -1.8160   15.0700 N.3   124  ALA124     -0.1231
     93  CA        17.4620   -2.3270   13.7070 C.3   124  ALA124      0.1694
     94  C         18.1340   -3.7020   13.7000 C.2   124  ALA124      0.2591
     95  O         17.6850   -4.6240   13.0190 O.2   124  ALA124     -0.2718
     96  CB        18.2220   -1.3490   12.8320 C.3   124  ALA124      0.0304
     97  N         19.2100   -3.8360   14.4690 N.am  125  VAL125     -0.1980
     98  CA        19.9150   -5.1020   14.5580 C.3   125  VAL125      0.1595
     99  C         19.0010   -6.1870   15.1250 C.2   125  VAL125      0.2287
    100  O         18.9770   -7.3160   14.6340 O.2   125  VAL125     -0.2864
    101  CB        21.1780   -4.9670   15.4200 C.3   125  VAL125      0.0276
    102  CG1       21.7470   -6.3360   15.7350 C.3   125  VAL125      0.0022
    103  CG2       22.2120   -4.1000   14.7080 C.3   125  VAL125      0.0022
    104  N         16.4940   -7.4630   12.5270 N.3   128  GLY128     -0.1210
    105  CA        17.1270   -8.3830   11.6040 C.3   128  GLY128      0.1956
    106  C         17.4040   -9.7260   12.2500 C.2   128  GLY128      0.2611
    107  O         17.1260  -10.7710   11.6600 O.2   128  GLY128     -0.2717
    108  N         17.9420   -9.6980   13.4680 N.am  129  HIS129     -0.1975
    109  CA        18.2970  -10.9230   14.1790 C.3   129  HIS129      0.1656
    110  C         17.0840  -11.8360   14.3440 C.2   129  HIS129      0.2291
    111  O         17.1830  -13.0530   14.1570 O.2   129  HIS129     -0.2864
    112  CB        18.9080  -10.5840   15.5450 C.3   129  HIS129      0.0771
    113  CG        19.5490  -11.7480   16.2380 C.ar  129  HIS129      0.0820
    114  ND1       19.3800  -13.0530   15.8260 N.ar  129  HIS129     -0.2267
    115  CD2       20.3630  -11.7990   17.3190 C.ar  129  HIS129      0.1154
    116  CE1       20.0610  -13.8570   16.6230 C.ar  129  HIS129      0.1986
    117  NE2       20.6670  -13.1210   17.5380 N.ar  129  HIS129     -0.2212
    118  N         15.5820   -8.0000    5.4010 N.3   152  GLU152     -0.1231
    119  CA        16.6710   -7.3520    6.1270 C.3   152  GLU152      0.1699
    120  C         17.8020   -8.3380    6.4320 C.2   152  GLU152      0.2592
    121  O         18.9670   -8.1220    6.0670 O.2   152  GLU152     -0.2718
    122  CB        16.1320   -6.7160    7.4200 C.3   152  GLU152      0.0402
    123  CG        15.3200   -5.4280    7.2090 C.3   152  GLU152      0.1161
    124  CD        13.9140   -5.6550    6.6510 C.2   152  GLU152      0.3649
    125  OE1       13.3880   -6.7810    6.7550 O.co2 152  GLU152     -0.2457
    126  OE2       13.3290   -4.6950    6.1050 O.co2 152  GLU152     -0.2457
    127  N         17.4640   -9.4320    7.1070 N.am  153  LEU153     -0.1980
    128  CA        18.4700  -10.4260    7.4320 C.3   153  LEU153      0.1596
    129  C         19.0780  -11.0210    6.1610 C.2   153  LEU153      0.2287
    130  O         20.2880  -11.2090    6.0760 O.2   153  LEU153     -0.2864
    131  CB        17.8860  -11.5210    8.3400 C.3   153  LEU153      0.0297
    132  CG        18.8050  -12.7140    8.6140 C.3   153  LEU153      0.0022
    133  CD1       20.1130  -12.3070    9.2670 C.3   153  LEU153      0.0001
    134  CD2       18.0730  -13.7280    9.4880 C.3   153  LEU153      0.0001
    135  N         21.7550   -8.8080    4.5990 N.3   156  ALA156     -0.1245
    136  CA        22.9630   -8.7970    5.4160 C.3   156  ALA156      0.1562
    137  C         23.8720   -9.9970    5.1390 C.2   156  ALA156      0.2260
    138  O         25.0900   -9.9090    5.3290 O.2   156  ALA156     -0.2867
    139  CB        22.5960   -8.7250    6.9060 C.3   156  ALA156      0.0290
    140  N         16.1830    5.1170    9.6320 N.3   181  LEU181     -0.1245
    141  CA        17.5690    4.6830    9.5000 C.3   181  LEU181      0.1561
    142  C         17.6440    3.8580    8.2230 C.2   181  LEU181      0.2260
    143  O         16.9740    2.8320    8.1010 O.2   181  LEU181     -0.2867
    144  CB        17.9570    3.8090   10.6940 C.3   181  LEU181      0.0270
    145  CG        19.3170    3.1140   10.6240 C.3   181  LEU181      0.0019
    146  CD1       20.4520    4.1250   10.6350 C.3   181  LEU181      0.0001
    147  CD2       19.4390    2.1530   11.8010 C.3   181  LEU181      0.0001
    148  N         19.9590    1.8990    5.3000 N.3   183  CYS183     -0.1235
    149  CA        21.2530    1.3310    4.9360 C.3   183  CYS183      0.1677
    150  C         21.2630    0.9030    3.4840 C.2   183  CYS183      0.2270
    151  O         20.4320    0.0820    3.0630 O.2   183  CYS183     -0.2867
    152  CB        21.5990    0.1360    5.8200 C.3   183  CYS183      0.0956
    153  SG        21.9930    0.6100    7.5280 S.3   183  CYS183     -0.0801
    154  N         23.3470   -1.0490    0.5170 N.3   185  PHE185     -0.1241
    155  CA        24.3290   -2.1170    0.3600 C.3   185  PHE185      0.1605
    156  C         24.8350   -2.1540   -1.0830 C.2   185  PHE185      0.2264
    157  O         24.1900   -1.6510   -1.9990 O.2   185  PHE185     -0.2867
    158  CB        23.7040   -3.4660    0.7210 C.3   185  PHE185      0.0534
    159  CG        23.3590   -3.6260    2.1820 C.ar  185  PHE185     -0.0203
    160  CD1       24.1340   -4.4380    2.9990 C.ar  185  PHE185     -0.0042
    161  CD2       22.2490   -2.9920    2.7340 C.ar  185  PHE185     -0.0042
    162  CE1       23.8270   -4.6010    4.3470 C.ar  185  PHE185     -0.0003
    163  CE2       21.9370   -3.1570    4.0860 C.ar  185  PHE185     -0.0003
    164  CZ        22.7220   -3.9630    4.8810 C.ar  185  PHE185     -0.0000
@<TRIPOS>BOND
     1   157   156    2
     2   156   155    1
     3   155   154    1
     4   155   158    1
     5   158   159    1
     6   159   161   ar
     7   159   160   ar
     8   161   163   ar
     9    65    66    1
    10   160   162   ar
    11   151   150    2
    12   150   149    1
    13    72    70    1
    14    66    67    1
    15    66    69    1
    16   163   164   ar
    17   162   164   ar
    18    70    69    1
    19    70    71    1
    20   135   136    1
    21    67    68    2
    22   149   148    1
    23   149   152    1
    24   137   138    2
    25   137   136    1
    26   118   119    1
    27   136   139    1
    28   152   153    1
    29   121   120    2
    30   130   129    2
    31   126   124   ar
    32   119   120    1
    33   119   122    1
    34   129   128    1
    35   120   127   am
    36   124   125   ar
    37   124   123    1
    38   127   128    1
    39   123   122    1
    40   128   131    1
    41    24    22    1
    42    25    23    1
    43   143   142    2
    44   142   141    1
    45    73    74    1
    46   131   132    1
    47   132   133    1
    48   132   134    1
    49    82    83   ar
    50    82    80   ar
    51    23    22    1
    52    22    19    1
    53    83    81   ar
    54    80    78   ar
    55    21    20    2
    56   141   140    1
    57   141   144    1
    58    74    75    1
    59    74    77    1
    60    20    19    1
    61    81    79   ar
    62    19    18    1
    63     7     5    1
    64    78    79   ar
    65    78    77    1
    66    39    38    1
    67    37    36    2
    68    75    76    2
    69    36    35    1
    70   145   146    1
    71   145   144    1
    72   145   147    1
    73    54    53    2
    74    40    38    1
    75    43    44    2
    76    43    42    1
    77    38    35    1
    78     5     6    1
    79     5     2    1
    80    18    11   am
    81     8     6    1
    82    53    52    1
    83     4     3    2
    84    41    42    1
    85    35    34    1
    86     3     2    1
    87    61    63   ar
    88    61    58   ar
    89   105   106    1
    90   105   104    1
    91   107   106    2
    92    63    64   ar
    93    55    52    1
    94    55    56    1
    95    34    28   am
    96    42    45    1
    97    26    27    1
    98     2     1    1
    99   106   108   am
   100    52    51    1
   101    12    11    2
   102    11    10    1
   103    28    29    2
   104    28    27    1
   105    58    56   ar
   106    58    60   ar
   107    96    93    1
   108    56    57   ar
   109    64    62   ar
   110    95    94    2
   111    45    46    1
   112    27    30    1
   113   108   109    1
   114     9    10    1
   115    10    13    1
   116    94    93    1
   117    94    97   am
   118    93    92    1
   119    60    62   ar
   120    60    59   ar
   121    46    48   ar
   122    46    47   ar
   123    48    50   ar
   124    57    59   ar
   125   111   110    2
   126    13    14    1
   127   109   110    1
   128   109   112    1
   129    30    31    1
   130    97    98    1
   131    98    99    1
   132    98   101    1
   133   100    99    2
   134   103   101    1
   135    89    91    1
   136    89    88    1
   137    47    49   ar
   138    32    31   ar
   139    50    49   ar
   140    90    88    1
   141    31    33   ar
   142   101   102    1
   143   112   113    1
   144    87    86    2
   145    14    15    1
   146    85    88    1
   147    85    86    1
   148    85    84    1
   149   114   113   ar
   150   114   116   ar
   151   113   115   ar
   152    15    16    1
   153   116   117   ar
   154   115   117   ar
   155    16    17    1
