@<TRIPOS>MOLECULE
tmp/3u3oA01.pdb
 112 111 0 0 0
SMALL
GASTEIGER

@<TRIPOS>ATOM
      1  N         27.8530   17.9960    9.6250 N.3    69  PHE69      -0.1227
      2  CA        27.1440   19.2770    9.8340 C.3    69  PHE69       0.1736
      3  C         28.0690   20.4170   10.3540 C.2    69  PHE69       0.2595
      4  O         27.6970   21.5900   10.2430 O.2    69  PHE69      -0.2718
      5  CB        25.8560   19.1100   10.7030 C.3    69  PHE69       0.0547
      6  CG        26.1100   18.4730   12.0380 C.ar   69  PHE69      -0.0202
      7  CD1       25.8030   17.1350   12.2310 C.ar   69  PHE69      -0.0042
      8  CD2       26.6850   19.1920   13.0780 C.ar   69  PHE69      -0.0042
      9  CE1       26.0800   16.4930   13.4270 C.ar   69  PHE69      -0.0003
     10  CE2       26.9550   18.5800   14.3280 C.ar   69  PHE69      -0.0003
     11  CZ        26.6350   17.2090   14.4950 C.ar   69  PHE69      -0.0000
     12  N         29.2640   20.0790   10.8960 N.am   70  MET70      -0.1979
     13  CA        30.2460   21.0900   11.2360 C.3    70  MET70       0.1605
     14  C         31.2020   21.3250   10.0410 C.2    70  MET70       0.2287
     15  O         31.6000   22.4510    9.7660 O.2    70  MET70      -0.2864
     16  CB        31.0010   20.6980   12.5160 C.3    70  MET70       0.0413
     17  CG        30.0700   20.5210   13.7430 C.3    70  MET70       0.0598
     18  SD        29.4610   22.1150   14.3730 S.3    70  MET70      -0.1393
     19  CE        28.0300   22.4400   13.4090 C.3    70  MET70       0.0692
     20  N         25.2730   24.3630    7.4070 N.3    74  PHE74      -0.1241
     21  CA        23.8850   24.3230    6.9060 C.3    74  PHE74       0.1605
     22  C         23.4070   25.8230    7.0920 C.2    74  PHE74       0.2264
     23  O         23.1960   26.2690    8.2220 O.2    74  PHE74      -0.2867
     24  CB        23.1550   23.3300    7.8030 C.3    74  PHE74       0.0534
     25  CG        21.7310   23.0980    7.4580 C.ar   74  PHE74      -0.0203
     26  CD1       20.9540   22.2980    8.3010 C.ar   74  PHE74      -0.0042
     27  CD2       21.1300   23.6900    6.3260 C.ar   74  PHE74      -0.0042
     28  CE1       19.6140   22.0780    8.0800 C.ar   74  PHE74      -0.0003
     29  CE2       19.7600   23.4560    6.0730 C.ar   74  PHE74      -0.0003
     30  CZ        19.0040   22.6560    6.9210 C.ar   74  PHE74      -0.0000
     31  N         20.4270   26.9360    9.2380 N.3    77  PHE77      -0.1241
     32  CA        20.2270   26.0940   10.4090 C.3    77  PHE77       0.1605
     33  C         20.2300   26.9120   11.6920 C.2    77  PHE77       0.2264
     34  O         21.0820   27.7730   11.8600 O.2    77  PHE77      -0.2867
     35  CB        21.3320   24.9950   10.5680 C.3    77  PHE77       0.0534
     36  CG        21.1130   24.1540   11.8080 C.ar   77  PHE77      -0.0203
     37  CD1       20.0840   23.1760   11.8300 C.ar   77  PHE77      -0.0042
     38  CD2       21.8610   24.3770   12.9280 C.ar   77  PHE77      -0.0042
     39  CE1       19.8420   22.4560   12.9850 C.ar   77  PHE77      -0.0003
     40  CE2       21.5950   23.6690   14.1270 C.ar   77  PHE77      -0.0003
     41  CZ        20.6170   22.7200   14.1470 C.ar   77  PHE77      -0.0000
     42  N         22.0850   24.9640   20.2610 N.3    82  ILE82      -0.1231
     43  CA        23.0140   24.4100   19.2440 C.3    82  ILE82       0.1678
     44  C         23.5350   25.6100   18.3870 C.2    82  ILE82       0.2434
     45  O         22.7540   26.5200   18.0510 O.2    82  ILE82      -0.2733
     46  CB        22.2740   23.3410   18.3550 C.3    82  ILE82       0.0265
     47  CG1       21.8360   22.1030   19.1360 C.3    82  ILE82       0.0019
     48  CG2       23.1150   22.8670   17.2560 C.3    82  ILE82       0.0020
     49  CD1       22.9400   21.4880   20.0200 C.3    82  ILE82       0.0001
     50  N         24.8430   25.6570   18.0450 N.am   83  PRO83      -0.2729
     51  CA        25.2120   26.8430   17.2460 C.3    83  PRO83       0.1401
     52  C         24.5160   26.8480   15.8750 C.2    83  PRO83       0.2269
     53  O         24.2510   25.7730   15.2880 O.2    83  PRO83      -0.2865
     54  CB        26.7280   26.6830   17.0160 C.3    83  PRO83       0.0296
     55  CG        27.2020   25.7130   18.1770 C.3    83  PRO83       0.0237
     56  CD        25.9820   24.7400   18.2320 C.3    83  PRO83       0.0939
     57  N         23.9640   27.6800   11.7440 N.3    85  GLY85      -0.1225
     58  CA        24.8030   27.5340   10.4980 C.3    85  GLY85       0.1811
     59  C         25.6710   28.7590   10.3430 C.2    85  GLY85       0.2280
     60  O         26.8710   28.6500   10.0370 O.2    85  GLY85      -0.2866
     61  N         24.8070   11.3270   11.9080 N.3   233  TYR233     -0.1241
     62  CA        24.0190   12.1720   12.8060 C.3   233  TYR233      0.1605
     63  C         23.7890   11.5890   14.2280 C.2   233  TYR233      0.2264
     64  O         22.9390   12.0830   14.9960 O.2   233  TYR233     -0.2867
     65  CB        22.6780   12.5990   12.1240 C.3   233  TYR233      0.0534
     66  CG        22.8440   13.7320   11.1460 C.ar  233  TYR233     -0.0201
     67  CD1       23.3640   13.5130    9.8650 C.ar  233  TYR233     -0.0009
     68  CD2       22.5320   15.0600   11.5110 C.ar  233  TYR233     -0.0009
     69  CE1       23.5440   14.6270    8.9450 C.ar  233  TYR233      0.0417
     70  CE2       22.6890   16.1400   10.6130 C.ar  233  TYR233      0.0417
     71  CZ        23.2010   15.8950    9.3250 C.ar  233  TYR233      0.1957
     72  OH        23.4070   16.9400    8.4120 O.3   233  TYR233     -0.2866
     73  N         25.7640   11.8550   16.7800 N.3   235  THR235     -0.1203
     74  CA        26.2760   12.7490   17.8380 C.3   235  THR235      0.1994
     75  C         25.3610   13.9450   18.1650 C.2   235  THR235      0.2618
     76  O         25.6030   14.6580   19.1330 O.2   235  THR235     -0.2717
     77  CB        27.6840   13.3400   17.5230 C.3   235  THR235      0.1784
     78  OG1       27.5730   14.3040   16.4760 O.3   235  THR235     -0.2211
     79  CG2       28.6860   12.2290   17.0910 C.3   235  THR235      0.0376
     80  N         24.3270   14.1980   17.3660 N.am  236  VAL236     -0.1966
     81  CA        23.4380   15.3070   17.6930 C.3   236  VAL236      0.1712
     82  C         22.6000   14.9760   18.9520 C.2   236  VAL236      0.2458
     83  O         22.3250   13.7910   19.2320 O.2   236  VAL236     -0.2730
     84  CB        22.5640   15.8540   16.5220 C.3   236  VAL236      0.0289
     85  CG1       23.1440   15.6180   15.1040 C.3   236  VAL236      0.0023
     86  CG2       21.1670   15.4250   16.6260 C.3   236  VAL236      0.0023
     87  N         22.2350   16.0080   19.7340 N.am  237  PRO237     -0.2727
     88  CA        21.5030   15.7200   20.9960 C.3   237  PRO237      0.1402
     89  C         20.1930   14.9140   20.8150 C.2   237  PRO237      0.2269
     90  O         19.3940   15.2050   19.9040 O.2   237  PRO237     -0.2865
     91  CB        21.1940   17.1380   21.5170 C.3   237  PRO237      0.0296
     92  CG        22.3560   17.9470   21.0530 C.3   237  PRO237      0.0237
     93  CD        22.5620   17.4470   19.6200 C.3   237  PRO237      0.0939
     94  N         16.9660   16.6250   19.9390 N.3   240  PHE240     -0.1227
     95  CA        16.7170   17.0110   18.5520 C.3   240  PHE240      0.1736
     96  C         16.4560   15.8710   17.5680 C.2   240  PHE240      0.2595
     97  O         15.5360   15.9800   16.7890 O.2   240  PHE240     -0.2718
     98  CB        17.7350   18.0290   18.0450 C.3   240  PHE240      0.0547
     99  CG        17.6800   19.3170   18.8200 C.ar  240  PHE240     -0.0202
    100  CD1       18.7530   19.7070   19.6550 C.ar  240  PHE240     -0.0042
    101  CD2       16.5210   20.1260   18.7870 C.ar  240  PHE240     -0.0042
    102  CE1       18.6870   20.9140   20.4370 C.ar  240  PHE240     -0.0003
    103  CE2       16.4480   21.3130   19.5470 C.ar  240  PHE240     -0.0003
    104  CZ        17.5570   21.7040   20.3730 C.ar  240  PHE240     -0.0000
    105  N         17.2300   14.7780   17.6120 N.am  241  MET241     -0.1979
    106  CA        17.0000   13.6480   16.7120 C.3   241  MET241      0.1605
    107  C         17.0220   12.3670   17.5430 C.2   241  MET241      0.2287
    108  O         17.9980   12.1280   18.2730 O.2   241  MET241     -0.2864
    109  CB        18.1160   13.5430   15.6660 C.3   241  MET241      0.0413
    110  CG        18.1160   14.6370   14.5900 C.3   241  MET241      0.0598
    111  SD        19.2670   14.1260   13.2960 S.3   241  MET241     -0.1393
    112  CE        19.0150   15.5200   12.2410 C.3   241  MET241      0.0692
@<TRIPOS>BOND
     1    29    27   ar
     2    29    30   ar
     3    27    25   ar
     4    21    22    1
     5    21    20    1
     6    21    24    1
     7    30    28   ar
     8    22    23    2
     9    25    24    1
    10    25    26   ar
    11    28    26   ar
    12    72    71    1
    13    69    71   ar
    14    69    67   ar
    15    31    32    1
    16    71    70   ar
    17     1     2    1
    18    15    14    2
    19     2     3    1
    20     2     5    1
    21    67    66   ar
    22    60    59    2
    23    14    13    1
    24     4     3    2
    25    59    58    1
    26     3    12   am
    27    32    35    1
    28    32    33    1
    29    58    57    1
    30    35    36    1
    31    70    68   ar
    32     5     6    1
    33    12    13    1
    34    66    68   ar
    35    66    65    1
    36    13    16    1
    37    33    34    2
    38    36    37   ar
    39    36    38   ar
    40    37    39   ar
    41    61    62    1
    42     6     7   ar
    43     6     8   ar
    44    65    62    1
    45     7     9   ar
    46   112   111    1
    47    16    17    1
    48    62    63    1
    49    38    40   ar
    50    39    41   ar
    51     8    10   ar
    52   111   110    1
    53    19    18    1
    54     9    11   ar
    55    17    18    1
    56    40    41   ar
    57    63    64    2
    58    10    11   ar
    59   110   109    1
    60    85    84    1
    61    53    52    2
    62   109   106    1
    63    52    51    1
    64    78    77    1
    65    84    86    1
    66    84    81    1
    67   106   107    1
    68   106   105    1
    69    73    74    1
    70    97    96    2
    71    54    51    1
    72    54    55    1
    73    79    77    1
    74    51    50    1
    75    48    46    1
    76    80    81    1
    77    80    75   am
    78    77    74    1
    79   107   108    2
    80    96   105   am
    81    96    95    1
    82    81    82    1
    83    74    75    1
    84    98    95    1
    85    98    99    1
    86    50    56    1
    87    50    44   am
    88    45    44    2
    89    75    76    2
    90    55    56    1
    91    46    47    1
    92    46    43    1
    93    44    43    1
    94    95    94    1
    95   101    99   ar
    96   101   103   ar
    97    99   100   ar
    98    82    83    2
    99    82    87   am
   100    47    49    1
   101    43    42    1
   102   103   104   ar
   103    93    87    1
   104    93    92    1
   105   100   102   ar
   106    87    88    1
   107    90    89    2
   108   104   102   ar
   109    89    88    1
   110    88    91    1
   111    92    91    1
