@<TRIPOS>MOLECULE
tmp/3u3oA00.pdb
 194 188 0 0 0
SMALL
GASTEIGER

@<TRIPOS>ATOM
      1  N         10.5950   25.4120    9.2940 N.3    14  ILE14      -0.1245
      2  CA        10.7980   25.2400   10.7210 C.3    14  ILE14       0.1561
      3  C         10.9570   26.6360   11.3620 C.2    14  ILE14       0.2260
      4  O         11.6520   27.5060   10.8210 O.2    14  ILE14      -0.2867
      5  CB        12.0120   24.3060   10.9180 C.3    14  ILE14       0.0252
      6  CG1       11.5730   22.8670   10.6740 C.3    14  ILE14       0.0019
      7  CG2       12.6280   24.4380   12.3010 C.3    14  ILE14       0.0019
      8  CD1       12.6900   22.0150   10.0260 C.3    14  ILE14       0.0001
      9  N         14.4080   27.9630   11.7350 N.3    17  PHE17      -0.1241
     10  CA        15.1480   28.2780   10.4770 C.3    17  PHE17       0.1605
     11  C         14.6220   29.6070    9.9180 C.2    17  PHE17       0.2264
     12  O         15.3850   30.4200    9.3660 O.2    17  PHE17      -0.2867
     13  CB        14.9630   27.1540    9.4560 C.3    17  PHE17       0.0534
     14  CG        15.5740   25.8150    9.8570 C.ar   17  PHE17      -0.0203
     15  CD1       16.0100   25.5490   11.1980 C.ar   17  PHE17      -0.0042
     16  CD2       15.6580   24.7780    8.9020 C.ar   17  PHE17      -0.0042
     17  CE1       16.5710   24.3010   11.5630 C.ar   17  PHE17      -0.0003
     18  CE2       16.2200   23.5060    9.2560 C.ar   17  PHE17      -0.0003
     19  CZ        16.7070   23.2780   10.6240 C.ar   17  PHE17      -0.0000
     20  N         14.7940   18.5210    0.9530 N.3    40  PRO40      -0.2102
     21  CA        15.1640   17.5360    1.9690 C.3    40  PRO40       0.1504
     22  C         15.0500   16.0730    1.5150 C.2    40  PRO40       0.2575
     23  O         14.1410   15.7160    0.7460 O.2    40  PRO40      -0.2718
     24  CB        14.2100   17.8560    3.1430 C.3    40  PRO40       0.0282
     25  CG        13.9550   19.3810    2.9790 C.3    40  PRO40       0.0208
     26  CD        13.9140   19.6030    1.4620 C.3    40  PRO40       0.0893
     27  N         15.9310   15.2410    2.0560 N.am   41  LYS41      -0.1980
     28  CA        15.9100   13.7740    1.9480 C.3    41  LYS41       0.1596
     29  C         16.2790   13.2730    0.5340 C.2    41  LYS41       0.2287
     30  O         15.9160   12.1470    0.1430 O.2    41  LYS41      -0.2864
     31  CB        14.5430   13.1470    2.3660 C.3    41  LYS41       0.0298
     32  CG        13.9200   13.7760    3.6030 C.3    41  LYS41       0.0038
     33  CD        14.8960   14.0340    4.7570 C.3    41  LYS41       0.0206
     34  CE        15.6520   12.7100    5.1800 C.3    41  LYS41       0.1093
     35  NZ        16.8070   13.0770    6.1240 N.3    41  LYS41      -0.1314
     36  N         21.5560   14.8440    0.4020 N.3    44  THR44      -0.1218
     37  CA        22.3740   15.9640    0.8720 C.3    44  THR44       0.1862
     38  C         23.6300   15.4630    1.6120 C.2    44  THR44       0.2287
     39  O         24.7520   15.9230    1.3350 O.2    44  THR44      -0.2866
     40  CB        21.6070   16.9140    1.8790 C.3    44  THR44       0.1770
     41  OG1       20.2570   17.0980    1.4180 O.3    44  THR44      -0.2211
     42  CG2       22.2930   18.3270    1.8920 C.3    44  THR44       0.0375
     43  N         25.2730   24.3630    7.4070 N.3    74  PHE74      -0.1241
     44  CA        23.8850   24.3230    6.9060 C.3    74  PHE74       0.1605
     45  C         23.4070   25.8230    7.0920 C.2    74  PHE74       0.2264
     46  O         23.1960   26.2690    8.2220 O.2    74  PHE74      -0.2867
     47  CB        23.1550   23.3300    7.8030 C.3    74  PHE74       0.0534
     48  CG        21.7310   23.0980    7.4580 C.ar   74  PHE74      -0.0203
     49  CD1       20.9540   22.2980    8.3010 C.ar   74  PHE74      -0.0042
     50  CD2       21.1300   23.6900    6.3260 C.ar   74  PHE74      -0.0042
     51  CE1       19.6140   22.0780    8.0800 C.ar   74  PHE74      -0.0003
     52  CE2       19.7600   23.4560    6.0730 C.ar   74  PHE74      -0.0003
     53  CZ        19.0040   22.6560    6.9210 C.ar   74  PHE74      -0.0000
     54  N         20.4270   26.9360    9.2380 N.3    77  PHE77      -0.1241
     55  CA        20.2270   26.0940   10.4090 C.3    77  PHE77       0.1605
     56  C         20.2300   26.9120   11.6920 C.2    77  PHE77       0.2264
     57  O         21.0820   27.7730   11.8600 O.2    77  PHE77      -0.2867
     58  CB        21.3320   24.9950   10.5680 C.3    77  PHE77       0.0534
     59  CG        21.1130   24.1540   11.8080 C.ar   77  PHE77      -0.0203
     60  CD1       20.0840   23.1760   11.8300 C.ar   77  PHE77      -0.0042
     61  CD2       21.8610   24.3770   12.9280 C.ar   77  PHE77      -0.0042
     62  CE1       19.8420   22.4560   12.9850 C.ar   77  PHE77      -0.0003
     63  CE2       21.5950   23.6690   14.1270 C.ar   77  PHE77      -0.0003
     64  CZ        20.6170   22.7200   14.1470 C.ar   77  PHE77      -0.0000
     65  N         18.8980   25.9040   16.0580 N.3    79  ALA79      -0.1245
     66  CA        18.0780   25.1320   17.0200 C.3    79  ALA79       0.1562
     67  C         18.5230   25.5330   18.4380 C.2    79  ALA79       0.2260
     68  O         19.6880   25.9100   18.6330 O.2    79  ALA79      -0.2867
     69  CB        18.1440   23.5840   16.7970 C.3    79  ALA79       0.0290
     70  N         25.7110   24.1780    2.7790 N.3    99  LYS99      -0.1245
     71  CA        24.5310   23.3420    2.4810 C.3    99  LYS99       0.1561
     72  C         23.2790   24.1850    2.6740 C.2    99  LYS99       0.2260
     73  O         23.2280   25.0320    3.5590 O.2    99  LYS99      -0.2867
     74  CB        24.4680   22.1290    3.4780 C.3    99  LYS99       0.0271
     75  CG        23.0460   21.5210    3.6790 C.3    99  LYS99       0.0035
     76  CD        22.9790   20.5260    4.9450 C.3    99  LYS99       0.0206
     77  CE        21.5200   20.1560    5.2840 C.3    99  LYS99       0.1093
     78  NZ        21.4870   19.0540    6.3270 N.3    99  LYS99      -0.1314
     79  N         18.5980   23.9390    1.9390 N.3   101  HIS101     -0.1241
     80  CA        17.4170   23.4870    1.2460 C.3   101  HIS101      0.1621
     81  C         16.5230   24.6370    0.7910 C.2   101  HIS101      0.2264
     82  O         15.3650   24.3680    0.3490 O.2   101  HIS101     -0.2867
     83  CB        16.5570   22.6350    2.1960 C.3   101  HIS101      0.0745
     84  CG        17.2550   21.4560    2.7470 C.ar  101  HIS101      0.0817
     85  ND1       17.8690   20.4950    1.9410 N.ar  101  HIS101     -0.2268
     86  CD2       17.4820   21.0860    4.0350 C.ar  101  HIS101      0.1154
     87  CE1       18.4180   19.5770    2.7170 C.ar  101  HIS101      0.1986
     88  NE2       18.1260   19.8660    3.9880 N.ar  101  HIS101     -0.2212
     89  N         10.9930   11.4310    3.9910 N.3   132  TYR132     -0.1241
     90  CA        10.6750   12.6370    4.7260 C.3   132  TYR132      0.1605
     91  C          9.6500   12.3080    5.8820 C.2   132  TYR132      0.2264
     92  O          9.7260   12.8600    6.9840 O.2   132  TYR132     -0.2867
     93  CB        10.0990   13.7090    3.8070 C.3   132  TYR132      0.0534
     94  CG        10.3270   15.1580    4.2020 C.ar  132  TYR132     -0.0201
     95  CD1       11.1270   15.5090    5.3050 C.ar  132  TYR132     -0.0009
     96  CD2        9.8460   16.2010    3.3840 C.ar  132  TYR132     -0.0009
     97  CE1       11.3920   16.8760    5.6260 C.ar  132  TYR132      0.0417
     98  CE2       10.1130   17.5830    3.6850 C.ar  132  TYR132      0.0417
     99  CZ        10.8330   17.8950    4.7960 C.ar  132  TYR132      0.1957
    100  OH        11.1010   19.2380    5.0380 O.3   132  TYR132     -0.2866
    101  N         11.7340   10.8270    8.6390 N.3   135  PHE135     -0.1241
    102  CA        12.5090   11.9190    9.2170 C.3   135  PHE135      0.1605
    103  C         11.7070   12.8360   10.1730 C.2   135  PHE135      0.2264
    104  O         12.2230   13.2560   11.2300 O.2   135  PHE135     -0.2867
    105  CB        13.0720   12.7880    8.0870 C.3   135  PHE135      0.0534
    106  CG        14.1230   13.7830    8.5350 C.ar  135  PHE135     -0.0203
    107  CD1       15.2860   13.3380    9.2020 C.ar  135  PHE135     -0.0042
    108  CD2       13.9990   15.1570    8.2120 C.ar  135  PHE135     -0.0042
    109  CE1       16.3170   14.2690    9.6000 C.ar  135  PHE135     -0.0003
    110  CE2       15.0620   16.0900    8.5540 C.ar  135  PHE135     -0.0003
    111  CZ        16.1970   15.6300    9.2600 C.ar  135  PHE135     -0.0000
    112  N         13.1040   13.6230   13.8640 N.3   139  ALA139     -0.1245
    113  CA        13.7420   14.9410   13.9630 C.3   139  ALA139      0.1562
    114  C         12.6880   15.8290   14.5530 C.2   139  ALA139      0.2260
    115  O         11.7350   16.2960   13.8720 O.2   139  ALA139     -0.2867
    116  CB        14.2230   15.5030   12.5690 C.3   139  ALA139      0.0290
    117  N         12.3470   18.8900   15.7810 N.3   141  VAL141     -0.1231
    118  CA        11.9460   20.2920   15.4310 C.3   141  VAL141      0.1692
    119  C         10.7650   20.3930   14.4120 C.2   141  VAL141      0.2592
    120  O         10.2620   21.5170   14.1260 O.2   141  VAL141     -0.2718
    121  CB        13.1170   21.1170   14.8320 C.3   141  VAL141      0.0266
    122  CG1       14.2480   21.3860   15.8700 C.3   141  VAL141      0.0020
    123  CG2       13.7050   20.4490   13.5510 C.3   141  VAL141      0.0020
    124  N         10.3530   19.2680   13.8130 N.am  142  HIS142     -0.1976
    125  CA         9.2340   19.2810   12.8290 C.3   142  HIS142      0.1656
    126  C          7.9200   19.1530   13.5930 C.2   142  HIS142      0.2291
    127  O          7.9090   18.5580   14.6530 O.2   142  HIS142     -0.2864
    128  CB         9.3440   18.1000   11.8580 C.3   142  HIS142      0.0771
    129  CG        10.5460   18.1690   10.9740 C.ar  142  HIS142      0.0820
    130  ND1       11.7430   17.5530   11.2920 N.ar  142  HIS142     -0.2267
    131  CD2       10.7320   18.7750    9.7630 C.ar  142  HIS142      0.1154
    132  CE1       12.6240   17.8150   10.3380 C.ar  142  HIS142      0.1986
    133  NE2       12.0170   18.5010    9.3720 N.ar  142  HIS142     -0.2212
    134  N          9.9070   23.4020    4.0940 N.3   162  TYR162     -0.1241
    135  CA        10.5240   23.8840    2.8310 C.3   162  TYR162      0.1605
    136  C          9.5960   23.8460    1.5990 C.2   162  TYR162      0.2264
    137  O         10.0670   24.0080    0.4480 O.2   162  TYR162     -0.2867
    138  CB        11.8020   23.1270    2.5010 C.3   162  TYR162      0.0534
    139  CG        12.9670   23.4360    3.4160 C.ar  162  TYR162     -0.0201
    140  CD1       13.6870   24.6280    3.3010 C.ar  162  TYR162     -0.0009
    141  CD2       13.3420   22.5390    4.3870 C.ar  162  TYR162     -0.0009
    142  CE1       14.8030   24.8650    4.1460 C.ar  162  TYR162      0.0417
    143  CE2       14.4820   22.7410    5.2070 C.ar  162  TYR162      0.0417
    144  CZ        15.1780   23.9150    5.0720 C.ar  162  TYR162      0.1957
    145  OH        16.3400   24.0790    5.8110 O.3   162  TYR162     -0.2866
    146  N         24.8070   11.3270   11.9080 N.3   233  TYR233     -0.1241
    147  CA        24.0190   12.1720   12.8060 C.3   233  TYR233      0.1605
    148  C         23.7890   11.5890   14.2280 C.2   233  TYR233      0.2264
    149  O         22.9390   12.0830   14.9960 O.2   233  TYR233     -0.2867
    150  CB        22.6780   12.5990   12.1240 C.3   233  TYR233      0.0534
    151  CG        22.8440   13.7320   11.1460 C.ar  233  TYR233     -0.0201
    152  CD1       23.3640   13.5130    9.8650 C.ar  233  TYR233     -0.0009
    153  CD2       22.5320   15.0600   11.5110 C.ar  233  TYR233     -0.0009
    154  CE1       23.5440   14.6270    8.9450 C.ar  233  TYR233      0.0417
    155  CE2       22.6890   16.1400   10.6130 C.ar  233  TYR233      0.0417
    156  CZ        23.2010   15.8950    9.3250 C.ar  233  TYR233      0.1957
    157  OH        23.4070   16.9400    8.4120 O.3   233  TYR233     -0.2866
    158  N         24.3270   14.1980   17.3660 N.3   236  VAL236     -0.1245
    159  CA        23.4380   15.3070   17.6930 C.3   236  VAL236      0.1561
    160  C         22.6000   14.9760   18.9520 C.2   236  VAL236      0.2260
    161  O         22.3250   13.7910   19.2320 O.2   236  VAL236     -0.2867
    162  CB        22.5640   15.8540   16.5220 C.3   236  VAL236      0.0252
    163  CG1       23.1440   15.6180   15.1040 C.3   236  VAL236      0.0019
    164  CG2       21.1670   15.4250   16.6260 C.3   236  VAL236      0.0019
    165  N         16.9660   16.6250   19.9390 N.3   240  PHE240     -0.1227
    166  CA        16.7170   17.0110   18.5520 C.3   240  PHE240      0.1736
    167  C         16.4560   15.8710   17.5680 C.2   240  PHE240      0.2595
    168  O         15.5360   15.9800   16.7890 O.2   240  PHE240     -0.2718
    169  CB        17.7350   18.0290   18.0450 C.3   240  PHE240      0.0547
    170  CG        17.6800   19.3170   18.8200 C.ar  240  PHE240     -0.0202
    171  CD1       18.7530   19.7070   19.6550 C.ar  240  PHE240     -0.0042
    172  CD2       16.5210   20.1260   18.7870 C.ar  240  PHE240     -0.0042
    173  CE1       18.6870   20.9140   20.4370 C.ar  240  PHE240     -0.0003
    174  CE2       16.4480   21.3130   19.5470 C.ar  240  PHE240     -0.0003
    175  CZ        17.5570   21.7040   20.3730 C.ar  240  PHE240     -0.0000
    176  N         17.2300   14.7780   17.6120 N.am  241  MET241     -0.1979
    177  CA        17.0000   13.6480   16.7120 C.3   241  MET241      0.1605
    178  C         17.0220   12.3670   17.5430 C.2   241  MET241      0.2287
    179  O         17.9980   12.1280   18.2730 O.2   241  MET241     -0.2864
    180  CB        18.1160   13.5430   15.6660 C.3   241  MET241      0.0413
    181  CG        18.1160   14.6370   14.5900 C.3   241  MET241      0.0598
    182  SD        19.2670   14.1260   13.2960 S.3   241  MET241     -0.1393
    183  CE        19.0150   15.5200   12.2410 C.3   241  MET241      0.0692
    184  N         18.7100    8.1740   11.1000 N.3   248  PHE248     -0.1241
    185  CA        18.9490    9.0660    9.9790 C.3   248  PHE248      0.1605
    186  C         19.3840    8.3170    8.6910 C.2   248  PHE248      0.2264
    187  O         18.8700    8.5910    7.5900 O.2   248  PHE248     -0.2867
    188  CB        20.0010   10.1360   10.3340 C.3   248  PHE248      0.0534
    189  CG        20.1790   11.1890    9.2360 C.ar  248  PHE248     -0.0203
    190  CD1       19.5590   12.4470    9.3540 C.ar  248  PHE248     -0.0042
    191  CD2       20.9450   10.9350    8.1210 C.ar  248  PHE248     -0.0042
    192  CE1       19.7140   13.4710    8.3690 C.ar  248  PHE248     -0.0003
    193  CE2       21.0770   11.9290    7.0880 C.ar  248  PHE248     -0.0003
    194  CZ        20.4480   13.2110    7.2250 C.ar  248  PHE248     -0.0000
@<TRIPOS>BOND
     1    30    29    2
     2    82    81    2
     3    36    37    1
     4   137   136    2
     5    29    28    1
     6    23    22    2
     7    81    80    1
     8    37    38    1
     9    37    40    1
    10    20    26    1
    11    20    21    1
    12    80    79    1
    13    80    83    1
    14    39    38    2
    15    41    40    1
    16    26    25    1
    17    22    21    1
    18    22    27   am
    19   136   135    1
    20    40    42    1
    21    85    87   ar
    22    85    84   ar
    23    28    27    1
    24    28    31    1
    25    21    24    1
    26    83    84    1
    27    31    32    1
    28    71    72    1
    29    71    70    1
    30    71    74    1
    31   138   135    1
    32   138   139    1
    33    72    73    2
    34    87    88   ar
    35    84    86   ar
    36   135   134    1
    37    25    24    1
    38   140   139   ar
    39   140   142   ar
    40    96    98   ar
    41    96    94   ar
    42   139   141   ar
    43    74    75    1
    44    32    33    1
    45    75    76    1
    46    98    99   ar
    47    93    94    1
    48    93    90    1
    49    88    86   ar
    50    89    90    1
    51   142   144   ar
    52    94    95   ar
    53   141   143   ar
    54    90    91    1
    55    33    34    1
    56    99   100    1
    57    99    97   ar
    58    76    77    1
    59   144   143   ar
    60   144   145    1
    61    34    35    1
    62    77    78    1
    63    95    97   ar
    64    91    92    2
    65    52    50   ar
    66    52    53   ar
    67    50    48   ar
    68    44    45    1
    69    44    43    1
    70    44    47    1
    71    53    51   ar
    72   193   194   ar
    73   193   191   ar
    74    45    46    2
    75   194   192   ar
    76    48    47    1
    77    48    49   ar
    78   187   186    2
    79    51    49   ar
    80   105   106    1
    81   105   102    1
    82   191   189   ar
    83   108   106   ar
    84   108   110   ar
    85   192   190   ar
    86   157   156    1
    87   106   107   ar
    88   110   111   ar
    89   101   102    1
    90   186   185    1
    91    16    18   ar
    92    16    14   ar
    93   154   156   ar
    94   154   152   ar
    95   107   109   ar
    96   102   103    1
    97   189   190   ar
    98   189   188    1
    99    54    55    1
   100    18    19   ar
   101   111   109   ar
   102     1     2    1
   103   156   155   ar
   104    12    11    2
   105   133   131   ar
   106   133   132   ar
   107    13    14    1
   108    13    10    1
   109   131   129   ar
   110    14    15   ar
   111   152   151   ar
   112    11    10    1
   113   185   188    1
   114   185   184    1
   115     8     6    1
   116   103   104    2
   117   132   130   ar
   118    55    58    1
   119    55    56    1
   120    10     9    1
   121    58    59    1
   122   155   153   ar
   123    19    17   ar
   124     6     5    1
   125     2     5    1
   126     2     3    1
   127     4     3    2
   128     5     7    1
   129   129   130   ar
   130   129   128    1
   131   151   153   ar
   132   151   150    1
   133    15    17   ar
   134    56    57    2
   135    59    60   ar
   136    59    61   ar
   137    60    62   ar
   138   128   125    1
   139   146   147    1
   140   150   147    1
   141   183   182    1
   142   116   113    1
   143   147   148    1
   144   125   126    1
   145   125   124    1
   146    61    63   ar
   147    62    64   ar
   148   182   181    1
   149   123   121    1
   150   126   127    2
   151   124   119   am
   152   112   113    1
   153   115   114    2
   154   113   114    1
   155   120   119    2
   156    63    64   ar
   157   148   149    2
   158   119   118    1
   159   181   180    1
   160   121   118    1
   161   121   122    1
   162   163   162    1
   163   118   117    1
   164   180   177    1
   165    65    66    1
   166   162   164    1
   167   162   159    1
   168   177   178    1
   169   177   176    1
   170   168   167    2
   171    69    66    1
   172    66    67    1
   173   158   159    1
   174   178   179    2
   175   167   176   am
   176   167   166    1
   177   159   160    1
   178   169   166    1
   179   169   170    1
   180    67    68    2
   181   166   165    1
   182   172   170   ar
   183   172   174   ar
   184   170   171   ar
   185   160   161    2
   186   174   175   ar
   187   171   173   ar
   188   175   173   ar
