@<TRIPOS>MOLECULE
tmp/3u3uA01.pdb
 173 163 0 0 0
SMALL
GASTEIGER

@<TRIPOS>ATOM
      1  N         27.6320   -0.9650   13.5780 N.3    43  ILE43      -0.1245
      2  CA        26.9330   -1.4840   12.4080 C.3    43  ILE43       0.1561
      3  C         27.7530   -2.5290   11.6690 C.2    43  ILE43       0.2260
      4  O         27.2510   -3.6180   11.3960 O.2    43  ILE43      -0.2867
      5  CB        26.6040   -0.3630   11.4220 C.3    43  ILE43       0.0252
      6  CG1       25.5130    0.5410   12.0220 C.3    43  ILE43       0.0019
      7  CG2       26.1950   -0.9600   10.0540 C.3    43  ILE43       0.0019
      8  CD1       25.3430    1.8550   11.3250 C.3    43  ILE43       0.0001
      9  N         28.1380   -5.8260   13.9020 N.3    46  LYS46      -0.1231
     10  CA        26.9660   -6.6940   13.9780 C.3    46  LYS46       0.1693
     11  C         26.6630   -7.4360   12.6630 C.2    46  LYS46       0.2591
     12  O         26.3390   -8.6280   12.6630 O.2    46  LYS46      -0.2718
     13  CB        25.7540   -5.8900   14.4560 C.3    46  LYS46       0.0285
     14  CG        25.8480   -5.5050   15.9370 C.3    46  LYS46       0.0035
     15  CD        26.0020   -6.7590   16.8050 C.3    46  LYS46       0.0206
     16  CE        25.8640   -6.4740   18.3060 C.3    46  LYS46       0.1093
     17  NZ        26.9500   -5.5980   18.8330 N.3    46  LYS46      -0.1314
     18  N         26.7850   -6.7230   11.5500 N.am   47  ILE47      -0.1980
     19  CA        26.5940   -7.2900   10.2230 C.3    47  ILE47       0.1595
     20  C         27.6490   -8.3670    9.9010 C.2    47  ILE47       0.2287
     21  O         27.3270   -9.4340    9.3670 O.2    47  ILE47      -0.2864
     22  CB        26.6180   -6.1680    9.1820 C.3    47  ILE47       0.0276
     23  CG1       25.2920   -5.4120    9.2450 C.3    47  ILE47       0.0022
     24  CG2       26.9020   -6.7220    7.7930 C.3    47  ILE47       0.0022
     25  CD1       25.3350   -4.0890    8.5950 C.3    47  ILE47       0.0001
     26  N         29.4300   -9.9780   12.3550 N.3    49  ASP49      -0.1225
     27  CA        29.2130  -11.0690   13.3240 C.3    49  ASP49       0.1805
     28  C         28.2720  -12.1290   12.7470 C.2    49  ASP49       0.2597
     29  O         28.5920  -13.3100   12.7730 O.2    49  ASP49      -0.2718
     30  CB        28.6440  -10.5570   14.6620 C.3    49  ASP49       0.1424
     31  CG        29.7150   -9.9600   15.5680 C.2    49  ASP49       0.3668
     32  OD1       30.9240  -10.2030   15.3280 O.co2  49  ASP49      -0.2456
     33  OD2       29.3500   -9.2600   16.5390 O.co2  49  ASP49      -0.2456
     34  N         27.1230  -11.6860   12.2170 N.am   50  VAL50      -0.1980
     35  CA        26.0740  -12.5900   11.7520 C.3    50  VAL50       0.1595
     36  C         26.4540  -13.2930   10.4590 C.2    50  VAL50       0.2287
     37  O         26.1430  -14.4640   10.2810 O.2    50  VAL50      -0.2864
     38  CB        24.7050  -11.8810   11.5760 C.3    50  VAL50       0.0276
     39  CG1       24.7190  -10.9230   10.3870 C.3    50  VAL50       0.0022
     40  CG2       23.5990  -12.9150   11.4080 C.3    50  VAL50       0.0022
     41  N         28.5930  -16.1000   11.6240 N.3    53  HIS53      -0.1241
     42  CA        27.8240  -17.1910   12.2240 C.3    53  HIS53       0.1621
     43  C         27.1160  -18.0170   11.1370 C.2    53  HIS53       0.2264
     44  O         27.2420  -19.2460   11.1020 O.2    53  HIS53      -0.2867
     45  CB        26.8120  -16.6470   13.2430 C.3    53  HIS53       0.0745
     46  CG        26.1470  -17.7020   14.0830 C.ar   53  HIS53       0.0817
     47  ND1       26.8390  -18.5220   14.9570 N.ar   53  HIS53      -0.2268
     48  CD2       24.8420  -18.0490   14.2040 C.ar   53  HIS53       0.1154
     49  CE1       25.9910  -19.3340   15.5670 C.ar   53  HIS53       0.1986
     50  NE2       24.7730  -19.0650   15.1310 N.ar   53  HIS53      -0.2212
     51  N         22.2810  -22.5440   12.4500 N.3    59  TRP59      -0.1241
     52  CA        20.8440  -22.6220   12.2400 C.3    59  TRP59       0.1605
     53  C         20.5440  -23.6130   11.1200 C.2    59  TRP59       0.2264
     54  O         19.5520  -23.4800   10.4060 O.2    59  TRP59      -0.2867
     55  CB        20.2760  -21.2380   11.8970 C.3    59  TRP59       0.0550
     56  CG        20.8420  -20.0930   12.7290 C.ar   59  TRP59       0.0003
     57  CD1       21.2980  -20.1530   14.0210 C.ar   59  TRP59       0.0946
     58  CD2       21.0200  -18.7300   12.3060 C.ar   59  TRP59       0.0152
     59  NE1       21.7350  -18.9110   14.4250 N.ar   59  TRP59      -0.2442
     60  CE2       21.5790  -18.0250   13.3920 C.ar   59  TRP59       0.0810
     61  CE3       20.7550  -18.0430   11.1200 C.ar   59  TRP59       0.0012
     62  CZ2       21.8750  -16.6630   13.3240 C.ar   59  TRP59       0.0191
     63  CZ3       21.0500  -16.6930   11.0580 C.ar   59  TRP59       0.0001
     64  CH2       21.6030  -16.0170   12.1540 C.ar   59  TRP59       0.0015
     65  N         17.8030   -1.0040    2.9430 N.3   106  LEU106     -0.1245
     66  CA        16.9070   -1.4000    4.0120 C.3   106  LEU106      0.1561
     67  C         16.5200   -0.1300    4.7430 C.2   106  LEU106      0.2260
     68  O         17.3060    0.8090    4.8080 O.2   106  LEU106     -0.2867
     69  CB        17.6010   -2.3700    4.9730 C.3   106  LEU106      0.0270
     70  CG        18.2300   -3.6980    4.5170 C.3   106  LEU106      0.0019
     71  CD1       18.9800   -4.3440    5.7010 C.3   106  LEU106      0.0001
     72  CD2       17.2020   -4.6820    3.9140 C.3   106  LEU106      0.0001
     73  N         14.6290    1.2600    8.4100 N.3   108  PHE108     -0.1241
     74  CA        14.0960    0.9170    9.7090 C.3   108  PHE108      0.1605
     75  C         13.3800    2.1260   10.2650 C.2   108  PHE108      0.2264
     76  O         14.0040    3.1530   10.5300 O.2   108  PHE108     -0.2867
     77  CB        15.2240    0.4650   10.6500 C.3   108  PHE108      0.0534
     78  CG        16.0630   -0.6610   10.0960 C.ar  108  PHE108     -0.0203
     79  CD1       15.7610   -1.9780   10.3870 C.ar  108  PHE108     -0.0042
     80  CD2       17.1430   -0.3960    9.2590 C.ar  108  PHE108     -0.0042
     81  CE1       16.5330   -3.0090    9.8740 C.ar  108  PHE108     -0.0003
     82  CE2       17.9100   -1.4270    8.7310 C.ar  108  PHE108     -0.0003
     83  CZ        17.6080   -2.7310    9.0500 C.ar  108  PHE108     -0.0000
     84  N         20.1570    2.0020   16.3110 N.3   122  ILE122     -0.1245
     85  CA        20.9520    0.9950   15.6240 C.3   122  ILE122      0.1561
     86  C         20.7310   -0.4140   16.1800 C.2   122  ILE122      0.2260
     87  O         20.5320   -1.3630   15.4180 O.2   122  ILE122     -0.2867
     88  CB        22.4520    1.3370   15.6480 C.3   122  ILE122      0.0252
     89  CG1       22.7290    2.5350   14.7290 C.3   122  ILE122      0.0019
     90  CG2       23.2640    0.1260   15.2150 C.3   122  ILE122      0.0019
     91  CD1       24.1020    3.1170   14.8630 C.3   122  ILE122      0.0001
     92  N         17.4000   -1.7930   15.0140 N.3   125  ALA125     -0.1231
     93  CA        17.5130   -2.3240   13.6590 C.3   125  ALA125      0.1694
     94  C         18.3020   -3.6440   13.6630 C.2   125  ALA125      0.2591
     95  O         17.9050   -4.6130   13.0150 O.2   125  ALA125     -0.2718
     96  CB        18.1570   -1.2960   12.7290 C.3   125  ALA125      0.0304
     97  N         19.4020   -3.6880   14.4100 N.am  126  VAL126     -0.1980
     98  CA        20.1410   -4.9390   14.5750 C.3   126  VAL126      0.1595
     99  C         19.2560   -6.0470   15.1460 C.2   126  VAL126      0.2287
    100  O         19.2370   -7.1670   14.6310 O.2   126  VAL126     -0.2864
    101  CB        21.3750   -4.7710   15.4680 C.3   126  VAL126      0.0276
    102  CG1       21.8300   -6.1260   15.9840 C.3   126  VAL126      0.0022
    103  CG2       22.4830   -4.0740   14.6990 C.3   126  VAL126      0.0022
    104  N         16.5100   -7.3460   12.4850 N.3   129  GLY129     -0.1210
    105  CA        17.0500   -8.2500   11.4850 C.3   129  GLY129      0.1956
    106  C         17.4430   -9.6020   12.0490 C.2   129  GLY129      0.2611
    107  O         17.1840  -10.6350   11.4430 O.2   129  GLY129     -0.2717
    108  N         18.0840   -9.5790   13.2140 N.am  130  HIS130     -0.1975
    109  CA        18.5020  -10.7780   13.9330 C.3   130  HIS130      0.1656
    110  C         17.3130  -11.7050   14.1840 C.2   130  HIS130      0.2291
    111  O         17.4390  -12.9270   14.1220 O.2   130  HIS130     -0.2864
    112  CB        19.1450  -10.3580   15.2630 C.3   130  HIS130      0.0771
    113  CG        19.7900  -11.4790   16.0220 C.ar  130  HIS130      0.0820
    114  ND1       19.5470  -11.7060   17.3620 N.ar  130  HIS130     -0.2267
    115  CD2       20.6810  -12.4250   15.6370 C.ar  130  HIS130      0.1154
    116  CE1       20.2500  -12.7490   17.7650 C.ar  130  HIS130      0.1986
    117  NE2       20.9450  -13.2060   16.7380 N.ar  130  HIS130     -0.2212
    118  N         15.9650  -14.7920   11.8180 N.3   133  LYS133     -0.1245
    119  CA        16.5690  -16.1210   11.7170 C.3   133  LYS133      0.1561
    120  C         15.5100  -17.1720   12.0230 C.2   133  LYS133      0.2260
    121  O         15.6750  -18.3420   11.6900 O.2   133  LYS133     -0.2867
    122  CB        17.7660  -16.2720   12.6620 C.3   133  LYS133      0.0271
    123  CG        17.3970  -16.6140   14.0880 C.3   133  LYS133      0.0035
    124  CD        18.5140  -16.2540   15.0570 C.3   133  LYS133      0.0206
    125  CE        18.7600  -17.3860   16.0450 C.3   133  LYS133      0.1093
    126  NZ        19.3990  -16.9430   17.3220 N.3   133  LYS133     -0.1314
    127  N         15.5580   -8.0310    5.5040 N.3   155  GLU155     -0.1231
    128  CA        16.6360   -7.3490    6.2060 C.3   155  GLU155      0.1699
    129  C         17.8060   -8.2890    6.4590 C.2   155  GLU155      0.2592
    130  O         18.9420   -7.9870    6.1020 O.2   155  GLU155     -0.2718
    131  CB        16.1280   -6.7120    7.5060 C.3   155  GLU155      0.0402
    132  CG        15.3680   -5.3970    7.2860 C.3   155  GLU155      0.1161
    133  CD        14.0120   -5.6010    6.6320 C.2   155  GLU155      0.3649
    134  OE1       13.4920   -6.7280    6.6800 O.co2 155  GLU155     -0.2457
    135  OE2       13.4650   -4.6330    6.0650 O.co2 155  GLU155     -0.2457
    136  N         17.5190   -9.4350    7.0650 N.am  156  LEU156     -0.1980
    137  CA        18.5620  -10.3880    7.4110 C.3   156  LEU156      0.1596
    138  C         19.1650  -11.0180    6.1550 C.2   156  LEU156      0.2287
    139  O         20.3790  -11.2250    6.0790 O.2   156  LEU156     -0.2864
    140  CB        17.9950  -11.4690    8.3180 C.3   156  LEU156      0.0297
    141  CG        18.8740  -12.6840    8.6210 C.3   156  LEU156      0.0022
    142  CD1       20.2070  -12.2760    9.2000 C.3   156  LEU156      0.0001
    143  CD2       18.1390  -13.6030    9.5920 C.3   156  LEU156      0.0001
    144  N         21.7550   -8.6910    4.6750 N.3   159  ALA159     -0.1245
    145  CA        22.9960   -8.6960    5.4600 C.3   159  ALA159      0.1562
    146  C         23.8630   -9.9270    5.2030 C.2   159  ALA159      0.2260
    147  O         25.0830   -9.8530    5.3430 O.2   159  ALA159     -0.2867
    148  CB        22.7110   -8.5520    6.9950 C.3   159  ALA159      0.0290
    149  N         16.0470    5.0990    9.7520 N.3   184  LEU184     -0.1245
    150  CA        17.4250    4.6280    9.5810 C.3   184  LEU184      0.1561
    151  C         17.5870    3.8270    8.2890 C.2   184  LEU184      0.2260
    152  O         17.0230    2.7450    8.1550 O.2   184  LEU184     -0.2867
    153  CB        17.8320    3.7650   10.7700 C.3   184  LEU184      0.0270
    154  CG        19.2020    3.0710   10.7730 C.3   184  LEU184      0.0019
    155  CD1       20.3440    4.0800   10.7750 C.3   184  LEU184      0.0001
    156  CD2       19.3060    2.1450   11.9950 C.3   184  LEU184      0.0001
    157  N         19.9840    1.9070    5.4240 N.3   186  CYS186     -0.1235
    158  CA        21.2530    1.3160    5.0120 C.3   186  CYS186      0.1677
    159  C         21.2820    0.9100    3.5290 C.2   186  CYS186      0.2270
    160  O         20.5260    0.0390    3.0690 O.2   186  CYS186     -0.2867
    161  CB        21.6020    0.1280    5.9030 C.3   186  CYS186      0.0956
    162  SG        21.9740    0.5810    7.6350 S.3   186  CYS186     -0.0801
    163  N         23.3580   -0.9310    0.5610 N.3   188  PHE188     -0.1241
    164  CA        24.3510   -1.9900    0.4490 C.3   188  PHE188      0.1605
    165  C         24.8720   -2.0510   -0.9840 C.2   188  PHE188      0.2264
    166  O         24.1730   -1.6410   -1.9240 O.2   188  PHE188     -0.2867
    167  CB        23.7300   -3.3250    0.8200 C.3   188  PHE188      0.0534
    168  CG        23.3570   -3.4480    2.2630 C.ar  188  PHE188     -0.0203
    169  CD1       24.1360   -4.1970    3.1310 C.ar  188  PHE188     -0.0042
    170  CD2       22.2130   -2.8430    2.7510 C.ar  188  PHE188     -0.0042
    171  CE1       23.7750   -4.3230    4.4570 C.ar  188  PHE188     -0.0003
    172  CE2       21.8460   -2.9750    4.0930 C.ar  188  PHE188     -0.0003
    173  CZ        22.6310   -3.7160    4.9380 C.ar  188  PHE188     -0.0000
@<TRIPOS>BOND
     1   166   165    2
     2   165   164    1
     3   164   163    1
     4   164   167    1
     5   167   168    1
     6   168   170   ar
     7   168   169   ar
     8   170   172   ar
     9    65    66    1
    10   160   159    2
    11   169   171   ar
    12   159   158    1
    13    72    70    1
    14    66    67    1
    15    66    69    1
    16   172   173   ar
    17   171   173   ar
    18    70    69    1
    19    70    71    1
    20   144   145    1
    21    67    68    2
    22   158   157    1
    23   158   161    1
    24   146   147    2
    25   146   145    1
    26   145   148    1
    27   127   128    1
    28   161   162    1
    29   135   133   ar
    30   139   138    2
    31   130   129    2
    32   138   137    1
    33   128   129    1
    34   128   131    1
    35   129   136   am
    36   133   134   ar
    37   133   132    1
    38   136   137    1
    39   132   131    1
    40   137   140    1
    41    24    22    1
    42   152   151    2
    43   151   150    1
    44   140   141    1
    45    73    74    1
    46    25    23    1
    47   141   142    1
    48   141   143    1
    49    82    83   ar
    50    82    80   ar
    51    83    81   ar
    52    22    23    1
    53    22    19    1
    54    80    78   ar
    55    21    20    2
    56   150   149    1
    57   150   153    1
    58    74    75    1
    59    74    77    1
    60    81    79   ar
    61    20    19    1
    62     7     5    1
    63    78    79   ar
    64    78    77    1
    65    19    18    1
    66    75    76    2
    67    37    36    2
    68    39    38    1
    69    54    53    2
    70    36    35    1
    71   153   154    1
    72   154   155    1
    73   154   156    1
    74    63    61   ar
    75    63    64   ar
    76    44    43    2
    77    61    58   ar
    78    53    52    1
    79    43    42    1
    80     8     6    1
    81     4     3    2
    82    40    38    1
    83     5     6    1
    84     5     2    1
    85   107   106    2
    86   105   106    1
    87   105   104    1
    88    18    11   am
    89    38    35    1
    90    41    42    1
    91     3     2    1
    92   121   120    2
    93   119   118    1
    94   119   120    1
    95   119   122    1
    96    35    34    1
    97    55    52    1
    98    55    56    1
    99   106   108   am
   100    64    62   ar
   101    34    28   am
   102    42    45    1
   103    52    51    1
   104    58    56   ar
   105    58    60   ar
   106    26    27    1
   107     2     1    1
   108   122   123    1
   109    11    12    2
   110    11    10    1
   111    96    93    1
   112    56    57   ar
   113    28    29    2
   114    28    27    1
   115    95    94    2
   116   108   109    1
   117    45    46    1
   118    62    60   ar
   119    27    30    1
   120    60    59   ar
   121    93    94    1
   122    93    92    1
   123    94    97   am
   124     9    10    1
   125   109   110    1
   126   109   112    1
   127    10    13    1
   128    57    59   ar
   129    46    48   ar
   130    46    47   ar
   131   123   124    1
   132   111   110    2
   133    48    50   ar
   134    97    98    1
   135    13    14    1
   136    98    99    1
   137    98   101    1
   138   100    99    2
   139    30    31    1
   140   103   101    1
   141    89    91    1
   142    89    88    1
   143    47    49   ar
   144   124   125    1
   145    50    49   ar
   146    90    88    1
   147   112   113    1
   148    32    31   ar
   149    87    86    2
   150   101   102    1
   151    31    33   ar
   152    85    88    1
   153    85    86    1
   154    85    84    1
   155   115   113   ar
   156   115   117   ar
   157    14    15    1
   158   113   114   ar
   159   125   126    1
   160   117   116   ar
   161    15    16    1
   162   114   116   ar
   163    16    17    1
