@<TRIPOS>MOLECULE
tmp/3u3zA00.pdb
 94 90 0 0 0
SMALL
GASTEIGER

@<TRIPOS>ATOM
      1  N        -18.2440  -17.4380  -15.6470 N.3     7  MET7       -0.1230
      2  CA       -18.1380  -17.8160  -17.0460 C.3     7  MET7        0.1702
      3  C        -17.7470  -16.6220  -17.8980 C.2     7  MET7        0.2593
      4  O        -18.1720  -15.4930  -17.6400 O.2     7  MET7       -0.2718
      5  CB       -19.4650  -18.3760  -17.5500 C.3     7  MET7        0.0401
      6  CG       -19.9070  -19.6360  -16.8300 C.3     7  MET7        0.0596
      7  SD       -21.5020  -20.2330  -17.4210 S.3     7  MET7       -0.1393
      8  CE       -22.5860  -18.9000  -16.9220 C.3     7  MET7        0.0692
      9  N        -16.9570  -16.8860  -18.9320 N.am    8  THR8       -0.1939
     10  CA       -16.5230  -15.8530  -19.8600 C.3     8  THR8        0.2028
     11  C        -16.4380  -16.4490  -21.2740 C.2     8  THR8        0.2643
     12  O        -16.1730  -17.6390  -21.4390 O.2     8  THR8       -0.2714
     13  CB       -15.1830  -15.2140  -19.3870 C.3     8  THR8        0.1808
     14  OG1      -14.8490  -14.0990  -20.2150 O.3     8  THR8       -0.2208
     15  CG2      -14.0340  -16.2150  -19.4140 C.3     8  THR8        0.0379
     16  N        -16.6980  -15.6240  -22.2860 N.am    9  SER9       -0.1935
     17  CA       -16.6990  -16.0700  -23.6770 C.3     9  SER9        0.2055
     18  C        -17.4890  -17.3690  -23.8340 C.2     9  SER9        0.2642
     19  O        -17.0620  -18.2960  -24.5320 O.2     9  SER9       -0.2714
     20  CB       -15.2630  -16.2620  -24.1680 C.3     9  SER9        0.2130
     21  OG       -14.5280  -15.0510  -24.0770 O.3     9  SER9       -0.2179
     22  N        -18.6470  -17.4230  -23.1870 N.am   10  MET10      -0.1976
     23  CA       -19.4130  -18.6640  -23.0870 C.3    10  MET10       0.1605
     24  C        -20.7220  -18.5500  -23.8560 C.2    10  MET10       0.2287
     25  O        -21.5960  -17.7820  -23.4700 O.2    10  MET10      -0.2864
     26  CB       -19.7080  -18.9760  -21.6170 C.3    10  MET10       0.0413
     27  CG       -20.1670  -20.4060  -21.3800 C.3    10  MET10       0.0598
     28  SD       -18.8410  -21.6020  -21.6200 S.3    10  MET10      -0.1393
     29  CE       -17.8010  -21.2710  -20.2080 C.3    10  MET10       0.0692
     30  N        -21.4040  -13.1000  -12.0030 N.3    32  PRO32      -0.2116
     31  CA       -21.2190  -12.5150  -13.3350 C.3    32  PRO32       0.1372
     32  C        -19.8160  -11.9590  -13.5680 C.2    32  PRO32       0.2244
     33  O        -19.3690  -11.9340  -14.7170 O.2    32  PRO32      -0.2868
     34  CB       -22.2490  -11.3840  -13.3580 C.3    32  PRO32       0.0268
     35  CG       -22.3740  -10.9770  -11.9320 C.3    32  PRO32       0.0207
     36  CD       -22.2230  -12.2420  -11.1290 C.3    32  PRO32       0.0892
     37  N        -10.4030  -16.3140  -25.1190 N.3    47  LEU47      -0.1231
     38  CA       -10.1610  -14.9180  -25.4680 C.3    47  LEU47       0.1693
     39  C         -9.7710  -14.1450  -24.2180 C.2    47  LEU47       0.2592
     40  O        -10.2060  -14.4840  -23.1120 O.2    47  LEU47      -0.2718
     41  CB       -11.4180  -14.2990  -26.0780 C.3    47  LEU47       0.0284
     42  CG       -11.9990  -15.0220  -27.2940 C.3    47  LEU47       0.0019
     43  CD1      -13.3210  -14.4040  -27.6750 C.3    47  LEU47       0.0001
     44  CD2      -11.0280  -14.9900  -28.4610 C.3    47  LEU47       0.0001
     45  N         -8.9590  -13.1060  -24.3890 N.am   48  ARG48      -0.1966
     46  CA        -8.4650  -12.3380  -23.2560 C.3    48  ARG48       0.1729
     47  C         -9.4820  -11.2780  -22.8370 C.2    48  ARG48       0.2617
     48  O         -9.3360  -10.0860  -23.1270 O.2    48  ARG48      -0.2715
     49  CB        -7.1140  -11.6950  -23.5640 C.3    48  ARG48       0.0348
     50  CG        -6.4320  -11.1750  -22.3210 C.3    48  ARG48       0.0492
     51  CD        -4.9860  -10.7980  -22.5580 C.3    48  ARG48       0.2205
     52  NE        -4.8690   -9.5820  -23.3530 N.pl3  48  ARG48      -0.0865
     53  CZ        -3.7180   -8.9790  -23.6150 C.cat  48  ARG48       0.5346
     54  NH1       -2.5860   -9.4790  -23.1450 N.pl3  48  ARG48       0.1354
     55  NH2       -3.7010   -7.8810  -24.3520 N.pl3  48  ARG48       0.1354
     56  N        -10.5160  -11.7360  -22.1500 N.am   49  THR49      -0.1937
     57  CA       -11.5450  -10.8610  -21.6150 C.3    49  THR49       0.2028
     58  C        -11.1010  -10.3010  -20.2690 C.2    49  THR49       0.2642
     59  O        -10.1080  -10.7570  -19.6890 O.2    49  THR49      -0.2714
     60  CB       -12.8450  -11.6380  -21.3890 C.3    49  THR49       0.1808
     61  OG1      -12.6160  -12.6590  -20.4110 O.3    49  THR49      -0.2208
     62  CG2      -13.3270  -12.2790  -22.6810 C.3    49  THR49       0.0379
     63  N        -11.8310   -9.3120  -19.7650 N.am   50  LEU50      -0.1963
     64  CA       -11.5260   -8.7720  -18.4470 C.3    50  LEU50       0.1728
     65  C        -11.6920   -9.8240  -17.3610 C.2    50  LEU50       0.2616
     66  O        -10.9660   -9.8110  -16.3800 O.2    50  LEU50      -0.2715
     67  CB       -12.4020   -7.5660  -18.1330 C.3    50  LEU50       0.0311
     68  CG       -11.9940   -6.2730  -18.8260 C.3    50  LEU50       0.0022
     69  CD1      -13.0040   -5.1950  -18.4960 C.3    50  LEU50       0.0001
     70  CD2      -10.5920   -5.8570  -18.3970 C.3    50  LEU50       0.0001
     71  N        -12.6430  -10.7390  -17.5250 N.am   51  ASN51      -0.1972
     72  CA       -12.8100  -11.7890  -16.5340 C.3    51  ASN51       0.1688
     73  C        -11.6120  -12.7320  -16.5350 C.2    51  ASN51       0.2292
     74  O        -11.1850  -13.1890  -15.4800 O.2    51  ASN51      -0.2864
     75  CB       -14.1140  -12.5480  -16.7480 C.3    51  ASN51       0.1181
     76  CG       -15.2910  -11.8760  -16.0730 C.2    51  ASN51       0.2629
     77  OD1      -15.1540  -11.2840  -15.0020 O.2    51  ASN51      -0.2716
     78  ND2      -16.4580  -11.9740  -16.6890 N.am   51  ASN51      -0.0877
     79  N         -8.5380  -11.7390  -17.3640 N.3    53  LEU53      -0.1245
     80  CA        -7.4600  -10.9390  -16.7870 C.3    53  LEU53       0.1561
     81  C         -7.5570  -10.8230  -15.2610 C.2    53  LEU53       0.2260
     82  O         -6.5640  -10.9810  -14.5560 O.2    53  LEU53      -0.2867
     83  CB        -7.4240   -9.5490  -17.4220 C.3    53  LEU53       0.0270
     84  CG        -6.8530   -9.5390  -18.8430 C.3    53  LEU53       0.0019
     85  CD1       -7.4480   -8.3840  -19.6250 C.3    53  LEU53       0.0001
     86  CD2       -5.3400   -9.4430  -18.7970 C.3    53  LEU53       0.0001
     87  N         -1.7640   -5.0470  -19.6030 N.3   172  LEU172     -0.1245
     88  CA        -2.4400   -6.3160  -19.8830 C.3   172  LEU172      0.1561
     89  C         -1.4690   -7.4040  -20.3460 C.2   172  LEU172      0.2260
     90  O         -1.5520   -8.5430  -19.9000 O.2   172  LEU172     -0.2867
     91  CB        -3.5450   -6.1120  -20.9180 C.3   172  LEU172      0.0270
     92  CG        -4.5430   -4.9980  -20.5920 C.3   172  LEU172      0.0019
     93  CD1       -5.6570   -4.9640  -21.6290 C.3   172  LEU172      0.0001
     94  CD2       -5.1120   -5.1830  -19.1940 C.3   172  LEU172      0.0001
@<TRIPOS>BOND
     1    44    42    1
     2    43    42    1
     3    42    41    1
     4    41    38    1
     5    38    37    1
     6    38    39    1
     7    19    18    2
     8    45    39   am
     9    45    46    1
    10    55    53    1
    11    39    40    2
    12    20    21    1
    13    20    17    1
    14    24    25    2
    15    24    23    1
    16    18    17    1
    17    18    22   am
    18    17    16    1
    19    53    52    2
    20    53    54    1
    21    49    46    1
    22    49    50    1
    23    52    51    1
    24    46    47    1
    25    22    23    1
    26    48    47    2
    27    23    26    1
    28    47    56   am
    29    62    60    1
    30    51    50    1
    31    16    11   am
    32    56    57    1
    33    93    92    1
    34    28    27    1
    35    28    29    1
    36    26    27    1
    37    57    60    1
    38    57    58    1
    39    12    11    2
    40    60    61    1
    41    11    10    1
    42    91    92    1
    43    91    88    1
    44    92    94    1
    45    89    90    2
    46    89    88    1
    47    58    63   am
    48    58    59    2
    49    14    13    1
    50    88    87    1
    51    10    13    1
    52    10     9    1
    53    63    64    1
    54    85    84    1
    55    15    13    1
    56     9     3   am
    57    84    86    1
    58    84    83    1
    59    68    69    1
    60    68    70    1
    61    68    67    1
    62    64    67    1
    63    64    65    1
    64     3     4    2
    65     3     2    1
    66     5     2    1
    67     5     6    1
    68    71    65   am
    69    71    72    1
    70    83    80    1
    71     7     8    1
    72     7     6    1
    73    79    80    1
    74    65    66    2
    75     2     1    1
    76    80    81    1
    77    75    72    1
    78    75    76    1
    79    78    76   am
    80    73    72    1
    81    73    74    2
    82    76    77    2
    83    81    82    2
    84    33    32    2
    85    32    31    1
    86    34    31    1
    87    34    35    1
    88    31    30    1
    89    30    36    1
    90    35    36    1
