@<TRIPOS>MOLECULE
tmp/3u40D00.pdb
 128 123 0 0 0
SMALL
GASTEIGER

@<TRIPOS>ATOM
      1  N         46.5370   -2.2880   47.5180 N.3    28  GLY28      -0.1225
      2  CA        45.7650   -2.0140   48.7010 C.3    28  GLY28       0.1811
      3  C         46.3980   -2.6400   49.9360 C.2    28  GLY28       0.2280
      4  O         46.4650   -2.0200   51.0100 O.2    28  GLY28      -0.2866
      5  N         48.0910    1.4900   49.6220 N.3    70  HIS70      -0.1226
      6  CA        47.1880    2.6540   49.5740 C.3    70  HIS70       0.1752
      7  C         45.8930    2.4640   50.2930 C.2    70  HIS70       0.2597
      8  O         45.0270    3.3280   50.2090 O.2    70  HIS70      -0.2718
      9  CB        46.9160    3.0780   48.1430 C.3    70  HIS70       0.0759
     10  CG        46.2390    2.0220   47.3050 C.ar   70  HIS70       0.0818
     11  ND1       45.0030    1.4990   47.6190 N.ar   70  HIS70      -0.2268
     12  CD2       46.6340    1.4230   46.1170 C.ar   70  HIS70       0.1154
     13  CE1       44.6590    0.6040   46.6770 C.ar   70  HIS70       0.1986
     14  NE2       45.6730    0.5430   45.7680 N.ar   70  HIS70      -0.2212
     15  N         45.7400    1.3600   51.0280 N.am   71  GLY71      -0.1942
     16  CA        44.4880    1.0840   51.7700 C.3    71  GLY71       0.2014
     17  C         43.2680    0.8790   50.8610 C.2    71  GLY71       0.2638
     18  O         43.4240    0.5770   49.6660 O.2    71  GLY71      -0.2714
     19  N         42.0520    0.9950   51.3970 N.am   72  MET72      -0.1976
     20  CA        40.8880    0.6110   50.6090 C.3    72  MET72       0.1605
     21  C         40.0000    1.8270   50.3630 C.2    72  MET72       0.2287
     22  O         39.7160    2.5710   51.3000 O.2    72  MET72      -0.2864
     23  CB        40.0690   -0.4810   51.3290 C.3    72  MET72       0.0413
     24  CG        40.7650   -1.8390   51.4260 C.3    72  MET72       0.0598
     25  SD        39.6580   -3.1600   51.9820 S.3    72  MET72      -0.1393
     26  CE        39.3420   -2.6800   53.6870 C.3    72  MET72       0.0692
     27  N         48.6170    1.1800   39.7590 N.3    95  ARG95      -0.1245
     28  CA        47.9060    0.4290   40.7670 C.3    95  ARG95       0.1563
     29  C         47.7840   -1.0160   40.2780 C.2    95  ARG95       0.2260
     30  O         47.4430   -1.2700   39.1030 O.2    95  ARG95      -0.2867
     31  CB        46.5200    1.0540   41.0160 C.3    95  ARG95       0.0307
     32  CG        45.7470    0.2970   42.0790 C.3    95  ARG95       0.0489
     33  CD        44.4570    0.9840   42.4700 C.3    95  ARG95       0.2205
     34  NE        43.3700    0.0350   42.3390 N.pl3  95  ARG95      -0.0865
     35  CZ        43.2400   -1.0850   43.0370 C.cat  95  ARG95       0.5346
     36  NH1       44.1280   -1.4290   43.9630 N.pl3  95  ARG95       0.1354
     37  NH2       42.2020   -1.8670   42.7800 N.pl3  95  ARG95       0.1354
     38  N         43.3310   -6.6070   43.0730 N.3    98  SER98      -0.1202
     39  CA        42.4270   -7.6920   42.8240 C.3    98  SER98       0.2020
     40  C         41.0950   -7.0630   42.4350 C.2    98  SER98       0.2619
     41  O         40.8680   -5.8790   42.6610 O.2    98  SER98      -0.2717
     42  CB        42.3040   -8.5710   44.0680 C.3    98  SER98       0.2103
     43  OG        41.7190   -7.8090   45.1040 O.3    98  SER98      -0.2182
     44  N         40.2290   -7.8380   41.8020 N.am   99  ALA99      -0.1965
     45  CA        38.9430   -7.3060   41.3150 C.3    99  ALA99       0.1728
     46  C         37.9450   -8.4380   41.1440 C.2    99  ALA99       0.2616
     47  O         38.3580   -9.6000   40.9590 O.2    99  ALA99      -0.2715
     48  CB        39.1200   -6.5480   39.9810 C.3    99  ALA99       0.0334
     49  N         36.6570   -8.0890   41.1540 N.am  100  GLY100     -0.1955
     50  CA        35.5830   -9.0500   40.8580 C.3   100  GLY100      0.1869
     51  C         35.1790   -8.9450   39.3840 C.2   100  GLY100      0.2309
     52  O         35.0000   -7.8370   38.8730 O.2   100  GLY100     -0.2863
     53  N         31.3100    0.6950   47.7680 N.3   166  TYR166     -0.1227
     54  CA        30.8730   -0.3720   48.6470 C.3   166  TYR166      0.1736
     55  C         31.4880   -1.7060   48.2500 C.2   166  TYR166      0.2595
     56  O         31.8800   -1.9560   47.0810 O.2   166  TYR166     -0.2718
     57  CB        29.3340   -0.4580   48.6600 C.3   166  TYR166      0.0548
     58  CG        28.8090   -0.8300   47.2970 C.ar  166  TYR166     -0.0200
     59  CD1       28.6690   -2.1740   46.9220 C.ar  166  TYR166     -0.0009
     60  CD2       28.4960    0.1610   46.3500 C.ar  166  TYR166     -0.0009
     61  CE1       28.2150   -2.5230   45.6470 C.ar  166  TYR166      0.0417
     62  CE2       28.0410   -0.1810   45.0800 C.ar  166  TYR166      0.0417
     63  CZ        27.9120   -1.5180   44.7340 C.ar  166  TYR166      0.1957
     64  OH        27.4610   -1.8640   43.4840 O.3   166  TYR166     -0.2866
     65  N         31.5870   -2.5650   49.2490 N.am  167  PHE167     -0.1976
     66  CA        31.8970   -3.9390   49.0140 C.3   167  PHE167      0.1639
     67  C         30.6130   -4.7640   49.1740 C.2   167  PHE167      0.2290
     68  O         30.4210   -5.7430   48.4650 O.2   167  PHE167     -0.2864
     69  CB        32.9650   -4.3960   50.0010 C.3   167  PHE167      0.0560
     70  CG        33.4780   -5.7840   49.7370 C.ar  167  PHE167     -0.0200
     71  CD1       32.9390   -6.8710   50.3890 C.ar  167  PHE167     -0.0042
     72  CD2       34.5080   -5.9900   48.8480 C.ar  167  PHE167     -0.0042
     73  CE1       33.4150   -8.1510   50.1550 C.ar  167  PHE167     -0.0003
     74  CE2       35.0060   -7.2660   48.6110 C.ar  167  PHE167     -0.0003
     75  CZ        34.4680   -8.3480   49.2710 C.ar  167  PHE167     -0.0000
     76  N         34.9940   -4.9730   38.9130 N.3   185  VAL185     -0.1231
     77  CA        34.7730   -4.0630   40.0040 C.3   185  VAL185      0.1692
     78  C         35.9280   -4.0800   41.0090 C.2   185  VAL185      0.2592
     79  O         36.4760   -5.1320   41.3710 O.2   185  VAL185     -0.2718
     80  CB        33.4140   -4.3140   40.7190 C.3   185  VAL185      0.0266
     81  CG1       33.3120   -5.7580   41.2410 C.3   185  VAL185      0.0020
     82  CG2       33.1770   -3.2850   41.8400 C.3   185  VAL185      0.0020
     83  N         36.2820   -2.8890   41.4640 N.am  186  GLU186     -0.1966
     84  CA        37.2490   -2.7070   42.5390 C.3   186  GLU186      0.1733
     85  C         36.7920   -1.4160   43.2260 C.2   186  GLU186      0.2616
     86  O         35.5970   -1.0370   43.1090 O.2   186  GLU186     -0.2715
     87  CB        38.7050   -2.6410   42.0220 C.3   186  GLU186      0.0429
     88  CG        38.8800   -1.7980   40.7640 C.3   186  GLU186      0.1163
     89  CD        39.1160   -0.3270   41.0430 C.2   186  GLU186      0.3649
     90  OE1       38.2800    0.5050   40.5880 O.co2 186  GLU186     -0.2457
     91  OE2       40.1490    0.0190   41.6840 O.co2 186  GLU186     -0.2457
     92  N         37.6900   -0.7400   43.9290 N.am  187  MET187     -0.1963
     93  CA        37.2290    0.4150   44.7090 C.3   187  MET187      0.1736
     94  C         38.1100    1.6640   44.6470 C.2   187  MET187      0.2616
     95  O         37.9320    2.5620   45.4620 O.2   187  MET187     -0.2715
     96  CB        37.0220   -0.0170   46.1760 C.3   187  MET187      0.0427
     97  CG        35.9600   -1.0960   46.3740 C.3   187  MET187      0.0599
     98  SD        35.7390   -1.5900   48.1200 S.3   187  MET187     -0.1393
     99  CE        34.8800   -0.1520   48.8100 C.3   187  MET187      0.0692
    100  N         39.0930    1.7370   43.7420 N.am  188  GLU188     -0.1977
    101  CA        40.0910    2.8290   43.8440 C.3   188  GLU188      0.1602
    102  C         40.4170    3.5670   42.5740 C.2   188  GLU188      0.2287
    103  O         40.7740    4.7720   42.6410 O.2   188  GLU188     -0.2864
    104  CB        41.4360    2.3250   44.4340 C.3   188  GLU188      0.0415
    105  CG        41.3830    1.9330   45.9380 C.3   188  GLU188      0.1163
    106  CD        40.9190    0.4870   46.1550 C.2   188  GLU188      0.3649
    107  OE1       40.9450   -0.3020   45.2150 O.co2 188  GLU188     -0.2457
    108  OE2       40.4250    0.1220   47.2270 O.co2 188  GLU188     -0.2457
    109  N         40.1300  -12.0500   41.0540 N.3   210  SER210     -0.1202
    110  CA        40.2620  -12.8950   42.2420 C.3   210  SER210      0.2020
    111  C         38.8970  -13.4480   42.6850 C.2   210  SER210      0.2618
    112  O         38.8360  -14.3590   43.4930 O.2   210  SER210     -0.2717
    113  CB        40.8520  -12.0840   43.3950 C.3   210  SER210      0.2103
    114  OG        40.0610  -10.9150   43.6640 O.3   210  SER210     -0.2182
    115  N         37.8100  -12.8820   42.1530 N.am  211  ASP211     -0.1973
    116  CA        36.4490  -13.3420   42.4430 C.3   211  ASP211      0.1709
    117  C         35.5280  -13.1360   41.2380 C.2   211  ASP211      0.2293
    118  O         35.6540  -12.1610   40.5000 O.2   211  ASP211     -0.2864
    119  CB        35.8700  -12.7370   43.7650 C.3   211  ASP211      0.1436
    120  CG        35.8220  -11.1610   43.7920 C.2   211  ASP211      0.3671
    121  OD1       34.6900  -10.6160   43.8120 O.co2 211  ASP211     -0.2456
    122  OD2       36.8770  -10.4580   43.8800 O.co2 211  ASP211     -0.2456
    123  N         31.9180  -12.2430   39.8470 N.3   213  CYS213     -0.1235
    124  CA        30.5850  -11.7160   40.2510 C.3   213  CYS213      0.1677
    125  C         29.5150  -12.1760   39.2940 C.2   213  CYS213      0.2270
    126  O         28.6930  -11.3830   38.8340 O.2   213  CYS213     -0.2867
    127  CB        30.5900  -10.1770   40.3400 C.3   213  CYS213      0.0956
    128  SG        31.8660   -9.6050   41.4670 S.3   213  CYS213     -0.0801
@<TRIPOS>BOND
     1   126   125    2
     2    52    51    2
     3    76    77    1
     4    30    29    2
     5   125   124    1
     6    51    50    1
     7    27    28    1
     8   123   124    1
     9    48    45    1
    10    77    80    1
    11    77    78    1
    12   124   127    1
    13    29    28    1
    14   127   128    1
    15   118   117    2
    16    90    89   ar
    17    80    81    1
    18    80    82    1
    19    88    89    1
    20    88    87    1
    21    28    31    1
    22    50    49    1
    23    47    46    2
    24    78    79    2
    25    78    83   am
    26    31    32    1
    27    89    91   ar
    28   109   110    1
    29    46    49   am
    30    46    45    1
    31   117   116    1
    32    45    44    1
    33    83    84    1
    34    44    40   am
    35    87    84    1
    36    32    33    1
    37   115   116    1
    38   115   111   am
    39   110   111    1
    40   110   113    1
    41    34    33    1
    42    34    35    2
    43    40    41    2
    44    40    39    1
    45   116   119    1
    46    84    85    1
    47   102   103    2
    48   102   101    1
    49   111   112    2
    50    37    35    1
    51    39    38    1
    52    39    42    1
    53    35    36    1
    54    86    85    2
    55    85    92   am
    56   113   114    1
    57    64    63    1
    58   100   101    1
    59   100    94   am
    60   119   120    1
    61   120   121   ar
    62   120   122   ar
    63   101   104    1
    64    92    93    1
    65    42    43    1
    66   104   105    1
    67    94    93    1
    68    94    95    2
    69    93    96    1
    70    63    62   ar
    71    63    61   ar
    72    62    60   ar
    73   107   106   ar
    74    61    59   ar
    75    14    12   ar
    76    14    13   ar
    77   105   106    1
    78    12    10   ar
    79   106   108   ar
    80    96    97    1
    81    60    58   ar
    82    97    98    1
    83    13    11   ar
    84    59    58   ar
    85    56    55    2
    86    58    57    1
    87    10    11   ar
    88    10     9    1
    89     1     2    1
    90    53    54    1
    91    98    99    1
    92     9     6    1
    93    55    54    1
    94    55    65   am
    95    68    67    2
    96    74    72   ar
    97    74    75   ar
    98    54    57    1
    99     2     3    1
   100    72    70   ar
   101    66    67    1
   102    66    65    1
   103    66    69    1
   104    75    73   ar
   105     6     5    1
   106     6     7    1
   107    18    17    2
   108    70    69    1
   109    70    71   ar
   110     3     4    2
   111    73    71   ar
   112     8     7    2
   113     7    15   am
   114    21    20    1
   115    21    22    2
   116    20    23    1
   117    20    19    1
   118    17    19   am
   119    17    16    1
   120    15    16    1
   121    23    24    1
   122    24    25    1
   123    25    26    1
