@<TRIPOS>MOLECULE
tmp/3u48B00.pdb
 138 134 0 0 0
SMALL
GASTEIGER

@<TRIPOS>ATOM
      1  N        137.0420   48.7870   48.5500 N.3    53  PHE53      -0.1227
      2  CA       136.1710   48.1730   49.5330 C.3    53  PHE53       0.1736
      3  C        134.7230   48.5500   49.2890 C.2    53  PHE53       0.2595
      4  O        134.4210   49.5420   48.6110 O.2    53  PHE53      -0.2718
      5  CB       136.5980   48.5600   50.9480 C.3    53  PHE53       0.0547
      6  CG       136.4470   50.0200   51.2450 C.ar   53  PHE53      -0.0202
      7  CD1      135.3900   50.4750   52.0230 C.ar   53  PHE53      -0.0042
      8  CD2      137.3610   50.9410   50.7520 C.ar   53  PHE53      -0.0042
      9  CE1      135.2430   51.8240   52.3020 C.ar   53  PHE53      -0.0003
     10  CE2      137.2180   52.2980   51.0250 C.ar   53  PHE53      -0.0003
     11  CZ       136.1530   52.7370   51.7990 C.ar   53  PHE53      -0.0000
     12  N        133.8320   47.7390   49.8470 N.am   54  ASN54      -0.1974
     13  CA       132.3990   47.8930   49.6380 C.3    54  ASN54       0.1688
     14  C        131.9890   47.8290   48.1620 C.2    54  ASN54       0.2292
     15  O        130.9240   48.3140   47.7830 O.2    54  ASN54      -0.2864
     16  CB       131.8640   49.1440   50.3460 C.3    54  ASN54       0.1181
     17  CG       131.9550   49.0320   51.8750 C.2    54  ASN54       0.2629
     18  OD1      132.1140   47.9350   52.4260 O.2    54  ASN54      -0.2716
     19  ND2      131.8510   50.1710   52.5620 N.am   54  ASN54      -0.0877
     20  N        132.7880   45.6710   54.9580 N.3    83  ASP83      -0.1239
     21  CA       132.2520   45.5360   56.3060 C.3    83  ASP83       0.1674
     22  C        131.3960   44.2680   56.4670 C.2    83  ASP83       0.2266
     23  O        130.1630   44.3250   56.4070 O.2    83  ASP83      -0.2867
     24  CB       131.4230   46.7730   56.6560 C.3    83  ASP83       0.1410
     25  CG       132.2870   47.9880   56.9720 C.2    83  ASP83       0.3668
     26  OD1      133.1380   47.9030   57.8910 O.co2  83  ASP83      -0.2456
     27  OD2      132.1160   49.0300   56.2990 O.co2  83  ASP83      -0.2456
     28  N        136.4500   44.1520   57.4900 N.3   127  PHE127     -0.1241
     29  CA       136.7300   45.1300   58.5460 C.3   127  PHE127      0.1605
     30  C        136.0660   44.6870   59.8530 C.2   127  PHE127      0.2264
     31  O        135.0940   45.2950   60.3250 O.2   127  PHE127     -0.2867
     32  CB       136.2390   46.5100   58.1200 C.3   127  PHE127      0.0534
     33  CG       136.8180   46.9760   56.8040 C.ar  127  PHE127     -0.0203
     34  CD1      138.1790   46.8460   56.5390 C.ar  127  PHE127     -0.0042
     35  CD2      136.0020   47.5130   55.8200 C.ar  127  PHE127     -0.0042
     36  CE1      138.7160   47.2640   55.3190 C.ar  127  PHE127     -0.0003
     37  CE2      136.5360   47.9280   54.5950 C.ar  127  PHE127     -0.0003
     38  CZ       137.8900   47.8040   54.3520 C.ar  127  PHE127     -0.0000
     39  N        127.5510   52.3180   68.8760 N.3   141  ARG141     -0.1245
     40  CA       128.4600   51.2680   68.4260 C.3   141  ARG141      0.1563
     41  C        128.6600   50.1410   69.4540 C.2   141  ARG141      0.2260
     42  O        129.4090   49.1970   69.2040 O.2   141  ARG141     -0.2867
     43  CB       129.7990   51.8690   67.9860 C.3   141  ARG141      0.0307
     44  CG       129.6320   53.0810   67.0550 C.3   141  ARG141      0.0489
     45  CD       130.8620   53.3390   66.1930 C.3   141  ARG141      0.2205
     46  NE       131.0600   52.2990   65.1850 N.pl3 141  ARG141     -0.0865
     47  CZ       131.7250   52.4770   64.0420 C.cat 141  ARG141      0.5346
     48  NH1      132.2580   53.6600   63.7560 N.pl3 141  ARG141      0.1354
     49  NH2      131.8540   51.4740   63.1800 N.pl3 141  ARG141      0.1354
     50  N        139.4200   46.1670   64.9360 N.3   180  LYS180     -0.1231
     51  CA       139.1910   47.6040   65.0620 C.3   180  LYS180      0.1693
     52  C        138.4590   47.8900   66.3800 C.2   180  LYS180      0.2592
     53  O        137.9430   46.9580   66.9970 O.2   180  LYS180     -0.2718
     54  CB       138.3630   48.0950   63.8750 C.3   180  LYS180      0.0285
     55  CG       136.9730   47.4830   63.7840 C.3   180  LYS180      0.0035
     56  CD       136.3420   47.8180   62.4400 C.3   180  LYS180      0.0206
     57  CE       134.8410   47.5770   62.4390 C.3   180  LYS180      0.1093
     58  NZ       134.2970   47.7740   61.0630 N.3   180  LYS180     -0.1314
     59  N        138.4310   49.1470   66.8400 N.am  181  HIS181     -0.1976
     60  CA       139.1830   50.2670   66.2680 C.3   181  HIS181      0.1656
     61  C        140.2990   50.6490   67.2360 C.2   181  HIS181      0.2291
     62  O        140.0280   51.1270   68.3360 O.2   181  HIS181     -0.2864
     63  CB       138.2820   51.4890   66.0820 C.3   181  HIS181      0.0771
     64  CG       136.9950   51.2010   65.3740 C.ar  181  HIS181      0.0820
     65  ND1      135.9220   50.5960   65.9930 N.ar  181  HIS181     -0.2267
     66  CD2      136.6060   51.4480   64.0990 C.ar  181  HIS181      0.1154
     67  CE1      134.9290   50.4780   65.1290 C.ar  181  HIS181      0.1986
     68  NE2      135.3180   50.9840   63.9720 N.ar  181  HIS181     -0.2212
     69  N        142.8040   48.3600   62.2510 N.3   224  MET224     -0.1245
     70  CA       142.2300   49.6160   61.7860 C.3   224  MET224      0.1570
     71  C        142.2950   50.6550   62.8910 C.2   224  MET224      0.2261
     72  O        141.8900   50.3810   64.0200 O.2   224  MET224     -0.2867
     73  CB       140.7750   49.4270   61.3460 C.3   224  MET224      0.0387
     74  CG       140.0950   50.7360   60.9410 C.3   224  MET224      0.0595
     75  SD       138.3540   50.6040   60.4600 S.3   224  MET224     -0.1393
     76  CE       138.4650   49.6340   58.9480 C.3   224  MET224      0.0692
     77  N        138.9050   56.7930   65.4320 N.3   227  PHE227     -0.1241
     78  CA       138.6260   58.2130   65.1790 C.3   227  PHE227      0.1605
     79  C        138.9710   59.1580   66.3310 C.2   227  PHE227      0.2264
     80  O        139.0630   60.3820   66.1330 O.2   227  PHE227     -0.2867
     81  CB       137.1350   58.3940   64.8830 C.3   227  PHE227      0.0534
     82  CG       136.7150   57.9050   63.5350 C.ar  227  PHE227     -0.0203
     83  CD1      137.4200   58.2680   62.3990 C.ar  227  PHE227     -0.0042
     84  CD2      135.6060   57.0850   63.3990 C.ar  227  PHE227     -0.0042
     85  CE1      137.0190   57.8270   61.1460 C.ar  227  PHE227     -0.0003
     86  CE2      135.1970   56.6360   62.1420 C.ar  227  PHE227     -0.0003
     87  CZ       135.9070   57.0030   61.0210 C.ar  227  PHE227     -0.0000
     88  N        140.8330   54.4080   59.6380 N.3   260  ASP260     -0.1225
     89  CA       139.3940   54.4230   59.4610 C.3   260  ASP260      0.1805
     90  C        139.0590   55.4510   58.3710 C.2   260  ASP260      0.2597
     91  O        139.9360   56.1810   57.9050 O.2   260  ASP260     -0.2718
     92  CB       138.6700   54.7410   60.7750 C.3   260  ASP260      0.1424
     93  CG       137.2800   54.1270   60.8360 C.2   260  ASP260      0.3668
     94  OD1      136.7590   53.7320   59.7700 O.co2 260  ASP260     -0.2456
     95  OD2      136.7060   54.0390   61.9390 O.co2 260  ASP260     -0.2456
     96  N        137.7920   55.4940   57.9730 N.am  261  TYR261     -0.1976
     97  CA       137.3190   56.3340   56.8720 C.3   261  TYR261      0.1639
     98  C        137.7780   57.7980   56.9630 C.2   261  TYR261      0.2290
     99  O        137.2640   58.5600   57.7800 O.2   261  TYR261     -0.2864
    100  CB       135.7900   56.2570   56.8280 C.3   261  TYR261      0.0560
    101  CG       135.1550   56.6800   55.5230 C.ar  261  TYR261     -0.0198
    102  CD1      134.9850   58.0260   55.2160 C.ar  261  TYR261     -0.0009
    103  CD2      134.6970   55.7320   54.6030 C.ar  261  TYR261     -0.0009
    104  CE1      134.3960   58.4210   54.0210 C.ar  261  TYR261      0.0417
    105  CE2      134.1020   56.1180   53.4160 C.ar  261  TYR261      0.0417
    106  CZ       133.9570   57.4650   53.1310 C.ar  261  TYR261      0.1957
    107  OH       133.3680   57.8690   51.9530 O.3   261  TYR261     -0.2866
    108  N        142.5870   55.1740   54.0500 N.3   291  MET291     -0.1245
    109  CA       141.2220   54.9180   53.5740 C.3   291  MET291      0.1570
    110  C        140.5190   56.1710   53.0530 C.2   291  MET291      0.2261
    111  O        140.2810   57.1150   53.8090 O.2   291  MET291     -0.2867
    112  CB       140.3640   54.2530   54.6670 C.3   291  MET291      0.0387
    113  CG       138.9590   53.8780   54.1770 C.3   291  MET291      0.0595
    114  SD       137.8680   53.0410   55.3580 S.3   291  MET291     -0.1393
    115  CE       138.6530   51.4430   55.5030 C.3   291  MET291      0.0692
    116  N        124.7540   47.5260   60.4810 N.3   399  TRP399     -0.1241
    117  CA       125.9740   46.8970   59.9820 C.3   399  TRP399      0.1605
    118  C        125.7160   45.5640   59.3040 C.2   399  TRP399      0.2264
    119  O        126.3770   44.5650   59.5820 O.2   399  TRP399     -0.2867
    120  CB       126.9980   46.7420   61.1040 C.3   399  TRP399      0.0550
    121  CG       127.7140   48.0260   61.3710 C.ar  399  TRP399      0.0003
    122  CD1      127.7180   48.7400   62.5290 C.ar  399  TRP399      0.0946
    123  CD2      128.4980   48.7760   60.4310 C.ar  399  TRP399      0.0152
    124  NE1      128.4760   49.8770   62.3780 N.ar  399  TRP399     -0.2442
    125  CE2      128.9650   49.9230   61.0990 C.ar  399  TRP399      0.0810
    126  CE3      128.8530   48.5820   59.0840 C.ar  399  TRP399      0.0012
    127  CZ2      129.7730   50.8760   60.4720 C.ar  399  TRP399      0.0191
    128  CZ3      129.6550   49.5250   58.4660 C.ar  399  TRP399      0.0001
    129  CH2      130.1080   50.6580   59.1590 C.ar  399  TRP399      0.0015
    130  N        126.9060   53.1240   63.7310 N.3   487  GLU487     -0.1245
    131  CA       127.7580   54.3060   63.6580 C.3   487  GLU487      0.1567
    132  C        126.9520   55.6010   63.6480 C.2   487  GLU487      0.2260
    133  O        125.9290   55.7050   62.9660 O.2   487  GLU487     -0.2867
    134  CB       128.6720   54.2470   62.4280 C.3   487  GLU487      0.0388
    135  CG       129.5810   55.4610   62.2970 C.3   487  GLU487      0.1160
    136  CD       130.7110   55.2600   61.2990 C.2   487  GLU487      0.3649
    137  OE1      130.7330   54.2210   60.5970 O.co2 487  GLU487     -0.2457
    138  OE2      131.5870   56.1470   61.2260 O.co2 487  GLU487     -0.2457
@<TRIPOS>BOND
     1    15    14    2
     2    14    13    1
     3     1     2    1
     4     4     3    2
     5     3     2    1
     6     3    12   am
     7     2     5    1
     8    13    12    1
     9    13    16    1
    10    16    17    1
    11     8    10   ar
    12     8     6   ar
    13     5     6    1
    14    10    11   ar
    15     6     7   ar
    16    11     9   ar
    17    17    18    2
    18    17    19   am
    19   107   106    1
    20     7     9   ar
    21   110   109    1
    22   110   111    2
    23   106   105   ar
    24   106   104   ar
    25   105   103   ar
    26   109   108    1
    27   109   112    1
    28   104   102   ar
    29   113   112    1
    30   113   114    1
    31    38    37   ar
    32    38    36   ar
    33    37    35   ar
    34   103   101   ar
    35    20    21    1
    36   102   101   ar
    37    36    34   ar
    38   114   115    1
    39   101   100    1
    40    35    33   ar
    41    27    25   ar
    42    21    22    1
    43    21    24    1
    44    23    22    2
    45    34    33   ar
    46    24    25    1
    47    33    32    1
    48   100    97    1
    49    97    98    1
    50    97    96    1
    51    98    99    2
    52    25    26   ar
    53    28    29    1
    54    91    90    2
    55    96    90   am
    56    32    29    1
    57    90    89    1
    58   128   126   ar
    59   128   129   ar
    60    29    30    1
    61    76    75    1
    62   126   123   ar
    63   129   127   ar
    64   118   119    2
    65   118   117    1
    66    89    88    1
    67    89    92    1
    68    94    93   ar
    69    30    31    2
    70   117   116    1
    71   117   120    1
    72   123   125   ar
    73   123   121   ar
    74    75    74    1
    75   127   125   ar
    76   137   136   ar
    77    92    93    1
    78    93    95   ar
    79    74    73    1
    80    87    85   ar
    81    87    86   ar
    82    58    57    1
    83   125   124   ar
    84   120   121    1
    85    85    83   ar
    86   138   136   ar
    87   136   135    1
    88    73    70    1
    89   121   122   ar
    90    70    69    1
    91    70    71    1
    92    86    84   ar
    93   135   134    1
    94   124   122   ar
    95    83    82   ar
    96   134   131    1
    97    57    56    1
    98    56    55    1
    99    71    72    2
   100   133   132    2
   101    49    47    1
   102    84    82   ar
   103    82    81    1
   104   132   131    1
   105   131   130    1
   106    48    47    1
   107    55    54    1
   108    54    51    1
   109    68    66   ar
   110    68    67   ar
   111    47    46    2
   112    66    64   ar
   113    81    78    1
   114    50    51    1
   115    51    52    1
   116    67    65   ar
   117    78    77    1
   118    78    79    1
   119    46    45    1
   120    64    65   ar
   121    64    63    1
   122    63    60    1
   123    80    79    2
   124    45    44    1
   125    60    59    1
   126    60    61    1
   127    52    59   am
   128    52    53    2
   129    44    43    1
   130    61    62    2
   131    43    40    1
   132    40    39    1
   133    40    41    1
   134    42    41    2
