@<TRIPOS>MOLECULE
tmp/3u4eC01.pdb
 79 76 0 0 0
SMALL
GASTEIGER

@<TRIPOS>ATOM
      1  N         18.1240   -5.9780  -32.3770 N.3    28  SER28      -0.1217
      2  CA        18.9520   -6.1880  -33.5510 C.3    28  SER28       0.1889
      3  C         19.7950   -4.9700  -33.9260 C.2    28  SER28       0.2288
      4  O         20.6730   -5.0750  -34.7750 O.2    28  SER28      -0.2866
      5  CB        18.0740   -6.6010  -34.7360 C.3    28  SER28       0.2089
      6  OG        17.1890   -5.5550  -35.1030 O.3    28  SER28      -0.2183
      7  N         24.8580   -7.0220  -35.2280 N.3    52  ASP52      -0.1225
      8  CA        24.5950   -8.0140  -36.2740 C.3    52  ASP52       0.1805
      9  C         25.3550   -9.3330  -36.0870 C.2    52  ASP52       0.2598
     10  O         25.1850  -10.2660  -36.8720 O.2    52  ASP52      -0.2718
     11  CB        24.9050   -7.4270  -37.6550 C.3    52  ASP52       0.1424
     12  CG        26.3750   -7.0880  -37.8340 C.2    52  ASP52       0.3668
     13  OD1       27.1080   -7.0420  -36.8230 O.co2  52  ASP52      -0.2456
     14  OD2       26.7950   -6.8540  -38.9890 O.co2  52  ASP52      -0.2456
     15  N         26.1870   -9.4100  -35.0520 N.am   53  GLY53      -0.1942
     16  CA        26.9360  -10.6190  -34.7630 C.3    53  GLY53       0.2014
     17  C         28.1860  -10.7790  -35.6130 C.2    53  GLY53       0.2640
     18  O         28.8830  -11.7960  -35.5260 O.2    53  GLY53      -0.2714
     19  N         28.4810   -9.7710  -36.4300 N.am   54  SER54      -0.1935
     20  CA        29.5850   -9.8600  -37.3820 C.3    54  SER54       0.2055
     21  C         30.9630   -9.7150  -36.7320 C.2    54  SER54       0.2643
     22  O         31.9780  -10.0520  -37.3430 O.2    54  SER54      -0.2714
     23  CB        29.4220   -8.8090  -38.4770 C.3    54  SER54       0.2130
     24  OG        29.5990   -7.5050  -37.9620 O.3    54  SER54      -0.2179
     25  N         31.0030   -9.2080  -35.5030 N.am   55  GLU55      -0.1963
     26  CA        32.2610   -9.0950  -34.7720 C.3    55  GLU55       0.1733
     27  C         32.0650   -9.3930  -33.2890 C.2    55  GLU55       0.2616
     28  O         31.0240   -9.0760  -32.7140 O.2    55  GLU55      -0.2715
     29  CB        32.8740   -7.7080  -34.9640 C.3    55  GLU55       0.0429
     30  CG        33.3380   -7.4380  -36.3850 C.3    55  GLU55       0.1163
     31  CD        33.8870   -6.0350  -36.5620 C.2    55  GLU55       0.3649
     32  OE1       33.8810   -5.2660  -35.5780 O.co2  55  GLU55      -0.2457
     33  OE2       34.3230   -5.7020  -37.6840 O.co2  55  GLU55      -0.2457
     34  N         33.0770  -10.0150  -32.6890 N.am   56  LYS56      -0.1977
     35  CA        33.0560  -10.4250  -31.2920 C.3    56  LYS56       0.1596
     36  C         34.4000  -10.1030  -30.6630 C.2    56  LYS56       0.2287
     37  O         35.4280  -10.2200  -31.3190 O.2    56  LYS56      -0.2864
     38  CB        32.8600  -11.9380  -31.1810 C.3    56  LYS56       0.0298
     39  CG        31.6110  -12.4860  -31.8210 C.3    56  LYS56       0.0038
     40  CD        31.6800  -14.0080  -31.8860 C.3    56  LYS56       0.0206
     41  CE        30.4370  -14.6030  -32.5260 C.3    56  LYS56       0.1093
     42  NZ        30.4650  -16.0910  -32.4920 N.3    56  LYS56      -0.1314
     43  N         27.5560  -15.2000  -28.5140 N.3    69  SER69      -0.1217
     44  CA        26.8370  -15.2230  -29.7810 C.3    69  SER69       0.1889
     45  C         25.4390  -14.6790  -29.5530 C.2    69  SER69       0.2288
     46  O         25.0650  -14.3830  -28.4230 O.2    69  SER69      -0.2866
     47  CB        26.7750  -16.6480  -30.3440 C.3    69  SER69       0.2089
     48  OG        26.1490  -17.5300  -29.4340 O.3    69  SER69      -0.2183
     49  N         19.1970  -12.9090  -33.4290 N.3    72  ASN72      -0.1240
     50  CA        18.3820  -11.6970  -33.4660 C.3    72  ASN72       0.1653
     51  C         16.9160  -12.0120  -33.7370 C.2    72  ASN72       0.2266
     52  O         16.0330  -11.2200  -33.3970 O.2    72  ASN72      -0.2867
     53  CB        18.9380  -10.6670  -34.4630 C.3    72  ASN72       0.1155
     54  CG        20.1630   -9.9380  -33.9250 C.2    72  ASN72       0.2627
     55  OD1       20.3430   -9.8150  -32.7150 O.2    72  ASN72      -0.2716
     56  ND2       21.0060   -9.4500  -34.8210 N.am   72  ASN72      -0.0877
     57  N         26.5260   -0.4360  -40.6710 N.3   110  PHE110     -0.1227
     58  CA        25.9440   -1.2600  -41.7200 C.3   110  PHE110      0.1736
     59  C         24.5690   -1.7190  -41.2800 C.2   110  PHE110      0.2595
     60  O         24.3520   -1.9740  -40.1040 O.2   110  PHE110     -0.2718
     61  CB        26.8080   -2.4930  -41.9900 C.3   110  PHE110      0.0547
     62  CG        28.1480   -2.1810  -42.5820 C.ar  110  PHE110     -0.0202
     63  CD1       28.2630   -1.8150  -43.9130 C.ar  110  PHE110     -0.0042
     64  CD2       29.2950   -2.2720  -41.8150 C.ar  110  PHE110     -0.0042
     65  CE1       29.4970   -1.5330  -44.4640 C.ar  110  PHE110     -0.0003
     66  CE2       30.5370   -1.9940  -42.3610 C.ar  110  PHE110     -0.0003
     67  CZ        30.6370   -1.6220  -43.6860 C.ar  110  PHE110     -0.0000
     68  N         23.6330   -1.8020  -42.2170 N.am  111  TYR111     -0.1976
     69  CA        22.3010   -2.3150  -41.9130 C.3   111  TYR111      0.1639
     70  C         21.5760   -1.4810  -40.8560 C.2   111  TYR111      0.2290
     71  O         20.6980   -1.9860  -40.1590 O.2   111  TYR111     -0.2864
     72  CB        22.3900   -3.7720  -41.4470 C.3   111  TYR111      0.0560
     73  CG        22.9760   -4.7050  -42.4820 C.ar  111  TYR111     -0.0198
     74  CD1       22.4130   -4.8080  -43.7470 C.ar  111  TYR111     -0.0009
     75  CD2       24.0830   -5.4870  -42.1920 C.ar  111  TYR111     -0.0009
     76  CE1       22.9420   -5.6580  -44.6980 C.ar  111  TYR111      0.0417
     77  CE2       24.6180   -6.3430  -43.1350 C.ar  111  TYR111      0.0417
     78  CZ        24.0440   -6.4250  -44.3880 C.ar  111  TYR111      0.1957
     79  OH        24.5720   -7.2750  -45.3350 O.3   111  TYR111     -0.2866
@<TRIPOS>BOND
     1    79    78    1
     2    76    78   ar
     3    76    74   ar
     4    65    63   ar
     5    65    67   ar
     6    78    77   ar
     7    63    62   ar
     8    74    73   ar
     9    67    66   ar
    10    77    75   ar
    11    62    61    1
    12    62    64   ar
    13    73    75   ar
    14    73    72    1
    15    66    64   ar
    16    68    69    1
    17    68    59   am
    18    61    58    1
    19    69    72    1
    20    69    70    1
    21    58    59    1
    22    58    57    1
    23    59    60    2
    24    70    71    2
    25    14    12   ar
    26    23    24    1
    27    23    20    1
    28    12    11    1
    29    12    13   ar
    30    33    31   ar
    31    11     8    1
    32    20    21    1
    33    20    19    1
    34    22    21    2
    35    10     9    2
    36    21    25   am
    37    31    30    1
    38    31    32   ar
    39    19    17   am
    40    30    29    1
    41     8     9    1
    42     8     7    1
    43     9    15   am
    44    17    18    2
    45    17    16    1
    46    25    26    1
    47     6     5    1
    48    15    16    1
    49    29    26    1
    50    56    54   am
    51     4     3    2
    52    26    27    1
    53     5     2    1
    54    53    54    1
    55    53    50    1
    56     3     2    1
    57    54    55    2
    58    51    50    1
    59    51    52    2
    60     2     1    1
    61    50    49    1
    62    27    28    2
    63    27    34   am
    64    34    35    1
    65    41    42    1
    66    41    40    1
    67    40    39    1
    68    39    38    1
    69    37    36    2
    70    35    38    1
    71    35    36    1
    72    47    44    1
    73    47    48    1
    74    44    45    1
    75    44    43    1
    76    45    46    2
