@<TRIPOS>MOLECULE
tmp/3u4oA00.pdb
 171 163 0 0 0
SMALL
GASTEIGER

@<TRIPOS>ATOM
      1  N         23.7380   36.1340   41.3140 N.3   188  PHE188     -0.1241
      2  CA        22.4820   36.8600   41.3040 C.3   188  PHE188      0.1605
      3  C         21.2730   36.0500   41.7220 C.2   188  PHE188      0.2264
      4  O         20.2070   36.6260   41.8760 O.2   188  PHE188     -0.2867
      5  CB        22.2810   37.5960   39.9790 C.3   188  PHE188      0.0534
      6  CG        23.3080   38.6790   39.6810 C.ar  188  PHE188     -0.0203
      7  CD1       23.3170   39.8710   40.4030 C.ar  188  PHE188     -0.0042
      8  CD2       24.2150   38.5300   38.6370 C.ar  188  PHE188     -0.0042
      9  CE1       24.2170   40.9030   40.0830 C.ar  188  PHE188     -0.0003
     10  CE2       25.1170   39.5640   38.3130 C.ar  188  PHE188     -0.0003
     11  CZ        25.1240   40.7390   39.0490 C.ar  188  PHE188     -0.0000
     12  N         20.9270   38.7740   49.9040 N.3   192  PRO192     -0.2116
     13  CA        22.1680   38.8970   50.6800 C.3   192  PRO192      0.1372
     14  C         22.3060   37.7990   51.7630 C.2   192  PRO192      0.2244
     15  O         23.4120   37.3270   51.9630 O.2   192  PRO192     -0.2868
     16  CB        22.0800   40.3170   51.2790 C.3   192  PRO192      0.0268
     17  CG        21.2200   41.0670   50.3020 C.3   192  PRO192      0.0207
     18  CD        20.1610   40.0440   49.9060 C.3   192  PRO192      0.0892
     19  N         23.4960   34.7560   50.0880 N.3   195  ARG195     -0.1245
     20  CA        24.8790   34.9530   49.6330 C.3   195  ARG195      0.1563
     21  C         25.8150   34.7280   50.8150 C.2   195  ARG195      0.2260
     22  O         26.8230   34.0460   50.6770 O.2   195  ARG195     -0.2867
     23  CB        25.0640   36.3670   49.0550 C.3   195  ARG195      0.0307
     24  CG        26.5000   36.6250   48.5840 C.3   195  ARG195      0.0489
     25  CD        26.7520   38.0370   48.0670 C.3   195  ARG195      0.2205
     26  NE        28.1650   38.1830   47.6700 N.pl3 195  ARG195     -0.0865
     27  CZ        28.6180   37.9700   46.4340 C.cat 195  ARG195      0.5346
     28  NH1       27.7790   37.6350   45.4600 N.pl3 195  ARG195      0.1354
     29  NH2       29.9190   38.0700   46.1680 N.pl3 195  ARG195      0.1354
     30  N         29.3940   37.5780   39.8900 N.3   311  ASN311     -0.1225
     31  CA        28.3030   38.5220   39.6340 C.3   311  ASN311      0.1785
     32  C         28.8800   39.5240   38.6180 C.2   311  ASN311      0.2598
     33  O         29.6130   40.4170   39.0290 O.2   311  ASN311     -0.2718
     34  CB        27.9670   39.3110   40.9220 C.3   311  ASN311      0.1169
     35  CG        27.3620   38.5130   42.0220 C.2   311  ASN311      0.2627
     36  OD1       28.0160   37.6610   42.5990 O.2   311  ASN311     -0.2716
     37  ND2       26.0990   38.7920   42.3380 N.am  311  ASN311     -0.0877
     38  N         28.5870   39.3510   37.3260 N.am  312  GLY312     -0.1942
     39  CA        29.1670   40.2180   36.2920 C.3   312  GLY312      0.2014
     40  C         30.6770   40.0580   36.3020 C.2   312  GLY312      0.2639
     41  O         31.1790   38.9330   36.3150 O.2   312  GLY312     -0.2714
     42  N         31.4020   41.1680   36.4320 N.am  313  ASP313     -0.1957
     43  CA        32.8650   41.1140   36.4860 C.3   313  ASP313      0.1840
     44  C         33.4000   40.8890   37.9010 C.2   313  ASP313      0.2622
     45  O         34.6080   40.8640   38.1050 O.2   313  ASP313     -0.2715
     46  CB        33.4540   42.4090   35.8880 C.3   313  ASP313      0.1450
     47  CG        33.2190   43.7040   36.6550 C.2   313  ASP313      0.3671
     48  OD1       32.3760   43.7140   37.5750 O.co2 313  ASP313     -0.2456
     49  OD2       33.8530   44.7140   36.3120 O.co2 313  ASP313     -0.2456
     50  N         32.5120   40.7730   38.8850 N.am  314  ASP314     -0.1971
     51  CA        32.9660   40.5780   40.2720 C.3   314  ASP314      0.1709
     52  C         33.1190   39.1070   40.5520 C.2   314  ASP314      0.2293
     53  O         32.1700   38.3340   40.3830 O.2   314  ASP314     -0.2864
     54  CB        31.9830   41.2240   41.2360 C.3   314  ASP314      0.1436
     55  CG        32.5880   41.4470   42.5870 C.2   314  ASP314      0.3671
     56  OD1       32.8330   40.4480   43.2920 O.co2 314  ASP314     -0.2456
     57  OD2       32.8380   42.6170   42.9320 O.co2 314  ASP314     -0.2456
     58  N         31.8140   41.8720   45.6870 N.3   361  CYS361     -0.1221
     59  CA        30.6010   42.6710   45.4390 C.3   361  CYS361      0.1808
     60  C         30.5680   43.8800   46.3990 C.2   361  CYS361      0.2602
     61  O         29.5190   44.2350   46.9500 O.2   361  CYS361     -0.2717
     62  CB        29.3490   41.8080   45.5150 C.3   361  CYS361      0.0970
     63  SG        29.1210   40.7740   44.0420 S.3   361  CYS361     -0.0800
     64  N         31.7820   44.4610   46.6320 N.am  362  SER362     -0.1938
     65  CA        32.0800   45.6360   47.4840 C.3   362  SER362      0.2055
     66  C         31.7060   45.3810   48.9550 C.2   362  SER362      0.2643
     67  O         31.6450   46.3180   49.7370 O.2   362  SER362     -0.2714
     68  CB        31.3490   46.8730   46.9720 C.3   362  SER362      0.2130
     69  OG        31.4750   47.0200   45.5660 O.3   362  SER362     -0.2179
     70  N         31.4940   44.1180   49.3180 N.am  363  SER363     -0.1949
     71  CA        31.0090   43.7310   50.6330 C.3   363  SER363      0.1924
     72  C         31.8560   42.6970   51.2970 C.2   363  SER363      0.2314
     73  O         32.5860   41.9530   50.6280 O.2   363  SER363     -0.2863
     74  CB        29.5860   43.1870   50.4860 C.3   363  SER363      0.2116
     75  OG        28.8060   44.0870   49.7140 O.3   363  SER363     -0.2180
     76  N         26.2080   40.4900   55.5840 N.3   379  LEU379     -0.1245
     77  CA        27.0640   41.2370   54.6770 C.3   379  LEU379      0.1561
     78  C         26.9930   42.7210   54.9720 C.2   379  LEU379      0.2260
     79  O         25.9030   43.2990   55.1090 O.2   379  LEU379     -0.2867
     80  CB        26.6430   40.9690   53.2310 C.3   379  LEU379      0.0270
     81  CG        27.0940   39.5980   52.7010 C.3   379  LEU379      0.0019
     82  CD1       26.3840   39.2710   51.4020 C.3   379  LEU379      0.0001
     83  CD2       28.6150   39.5600   52.5090 C.3   379  LEU379      0.0001
     84  N         29.5280   46.6250   54.2210 N.3   381  ARG381     -0.1245
     85  CA        30.4930   47.2970   53.3330 C.3   381  ARG381      0.1563
     86  C         30.8930   48.6010   53.9850 C.2   381  ARG381      0.2260
     87  O         30.2220   49.0660   54.9150 O.2   381  ARG381     -0.2867
     88  CB        29.8660   47.5610   51.9390 C.3   381  ARG381      0.0307
     89  CG        28.6610   48.5530   51.9290 C.3   381  ARG381      0.0489
     90  CD        28.3850   49.0650   50.5160 C.3   381  ARG381      0.2205
     91  NE        29.3870   50.0690   50.1310 N.pl3 381  ARG381     -0.0865
     92  CZ        29.8090   50.2600   48.8880 C.cat 381  ARG381      0.5346
     93  NH1       29.3210   49.5230   47.8920 N.pl3 381  ARG381      0.1354
     94  NH2       30.7400   51.1740   48.6300 N.pl3 381  ARG381      0.1354
     95  N         19.4420   55.3200   45.7750 N.3   402  SER402     -0.1217
     96  CA        20.3570   54.2960   46.2660 C.3   402  SER402      0.1889
     97  C         20.1700   54.0660   47.7730 C.2   402  SER402      0.2288
     98  O         20.4030   52.9640   48.2310 O.2   402  SER402     -0.2866
     99  CB        21.8010   54.6800   45.9680 C.3   402  SER402      0.2089
    100  OG        22.2180   55.7380   46.8140 O.3   402  SER402     -0.2183
    101  N         17.6840   51.2410   48.2060 N.3   405  GLY405     -0.1210
    102  CA        18.2910   49.9570   47.8710 C.3   405  GLY405      0.1956
    103  C         19.2790   49.5040   48.9280 C.2   405  GLY405      0.2611
    104  O         19.3730   48.3070   49.2380 O.2   405  GLY405     -0.2717
    105  N         20.0200   50.4820   49.5140 N.am  406  ASN406     -0.1974
    106  CA        20.9990   50.1760   50.5660 C.3   406  ASN406      0.1688
    107  C         20.3090   49.7340   51.8270 C.2   406  ASN406      0.2292
    108  O         20.7750   48.7940   52.4800 O.2   406  ASN406     -0.2864
    109  CB        21.9310   51.3780   50.8160 C.3   406  ASN406      0.1181
    110  CG        23.0330   51.4530   49.7870 C.2   406  ASN406      0.2629
    111  OD1       23.5850   50.4260   49.3520 O.2   406  ASN406     -0.2716
    112  ND2       23.3670   52.6470   49.3600 N.am  406  ASN406     -0.0877
    113  N         19.1650   46.0260   51.0010 N.3   409  MET409     -0.1230
    114  CA        20.2570   45.0650   50.8870 C.3   409  MET409      0.1702
    115  C         21.1490   44.9880   52.1110 C.2   409  MET409      0.2592
    116  O         21.7160   43.9360   52.3820 O.2   409  MET409     -0.2718
    117  CB        21.0690   45.3500   49.6080 C.3   409  MET409      0.0401
    118  CG        20.2050   45.2850   48.3310 C.3   409  MET409      0.0596
    119  SD        19.5610   43.6080   48.0040 S.3   409  MET409     -0.1393
    120  CE        20.9420   42.9180   47.2060 C.3   409  MET409      0.0692
    121  N         21.3130   46.1140   52.8180 N.am  410  TYR410     -0.1976
    122  CA        22.1920   46.1530   53.9810 C.3   410  TYR410      0.1639
    123  C         21.3990   46.3870   55.2740 C.2   410  TYR410      0.2290
    124  O         21.9620   46.8500   56.2690 O.2   410  TYR410     -0.2864
    125  CB        23.2680   47.2400   53.7820 C.3   410  TYR410      0.0560
    126  CG        24.2390   46.8740   52.6780 C.ar  410  TYR410     -0.0198
    127  CD1       25.1860   45.8680   52.8600 C.ar  410  TYR410     -0.0009
    128  CD2       24.1740   47.4990   51.4350 C.ar  410  TYR410     -0.0009
    129  CE1       26.0970   45.5420   51.8520 C.ar  410  TYR410      0.0417
    130  CE2       25.0870   47.1880   50.4210 C.ar  410  TYR410      0.0417
    131  CZ        26.0340   46.1990   50.6330 C.ar  410  TYR410      0.1957
    132  OH        26.8960   45.8600   49.6140 O.3   410  TYR410     -0.2866
    133  N         17.1110   50.2270   42.9150 N.3   441  GLN441     -0.1231
    134  CA        17.6130   49.1510   42.0540 C.3   441  GLN441      0.1698
    135  C         18.1150   48.0140   42.8970 C.2   441  GLN441      0.2592
    136  O         18.8540   48.2360   43.8650 O.2   441  GLN441     -0.2718
    137  CB        18.7900   49.6360   41.1790 C.3   441  GLN441      0.0381
    138  CG        18.4300   50.5130   40.0080 C.3   441  GLN441      0.0905
    139  CD        19.6750   50.7860   39.1830 C.2   441  GLN441      0.2608
    140  OE1       20.7770   50.2730   39.4450 O.2   441  GLN441     -0.2717
    141  NE2       19.5260   51.5840   38.1500 N.am  441  GLN441     -0.0878
    142  N         17.7840   46.7780   42.4780 N.am  442  ILE442     -0.1966
    143  CA        18.2350   45.5620   43.1310 C.3   442  ILE442      0.1727
    144  C         18.7770   44.7150   42.0010 C.2   442  ILE442      0.2616
    145  O         18.0230   44.3880   41.0650 O.2   442  ILE442     -0.2715
    146  CB        17.1050   44.8200   43.8950 C.3   442  ILE442      0.0290
    147  CG1       16.3930   45.7360   44.9750 C.3   442  ILE442      0.0022
    148  CG2       17.6400   43.5090   44.4880 C.3   442  ILE442      0.0023
    149  CD1       17.2570   46.2180   46.2020 C.3   442  ILE442      0.0001
    150  N         20.0720   44.3890   42.0780 N.am  443  TYR443     -0.1960
    151  CA        20.7480   43.5970   41.0340 C.3   443  TYR443      0.1771
    152  C         20.5050   44.1970   39.6220 C.2   443  TYR443      0.2620
    153  O         20.2850   43.4850   38.6280 O.2   443  TYR443     -0.2715
    154  CB        20.3650   42.1140   41.1530 C.3   443  TYR443      0.0574
    155  CG        20.8890   41.3950   42.3840 C.ar  443  TYR443     -0.0198
    156  CD1       21.8460   41.9830   43.2120 C.ar  443  TYR443     -0.0009
    157  CD2       20.5270   40.0740   42.6460 C.ar  443  TYR443     -0.0009
    158  CE1       22.3570   41.3080   44.3200 C.ar  443  TYR443      0.0417
    159  CE2       21.0720   39.3750   43.7190 C.ar  443  TYR443      0.0417
    160  CZ        21.9520   40.0090   44.5800 C.ar  443  TYR443      0.1957
    161  OH        22.4880   39.3080   45.6350 O.3   443  TYR443     -0.2866
    162  N         20.5200   45.5280   39.5720 N.am  444  GLY444     -0.1954
    163  CA        20.3870   46.2690   38.3270 C.3   444  GLY444      0.1869
    164  C         18.9840   46.5190   37.8250 C.2   444  GLY444      0.2309
    165  O         18.8190   47.3410   36.9320 O.2   444  GLY444     -0.2863
    166  N         22.0790   44.8110   35.4140 N.3   551  SER551     -0.1217
    167  CA        22.6990   46.1540   35.3050 C.3   551  SER551      0.1889
    168  C         22.9740   46.5630   33.8510 C.2   551  SER551      0.2288
    169  O         23.5160   45.7720   33.0920 O.2   551  SER551     -0.2866
    170  CB        23.9690   46.2550   36.1300 C.3   551  SER551      0.2089
    171  OG        23.5870   46.2680   37.4970 O.3   551  SER551     -0.2183
@<TRIPOS>BOND
     1   169   168    2
     2   168   167    1
     3   167   166    1
     4   167   170    1
     5    46    43    1
     6    46    47    1
     7   170   171    1
     8    39    40    1
     9    39    38    1
    10    40    41    2
    11    40    42   am
    12    49    47   ar
    13    42    43    1
    14    43    44    1
    15    47    48   ar
    16   165   164    2
    17    38    32   am
    18   164   163    1
    19    44    45    2
    20    44    50   am
    21   141   139   am
    22    10     8   ar
    23    10    11   ar
    24   163   162    1
    25    32    33    2
    26    32    31    1
    27   153   152    2
    28     8     6   ar
    29    50    51    1
    30    11     9   ar
    31   139   140    2
    32   139   138    1
    33   162   152   am
    34   152   151    1
    35    31    30    1
    36    31    34    1
    37     6     5    1
    38     6     7   ar
    39     5     2    1
    40   138   137    1
    41     9     7   ar
    42    51    52    1
    43    51    54    1
    44    53    52    2
    45    34    35    1
    46   151   154    1
    47   151   150    1
    48   145   144    2
    49   154   155    1
    50   137   134    1
    51    54    55    1
    52     2     1    1
    53     2     3    1
    54     3     4    2
    55   144   150   am
    56   144   143    1
    57    35    37   am
    58    35    36    2
    59   134   135    1
    60   134   133    1
    61   155   157   ar
    62   155   156   ar
    63   142   135   am
    64   142   143    1
    65    55    57   ar
    66    55    56   ar
    67   157   159   ar
    68   135   136    2
    69   143   146    1
    70   156   158   ar
    71   159   160   ar
    72   146   148    1
    73   146   147    1
    74    63    62    1
    75   158   160   ar
    76   160   161    1
    77   147   149    1
    78    59    62    1
    79    59    58    1
    80    59    60    1
    81    28    27    1
    82    69    68    1
    83    95    96    1
    84    99    96    1
    85    99   100    1
    86    29    27    1
    87    96    97    1
    88    60    64   am
    89    60    61    2
    90    27    26    2
    91    64    65    1
    92    68    65    1
    93   120   119    1
    94    65    66    1
    95    26    25    1
    96    97    98    2
    97   102   101    1
    98   102   103    1
    99    93    92    1
   100   119   118    1
   101    25    24    1
   102   118   117    1
   103    24    23    1
   104    94    92    1
   105    92    91    2
   106   103   104    2
   107   103   105   am
   108    66    70   am
   109    66    67    2
   110    23    20    1
   111    70    71    1
   112   111   110    2
   113   112   110   am
   114   105   106    1
   115   117   114    1
   116   132   131    1
   117    20    19    1
   118    20    21    1
   119    75    74    1
   120   110   109    1
   121    12    18    1
   122    12    13    1
   123    18    17    1
   124    91    90    1
   125    17    16    1
   126   130   131   ar
   127   130   128   ar
   128    74    71    1
   129    90    89    1
   130   106   109    1
   131   106   107    1
   132    73    72    2
   133   131   129   ar
   134    71    72    1
   135    22    21    2
   136    13    16    1
   137    13    14    1
   138   114   113    1
   139   114   115    1
   140    82    81    1
   141   128   126   ar
   142    14    15    2
   143   107   108    2
   144   129   127   ar
   145    89    88    1
   146    88    85    1
   147   115   116    2
   148   115   121   am
   149    83    81    1
   150   126   127   ar
   151   126   125    1
   152    81    80    1
   153   121   122    1
   154    80    77    1
   155    85    86    1
   156    85    84    1
   157   125   122    1
   158   122   123    1
   159    86    87    2
   160    77    78    1
   161    77    76    1
   162    78    79    2
   163   123   124    2
