@<TRIPOS>MOLECULE
tmp/3u4rB00.pdb
 204 192 0 0 0
SMALL
GASTEIGER

@<TRIPOS>ATOM
      1  N          9.7590    7.3870   -6.9020 N.3   153  ARG153     -0.1245
      2  CA        10.0070    8.2380   -5.7380 C.3   153  ARG153      0.1563
      3  C         10.1990    9.6720   -6.2960 C.2   153  ARG153      0.2260
      4  O         10.5870    9.8420   -7.4560 O.2   153  ARG153     -0.2867
      5  CB        11.2820    7.7800   -4.9950 C.3   153  ARG153      0.0307
      6  CG        11.1150    6.4750   -4.2040 C.3   153  ARG153      0.0489
      7  CD        12.1820    6.3250   -3.1280 C.3   153  ARG153      0.2205
      8  NE        13.4500    5.8210   -3.6610 N.pl3 153  ARG153     -0.0865
      9  CZ        14.6390    6.0060   -3.0870 C.cat 153  ARG153      0.5346
     10  NH1       14.7410    6.6990   -1.9590 N.pl3 153  ARG153      0.1354
     11  NH2       15.7360    5.5120   -3.6450 N.pl3 153  ARG153      0.1354
     12  N         26.0510    4.4960   10.0250 N.3   188  PHE188     -0.1241
     13  CA        26.9610    4.8360    8.9380 C.3   188  PHE188      0.1605
     14  C         28.4480    4.7880    9.2570 C.2   188  PHE188      0.2264
     15  O         29.2540    4.8130    8.3310 O.2   188  PHE188     -0.2867
     16  CB        26.5470    6.1550    8.2830 C.3   188  PHE188      0.0534
     17  CG        25.1870    6.1190    7.6300 C.ar  188  PHE188     -0.0203
     18  CD1       24.9530    5.3210    6.5070 C.ar  188  PHE188     -0.0042
     19  CD2       24.1650    6.9540    8.0680 C.ar  188  PHE188     -0.0042
     20  CE1       23.7020    5.3140    5.8790 C.ar  188  PHE188     -0.0003
     21  CE2       22.9230    6.9690    7.4120 C.ar  188  PHE188     -0.0003
     22  CZ        22.6980    6.1410    6.3340 C.ar  188  PHE188     -0.0000
     23  N         30.2930   -3.1030    6.3710 N.3   192  PRO192     -0.2116
     24  CA        29.4030   -4.2730    6.5850 C.3   192  PRO192      0.1372
     25  C         29.8640   -5.2830    7.6620 C.2   192  PRO192      0.2244
     26  O         29.0330   -5.7640    8.4260 O.2   192  PRO192     -0.2868
     27  CB        29.3260   -4.9060    5.1930 C.3   192  PRO192      0.0268
     28  CG        29.5860   -3.7560    4.2570 C.3   192  PRO192      0.0207
     29  CD        30.6630   -2.9730    4.9450 C.3   192  PRO192      0.0892
     30  N         29.2350   -3.7380   11.0460 N.3   195  ARG195     -0.1245
     31  CA        27.7910   -3.7190   11.2750 C.3   195  ARG195      0.1563
     32  C         27.3080   -5.0940   11.7780 C.2   195  ARG195      0.2260
     33  O         26.5240   -5.1480   12.7190 O.2   195  ARG195     -0.2867
     34  CB        27.0400   -3.3330    9.9850 C.3   195  ARG195      0.0307
     35  CG        25.5220   -3.2690   10.1930 C.3   195  ARG195      0.0489
     36  CD        24.7200   -2.9140    8.9530 C.3   195  ARG195      0.2205
     37  NE        23.2790   -2.9430    9.2630 N.pl3 195  ARG195     -0.0865
     38  CZ        22.5960   -1.9150    9.7610 C.cat 195  ARG195      0.5346
     39  NH1       23.1990   -0.7500    9.9760 N.pl3 195  ARG195      0.1354
     40  NH2       21.3050   -2.0430   10.0510 N.pl3 195  ARG195      0.1354
     41  N         10.3600   10.7760    4.9070 N.3   220  ASP220     -0.1239
     42  CA        10.5510   12.1730    4.4870 C.3   220  ASP220      0.1674
     43  C          9.2990   13.0230    4.6010 C.2   220  ASP220      0.2266
     44  O          9.3840   14.1600    5.0570 O.2   220  ASP220     -0.2867
     45  CB        11.1260   12.2590    3.0660 C.3   220  ASP220      0.1410
     46  CG        12.5670   11.8290    2.9740 C.2   220  ASP220      0.3668
     47  OD1       13.1280   11.4000    4.0100 O.co2 220  ASP220     -0.2456
     48  OD2       13.1410   11.9200    1.8670 O.co2 220  ASP220     -0.2456
     49  N         19.8240   15.6630    4.5780 N.3   282  THR282     -0.1203
     50  CA        18.8510   14.5570    4.5860 C.3   282  THR282      0.1994
     51  C         19.2710   13.3300    5.3820 C.2   282  THR282      0.2618
     52  O         18.4910   12.8530    6.2040 O.2   282  THR282     -0.2717
     53  CB        18.2670   14.2750    3.1930 C.3   282  THR282      0.1784
     54  OG1       17.7140   15.4900    2.7010 O.3   282  THR282     -0.2211
     55  CG2       17.1590   13.1740    3.2010 C.3   282  THR282      0.0376
     56  N         20.4710   12.8080    5.1510 N.am  283  SER283     -0.1951
     57  CA        20.8890   11.6070    5.8640 C.3   283  SER283      0.1924
     58  C         20.9820   11.8130    7.3830 C.2   283  SER283      0.2314
     59  O         20.3520   11.0600    8.1340 O.2   283  SER283     -0.2863
     60  CB        22.1940   11.0710    5.2980 C.3   283  SER283      0.2116
     61  OG        22.5040    9.8500    5.9520 O.3   283  SER283     -0.2180
     62  N         17.5520   12.8850    9.0090 N.3   286  ASN286     -0.1240
     63  CA        16.6870   11.7250    9.2260 C.3   286  ASN286      0.1653
     64  C         17.2210   10.8260   10.3130 C.2   286  ASN286      0.2266
     65  O         16.4330   10.3090   11.0780 O.2   286  ASN286     -0.2867
     66  CB        16.4540   10.9180    7.9500 C.3   286  ASN286      0.1155
     67  CG        15.5650   11.6030    6.9610 C.2   286  ASN286      0.2627
     68  OD1       14.8370   12.5390    7.2750 O.2   286  ASN286     -0.2716
     69  ND2       15.5880   11.1430    5.7400 N.am  286  ASN286     -0.0877
     70  N         20.1770    4.3150   10.5690 N.3   311  ASN311     -0.1225
     71  CA        20.8120    4.7510    9.3150 C.3   311  ASN311      0.1785
     72  C         19.7020    5.4950    8.5810 C.2   311  ASN311      0.2598
     73  O         18.8950    4.8430    7.9120 O.2   311  ASN311     -0.2718
     74  CB        21.2600    3.5540    8.4560 C.3   311  ASN311      0.1169
     75  CG        22.3790    2.7080    8.9930 C.2   311  ASN311      0.2627
     76  OD1       22.2380    2.0360    9.9990 O.2   311  ASN311     -0.2716
     77  ND2       23.4490    2.5930    8.2290 N.am  311  ASN311     -0.0877
     78  N         19.6170    6.8200    8.7740 N.am  312  GLY312     -0.1942
     79  CA        18.5670    7.6510    8.1780 C.3   312  GLY312      0.2014
     80  C         17.2080    7.2730    8.7370 C.2   312  GLY312      0.2639
     81  O         17.0330    7.2370    9.9530 O.2   312  GLY312     -0.2714
     82  N         16.2620    6.8890    7.8560 N.am  313  ASP313     -0.1957
     83  CA        14.9320    6.4180    8.2510 C.3   313  ASP313      0.1840
     84  C         14.9170    4.9240    8.6460 C.2   313  ASP313      0.2622
     85  O         13.8510    4.3970    9.0000 O.2   313  ASP313     -0.2715
     86  CB        13.9390    6.6240    7.1010 C.3   313  ASP313      0.1450
     87  CG        14.2720    5.9600    5.7750 C.2   313  ASP313      0.3671
     88  OD1       15.4450    5.6080    5.5630 O.co2 313  ASP313     -0.2456
     89  OD2       13.3790    5.8960    4.9060 O.co2 313  ASP313     -0.2456
     90  N         16.0710    4.2380    8.5390 N.am  314  ASP314     -0.1971
     91  CA        16.1490    2.8060    8.8310 C.3   314  ASP314      0.1709
     92  C         16.5300    2.5650   10.2760 C.2   314  ASP314      0.2293
     93  O         17.5980    2.9820   10.7210 O.2   314  ASP314     -0.2864
     94  CB        17.0980    2.0930    7.8640 C.3   314  ASP314      0.1436
     95  CG        16.8920    0.5960    7.8530 C.2   314  ASP314      0.3671
     96  OD1       17.3270   -0.0670    8.8150 O.co2 314  ASP314     -0.2456
     97  OD2       16.3340    0.0840    6.8620 O.co2 314  ASP314     -0.2456
     98  N         18.2930   -2.2010    7.0570 N.3   361  CYS361     -0.1221
     99  CA        19.0350   -1.6080    5.9310 C.3   361  CYS361      0.1808
    100  C         18.9480   -2.5800    4.7350 C.2   361  CYS361      0.2602
    101  O         19.9490   -2.8440    4.0610 O.2   361  CYS361     -0.2717
    102  CB        20.4750   -1.2620    6.3010 C.3   361  CYS361      0.0970
    103  SG        20.6290    0.1430    7.4270 S.3   361  CYS361     -0.0800
    104  N         17.7250   -3.1480    4.5330 N.am  362  SER362     -0.1938
    105  CA        17.3390   -4.1370    3.5040 C.3   362  SER362      0.2055
    106  C         18.1740   -5.4390    3.6030 C.2   362  SER362      0.2643
    107  O         18.0770   -6.2940    2.7240 O.2   362  SER362     -0.2714
    108  CB        17.4350   -3.5320    2.1030 C.3   362  SER362      0.2130
    109  OG        16.7980   -2.2700    2.0160 O.3   362  SER362     -0.2179
    110  N         18.9100   -5.6100    4.7180 N.am  363  SER363     -0.1949
    111  CA        19.8070   -6.7320    4.9670 C.3   363  SER363      0.1924
    112  C         19.4500   -7.5630    6.1940 C.2   363  SER363      0.2314
    113  O         18.7820   -7.0760    7.1050 O.2   363  SER363     -0.2863
    114  CB        21.2340   -6.2110    5.1190 C.3   363  SER363      0.2116
    115  OG        21.5160   -5.2060    4.1610 O.3   363  SER363     -0.2180
    116  N         26.2900  -10.0640    6.2250 N.3   379  LEU379     -0.1245
    117  CA        25.0080   -9.4980    5.8240 C.3   379  LEU379      0.1561
    118  C         24.6750   -9.9000    4.4110 C.2   379  LEU379      0.2260
    119  O         25.5230   -9.8700    3.5120 O.2   379  LEU379     -0.2867
    120  CB        24.9730   -7.9650    5.9410 C.3   379  LEU379      0.0270
    121  CG        24.8850   -7.4040    7.3450 C.3   379  LEU379      0.0019
    122  CD1       25.3990   -6.0010    7.3800 C.3   379  LEU379      0.0001
    123  CD2       23.4740   -7.5230    7.9260 C.3   379  LEU379      0.0001
    124  N         25.0690   -0.0020   -9.9790 N.3   402  SER402     -0.1217
    125  CA        24.5700   -0.6110   -8.7420 C.3   402  SER402      0.1889
    126  C         25.2210   -1.9760   -8.5040 C.2   402  SER402      0.2288
    127  O         25.4270   -2.3510   -7.3430 O.2   402  SER402     -0.2866
    128  CB        23.0530   -0.7460   -8.7570 C.3   402  SER402      0.2089
    129  OG        22.6410   -1.8360   -9.5650 O.3   402  SER402     -0.2183
    130  N         28.6210   -1.4830   -6.5210 N.3   405  GLY405     -0.1210
    131  CA        28.3520   -1.1760   -5.1180 C.3   405  GLY405      0.1956
    132  C         27.8380   -2.4070   -4.3940 C.2   405  GLY405      0.2611
    133  O         28.2380   -2.6660   -3.2610 O.2   405  GLY405     -0.2717
    134  N         26.9850   -3.2180   -5.0700 N.am  406  ASN406     -0.1974
    135  CA        26.4600   -4.4640   -4.4940 C.3   406  ASN406      0.1688
    136  C         27.5480   -5.5280   -4.2730 C.2   406  ASN406      0.2292
    137  O         27.5270   -6.1750   -3.2310 O.2   406  ASN406     -0.2864
    138  CB        25.2620   -5.0060   -5.2670 C.3   406  ASN406      0.1181
    139  CG        23.9440   -4.3630   -4.8870 C.2   406  ASN406      0.2629
    140  OD1       23.5950   -4.2020   -3.6980 O.2   406  ASN406     -0.2716
    141  ND2       23.1380   -4.0750   -5.8970 N.am  406  ASN406     -0.0877
    142  N         29.5510   -4.1830   -1.1470 N.3   409  MET409     -0.1230
    143  CA        28.8020   -4.3040    0.0940 C.3   409  MET409      0.1702
    144  C         28.3600   -5.7230    0.4440 C.2   409  MET409      0.2592
    145  O         28.2240   -6.0470    1.6240 O.2   409  MET409     -0.2718
    146  CB        27.5970   -3.3350    0.0850 C.3   409  MET409      0.0401
    147  CG        27.9920   -1.8410   -0.0590 C.3   409  MET409      0.0596
    148  SD        29.0770   -1.2210    1.2650 S.3   409  MET409     -0.1393
    149  CE        27.8710   -0.8850    2.5140 C.3   409  MET409      0.0692
    150  N         28.1010   -6.5480   -0.5810 N.am  410  TYR410     -0.1976
    151  CA        27.6170   -7.9130   -0.3840 C.3   410  TYR410      0.1639
    152  C         28.5740   -8.9460   -0.9190 C.2   410  TYR410      0.2290
    153  O         28.1530  -10.0520   -1.2360 O.2   410  TYR410     -0.2864
    154  CB        26.2260   -8.0790   -0.9970 C.3   410  TYR410      0.0560
    155  CG        25.1790   -7.2620   -0.2830 C.ar  410  TYR410     -0.0198
    156  CD1       24.6970   -7.6450    0.9680 C.ar  410  TYR410     -0.0009
    157  CD2       24.6840   -6.0900   -0.8420 C.ar  410  TYR410     -0.0009
    158  CE1       23.7370   -6.8860    1.6360 C.ar  410  TYR410      0.0417
    159  CE2       23.7270   -5.3260   -0.1830 C.ar  410  TYR410      0.0417
    160  CZ        23.2560   -5.7250    1.0550 C.ar  410  TYR410      0.1957
    161  OH        22.2830   -4.9840    1.6780 O.3   410  TYR410     -0.2866
    162  N         27.8740    3.8130   -5.5720 N.3   441  GLN441     -0.1231
    163  CA        27.5150    4.5070   -4.3490 C.3   441  GLN441      0.1698
    164  C         27.6370    3.6870   -3.0830 C.2   441  GLN441      0.2592
    165  O         27.1330    2.5630   -3.0110 O.2   441  GLN441     -0.2718
    166  CB        26.1440    5.1720   -4.4840 C.3   441  GLN441      0.0381
    167  CG        26.1660    6.3280   -5.4830 C.3   441  GLN441      0.0905
    168  CD        24.9440    7.2010   -5.4070 C.2   441  GLN441      0.2608
    169  OE1       23.8060    6.7260   -5.3760 O.2   441  GLN441     -0.2717
    170  NE2       25.1640    8.5020   -5.4250 N.am  441  GLN441     -0.0878
    171  N         28.3290    4.2590   -2.0880 N.am  442  ILE442     -0.1966
    172  CA        28.5100    3.6630   -0.7630 C.3   442  ILE442      0.1727
    173  C         27.9070    4.6430    0.2400 C.2   442  ILE442      0.2616
    174  O         28.3740    5.7780    0.3360 O.2   442  ILE442     -0.2715
    175  CB        30.0030    3.2860   -0.4300 C.3   442  ILE442      0.0290
    176  CG1       30.6560    2.3250   -1.4720 C.3   442  ILE442      0.0022
    177  CG2       30.1620    2.7880    1.0130 C.3   442  ILE442      0.0023
    178  CD1       29.8610    1.0240   -1.8190 C.3   442  ILE442      0.0001
    179  N         26.8470    4.2110    0.9560 N.am  443  TYR443     -0.1960
    180  CA        26.1070    5.0130    1.9340 C.3   443  TYR443      0.1771
    181  C         25.7590    6.4120    1.3680 C.2   443  TYR443      0.2620
    182  O         25.9860    7.4320    2.0230 O.2   443  TYR443     -0.2715
    183  CB        26.8950    5.1440    3.2630 C.3   443  TYR443      0.0574
    184  CG        27.0480    3.8850    4.0980 C.ar  443  TYR443     -0.0198
    185  CD1       26.2120    2.7870    3.9080 C.ar  443  TYR443     -0.0009
    186  CD2       27.9490    3.8390    5.1620 C.ar  443  TYR443     -0.0009
    187  CE1       26.3280    1.6440    4.6980 C.ar  443  TYR443      0.0417
    188  CE2       28.0280    2.7280    5.9940 C.ar  443  TYR443      0.0417
    189  CZ        27.2520    1.6140    5.7310 C.ar  443  TYR443      0.1957
    190  OH        27.3510    0.5130    6.5480 O.3   443  TYR443     -0.2866
    191  N         25.3130    6.4390    0.1220 N.am  444  GLY444     -0.1954
    192  CA        24.9260    7.6810   -0.5370 C.3   444  GLY444      0.1869
    193  C         26.0080    8.4770   -1.2370 C.2   444  GLY444      0.2309
    194  O         25.6820    9.2550   -2.1240 O.2   444  GLY444     -0.2863
    195  N         26.6670    8.9410    6.3800 N.3   549  GLY549     -0.1225
    196  CA        25.8080    8.6750    5.2360 C.3   549  GLY549      0.1811
    197  C         25.5360    9.9880    4.5510 C.2   549  GLY549      0.2280
    198  O         25.4490   11.0140    5.2340 O.2   549  GLY549     -0.2866
    199  N         23.1690   10.1420    1.5110 N.3   551  SER551     -0.1217
    200  CA        22.1130    9.9220    0.5110 C.3   551  SER551      0.1889
    201  C         21.4030   11.2370    0.1670 C.2   551  SER551      0.2288
    202  O         20.9210   11.9400    1.0630 O.2   551  SER551     -0.2866
    203  CB        21.1300    8.8460    0.9740 C.3   551  SER551      0.2089
    204  OG        20.0630    8.6450    0.0580 O.3   551  SER551     -0.2183
@<TRIPOS>BOND
     1   124   125    1
     2   129   128    1
     3   128   125    1
     4   125   126    1
     5   126   127    2
     6     4     3    2
     7     1     2    1
     8   130   131    1
     9     3     2    1
    10   141   139   am
    11     2     5    1
    12   162   163    1
    13   167   168    1
    14   167   166    1
    15   170   168   am
    16   168   169    2
    17   138   139    1
    18   138   135    1
    19   131   132    1
    20   134   135    1
    21   134   132   am
    22     5     6    1
    23   139   140    2
    24   135   136    1
    25   166   163    1
    26   132   133    2
    27   163   164    1
    28   136   137    2
    29     6     7    1
    30     8     7    1
    31     8     9    2
    32    11     9    1
    33     9    10    1
    34   164   165    2
    35   164   171   am
    36   194   193    2
    37   171   172    1
    38   178   176    1
    39   176   175    1
    40   193   192    1
    41   153   152    2
    42   142   143    1
    43   154   151    1
    44   154   155    1
    45   152   151    1
    46   157   155   ar
    47   157   159   ar
    48   172   175    1
    49   172   173    1
    50   150   151    1
    51   150   144   am
    52   192   191    1
    53   175   177    1
    54   155   156   ar
    55   159   160   ar
    56   147   146    1
    57   147   148    1
    58   204   203    1
    59   146   143    1
    60   143   144    1
    61   191   181   am
    62   201   200    1
    63   201   202    2
    64   173   174    2
    65   173   179   am
    66   144   145    2
    67   200   203    1
    68   200   199    1
    69   179   180    1
    70   156   158   ar
    71   160   158   ar
    72   160   161    1
    73   148   149    1
    74   181   180    1
    75   181   182    2
    76    48    46   ar
    77   180   183    1
    78   109   108    1
    79   108   105    1
    80    54    53    1
    81   107   106    2
    82    46    45    1
    83    46    47   ar
    84    45    42    1
    85    53    55    1
    86    53    50    1
    87   183   184    1
    88   105   106    1
    89   105   104    1
    90   119   118    2
    91   106   110   am
    92   185   184   ar
    93   185   187   ar
    94   101   100    2
    95   184   186   ar
    96   115   114    1
    97    28    29    1
    98    28    27    1
    99   118   117    1
   100    42    43    1
   101    42    41    1
   102   104   100   am
   103   197   198    2
   104   197   196    1
   105    49    50    1
   106    50    51    1
   107    43    44    2
   108   187   189   ar
   109   110   111    1
   110   100    99    1
   111    89    87   ar
   112    29    23    1
   113   111   114    1
   114   111   112    1
   115    56    51   am
   116    56    57    1
   117   186   188   ar
   118    27    24    1
   119   196   195    1
   120    60    57    1
   121    60    61    1
   122    51    52    2
   123    88    87   ar
   124   189   188   ar
   125   189   190    1
   126    69    67   am
   127    87    86    1
   128   117   120    1
   129   117   116    1
   130    57    58    1
   131    20    22   ar
   132    20    18   ar
   133    99   102    1
   134    99    98    1
   135   120   121    1
   136   112   113    2
   137   102   103    1
   138    22    21   ar
   139    23    24    1
   140    18    17   ar
   141    24    25    1
   142    97    95   ar
   143    67    68    2
   144    67    66    1
   145    86    83    1
   146   121   122    1
   147   121   123    1
   148    58    59    2
   149    21    19   ar
   150    17    19   ar
   151    17    16    1
   152    25    26    2
   153    95    94    1
   154    95    96   ar
   155    82    83    1
   156    82    80   am
   157    94    91    1
   158    73    72    2
   159    66    63    1
   160    79    80    1
   161    79    78    1
   162    77    75   am
   163    83    84    1
   164    16    13    1
   165    15    14    2
   166    74    75    1
   167    74    71    1
   168    90    84   am
   169    90    91    1
   170    72    78   am
   171    72    71    1
   172    84    85    2
   173    80    81    2
   174    91    92    1
   175    13    14    1
   176    13    12    1
   177    36    37    1
   178    36    35    1
   179    75    76    2
   180    62    63    1
   181    63    64    1
   182    37    38    2
   183    71    70    1
   184    38    39    1
   185    38    40    1
   186    34    35    1
   187    34    31    1
   188    92    93    2
   189    64    65    2
   190    30    31    1
   191    31    32    1
   192    32    33    2
