@<TRIPOS>MOLECULE
tmp/3u4sB01.pdb
 131 124 0 0 0
SMALL
GASTEIGER

@<TRIPOS>ATOM
      1  N         -3.8830  -17.6370  -29.8140 N.3   127  TYR127     -0.1241
      2  CA        -2.5440  -17.3530  -29.3270 C.3   127  TYR127      0.1605
      3  C         -2.3110  -15.8500  -29.2330 C.2   127  TYR127      0.2264
      4  O         -2.4410  -15.1110  -30.2030 O.2   127  TYR127     -0.2867
      5  CB        -1.5000  -17.9880  -30.2660 C.3   127  TYR127      0.0534
      6  CG        -0.1430  -18.2910  -29.6420 C.ar  127  TYR127     -0.0201
      7  CD1        0.0710  -18.1780  -28.2670 C.ar  127  TYR127     -0.0009
      8  CD2        0.9310  -18.6990  -30.4420 C.ar  127  TYR127     -0.0009
      9  CE1        1.3120  -18.4650  -27.7090 C.ar  127  TYR127      0.0417
     10  CE2        2.1770  -18.9810  -29.8930 C.ar  127  TYR127      0.0417
     11  CZ         2.3640  -18.8730  -28.5350 C.ar  127  TYR127      0.1957
     12  OH         3.6010  -19.1690  -27.9960 O.3   127  TYR127     -0.2866
     13  N          3.3300  -12.3470  -30.3480 N.3   130  ASP130     -0.1239
     14  CA         3.9920  -11.1460  -30.8590 C.3   130  ASP130      0.1674
     15  C          3.5780   -9.8170  -30.2060 C.2   130  ASP130      0.2266
     16  O          3.3500   -8.8360  -30.9030 O.2   130  ASP130     -0.2867
     17  CB         3.8590  -11.0910  -32.3860 C.3   130  ASP130      0.1410
     18  CG         4.2720  -12.4000  -33.0420 C.2   130  ASP130      0.3668
     19  OD1        5.0910  -13.1230  -32.4400 O.co2 130  ASP130     -0.2456
     20  OD2        3.7750  -12.7190  -34.1420 O.co2 130  ASP130     -0.2456
     21  N          4.3180  -13.6380  -25.3500 N.3   172  TYR172     -0.1241
     22  CA         3.4110  -14.6300  -25.9200 C.3   172  TYR172      0.1605
     23  C          2.5600  -15.1640  -24.7960 C.2   172  TYR172      0.2264
     24  O          3.0700  -15.7830  -23.8580 O.2   172  TYR172     -0.2867
     25  CB         4.1990  -15.8000  -26.5350 C.3   172  TYR172      0.0534
     26  CG         5.0690  -15.3700  -27.6930 C.ar  172  TYR172     -0.0201
     27  CD1        6.3240  -14.8070  -27.4720 C.ar  172  TYR172     -0.0009
     28  CD2        4.6260  -15.5030  -29.0050 C.ar  172  TYR172     -0.0009
     29  CE1        7.1140  -14.3920  -28.5270 C.ar  172  TYR172      0.0417
     30  CE2        5.4000  -15.0800  -30.0680 C.ar  172  TYR172      0.0417
     31  CZ         6.6490  -14.5290  -29.8240 C.ar  172  TYR172      0.1957
     32  OH         7.4370  -14.1230  -30.8840 O.3   172  TYR172     -0.2866
     33  N          3.7210  -23.3100  -32.3860 N.3   180  PHE180     -0.1241
     34  CA         4.6340  -22.6110  -33.2770 C.3   180  PHE180      0.1605
     35  C          5.2240  -23.6120  -34.2700 C.2   180  PHE180      0.2264
     36  O          5.6490  -24.6880  -33.8780 O.2   180  PHE180     -0.2867
     37  CB         5.6990  -21.8070  -32.5100 C.3   180  PHE180      0.0534
     38  CG         6.4540  -22.5970  -31.4490 C.ar  180  PHE180     -0.0203
     39  CD1        7.7890  -22.9500  -31.6480 C.ar  180  PHE180     -0.0042
     40  CD2        5.8470  -22.9330  -30.2450 C.ar  180  PHE180     -0.0042
     41  CE1        8.4990  -23.6430  -30.6800 C.ar  180  PHE180     -0.0003
     42  CE2        6.5440  -23.6410  -29.2650 C.ar  180  PHE180     -0.0003
     43  CZ         7.8730  -23.9920  -29.4810 C.ar  180  PHE180     -0.0000
     44  N         10.6990  -23.7480  -37.7270 N.3   183  HIS183     -0.1241
     45  CA        11.4570  -22.6220  -38.2700 C.3   183  HIS183      0.1621
     46  C         12.8290  -22.4960  -37.6350 C.2   183  HIS183      0.2264
     47  O         13.0420  -23.0310  -36.5550 O.2   183  HIS183     -0.2867
     48  CB        10.7000  -21.3270  -37.9890 C.3   183  HIS183      0.0745
     49  CG        10.6940  -20.9300  -36.5430 C.ar  183  HIS183      0.0817
     50  ND1        9.8560  -21.5090  -35.6130 N.ar  183  HIS183     -0.2268
     51  CD2       11.4030  -19.9860  -35.8740 C.ar  183  HIS183      0.1154
     52  CE1       10.0680  -20.9550  -34.4280 C.ar  183  HIS183      0.1986
     53  NE2       10.9980  -20.0230  -34.5600 N.ar  183  HIS183     -0.2212
     54  N         15.4730  -19.0090  -36.6740 N.3   185  GLU185     -0.1245
     55  CA        15.2300  -17.5820  -36.4190 C.3   185  GLU185      0.1567
     56  C         15.4700  -16.7360  -37.6660 C.2   185  GLU185      0.2260
     57  O         16.1050  -17.1970  -38.6180 O.2   185  GLU185     -0.2867
     58  CB        16.1060  -17.0730  -35.2790 C.3   185  GLU185      0.0388
     59  CG        15.8880  -17.7940  -33.9720 C.3   185  GLU185      0.1160
     60  CD        14.4150  -17.8260  -33.5680 C.2   185  GLU185      0.3649
     61  OE1       13.8250  -16.7490  -33.3370 O.co2 185  GLU185     -0.2457
     62  OE2       13.8530  -18.9390  -33.4900 O.co2 185  GLU185     -0.2457
     63  N         17.8880  -17.4720  -30.4090 N.3   191  SER191     -0.1217
     64  CA        16.8050  -16.8200  -29.6820 C.3   191  SER191      0.1889
     65  C         16.8650  -17.2400  -28.2230 C.2   191  SER191      0.2288
     66  O         17.4220  -18.2970  -27.8860 O.2   191  SER191     -0.2866
     67  CB        15.4390  -17.1330  -30.2940 C.3   191  SER191      0.2089
     68  OG        15.0840  -18.4870  -30.0700 O.3   191  SER191     -0.2183
     69  N         14.1780  -17.5970  -24.8340 N.3   193  ASN193     -0.1240
     70  CA        12.7740  -17.6800  -24.4630 C.3   193  ASN193      0.1653
     71  C         12.6490  -18.0020  -22.9790 C.2   193  ASN193      0.2266
     72  O         13.0960  -19.0500  -22.5320 O.2   193  ASN193     -0.2867
     73  CB        12.0960  -18.7730  -25.3040 C.3   193  ASN193      0.1155
     74  CG        10.5930  -18.8190  -25.1160 C.2   193  ASN193      0.2627
     75  OD1        9.8290  -18.6560  -26.0720 O.2   193  ASN193     -0.2716
     76  ND2       10.1590  -19.0750  -23.8880 N.am  193  ASN193     -0.0877
     77  N          5.5810  -25.1420  -21.8320 N.3   201  LYS201     -0.1245
     78  CA         5.6710  -25.0710  -23.2860 C.3   201  LYS201      0.1561
     79  C          6.5910  -26.2070  -23.7150 C.2   201  LYS201      0.2260
     80  O          7.7260  -26.2910  -23.2420 O.2   201  LYS201     -0.2867
     81  CB         6.2620  -23.7120  -23.7110 C.3   201  LYS201      0.0271
     82  CG         6.4590  -23.5270  -25.2230 C.3   201  LYS201      0.0035
     83  CD         7.3360  -22.2840  -25.5730 C.3   201  LYS201      0.0206
     84  CE         6.8760  -20.9970  -24.8850 C.3   201  LYS201      0.1093
     85  NZ         5.6840  -20.3840  -25.5480 N.3   201  LYS201     -0.1314
     86  N          8.8070  -28.4030  -26.5970 N.3   203  TRP203     -0.1241
     87  CA         9.6040  -28.1120  -27.7890 C.3   203  TRP203      0.1605
     88  C         10.0960  -29.3560  -28.5250 C.2   203  TRP203      0.2264
     89  O         10.3090  -30.4060  -27.9230 O.2   203  TRP203     -0.2867
     90  CB        10.8570  -27.3020  -27.4260 C.3   203  TRP203      0.0550
     91  CG        10.6160  -25.9740  -26.7590 C.ar  203  TRP203      0.0003
     92  CD1       10.0210  -25.7580  -25.5490 C.ar  203  TRP203      0.0946
     93  CD2       11.0160  -24.6790  -27.2440 C.ar  203  TRP203      0.0152
     94  NE1       10.0100  -24.4050  -25.2600 N.ar  203  TRP203     -0.2442
     95  CE2       10.6150  -23.7270  -26.2870 C.ar  203  TRP203      0.0810
     96  CE3       11.6620  -24.2350  -28.4060 C.ar  203  TRP203      0.0012
     97  CZ2       10.8400  -22.3570  -26.4540 C.ar  203  TRP203      0.0191
     98  CZ3       11.8910  -22.8820  -28.5650 C.ar  203  TRP203      0.0001
     99  CH2       11.4770  -21.9580  -27.6000 C.ar  203  TRP203      0.0015
    100  N          6.5080  -20.0140  -41.1800 N.3   236  LYS236     -0.1245
    101  CA         6.0190  -20.5680  -39.9130 C.3   236  LYS236      0.1561
    102  C          4.5970  -21.0970  -40.0020 C.2   236  LYS236      0.2260
    103  O          3.8170  -20.9390  -39.0710 O.2   236  LYS236     -0.2867
    104  CB         6.1230  -19.5400  -38.7870 C.3   236  LYS236      0.0271
    105  CG         7.5640  -19.2190  -38.4210 C.3   236  LYS236      0.0035
    106  CD         7.6840  -18.0550  -37.4540 C.3   236  LYS236      0.0206
    107  CE         9.1230  -17.5630  -37.4460 C.3   236  LYS236      0.1093
    108  NZ         9.2930  -16.2320  -36.7960 N.3   236  LYS236     -0.1314
    109  N         17.6750  -21.2140  -28.3760 N.3   265  THR265     -0.1218
    110  CA        17.8230  -21.8840  -29.6480 C.3   265  THR265      0.1862
    111  C         19.0800  -21.3400  -30.3290 C.2   265  THR265      0.2287
    112  O         19.4130  -20.1600  -30.2220 O.2   265  THR265     -0.2866
    113  CB        16.5990  -21.7230  -30.5510 C.3   265  THR265      0.1770
    114  OG1       16.7020  -20.4940  -31.2680 O.3   265  THR265     -0.2211
    115  CG2       15.3000  -21.7590  -29.7210 C.3   265  THR265      0.0375
    116  N         13.1540  -25.5640  -34.8050 N.3   271  HIS271     -0.1241
    117  CA        12.3530  -25.9450  -33.6660 C.3   271  HIS271      0.1621
    118  C         10.8800  -25.7120  -33.9260 C.2   271  HIS271      0.2264
    119  O         10.4970  -24.9460  -34.8160 O.2   271  HIS271     -0.2867
    120  CB        12.7850  -25.1970  -32.3930 C.3   271  HIS271      0.0745
    121  CG        12.9240  -23.7200  -32.5720 C.ar  271  HIS271      0.0817
    122  ND1       14.0090  -23.1460  -33.2040 N.ar  271  HIS271     -0.2268
    123  CD2       12.1220  -22.6960  -32.1850 C.ar  271  HIS271      0.1154
    124  CE1       13.8690  -21.8280  -33.1950 C.ar  271  HIS271      0.1986
    125  NE2       12.7370  -21.5330  -32.5760 N.ar  271  HIS271     -0.2212
    126  N         10.4770  -13.3440  -25.2220 N.3   283  SER283     -0.1217
    127  CA        11.5030  -13.8240  -26.1360 C.3   283  SER283      0.1889
    128  C         12.1040  -12.7200  -26.9980 C.2   283  SER283      0.2288
    129  O         11.5050  -11.6610  -27.1750 O.2   283  SER283     -0.2866
    130  CB        10.9330  -14.9280  -27.0280 C.3   283  SER283      0.2089
    131  OG        11.9130  -15.3950  -27.9360 O.3   283  SER283     -0.2183
@<TRIPOS>BOND
     1   100   101    1
     2   102   101    1
     3   102   103    2
     4   101   104    1
     5   104   105    1
     6    57    56    2
     7   105   106    1
     8    45    48    1
     9    45    44    1
    10    45    46    1
    11    48    49    1
    12    56    55    1
    13    46    47    2
    14   106   107    1
    15   107   108    1
    16    54    55    1
    17    49    51   ar
    18    49    50   ar
    19    55    58    1
    20    51    53   ar
    21    50    52   ar
    22    58    59    1
    23   119   118    2
    24   116   117    1
    25    53    52   ar
    26    35    36    2
    27    35    34    1
    28    20    18   ar
    29    59    60    1
    30   118   117    1
    31   117   120    1
    32    60    62   ar
    33    60    61   ar
    34    34    37    1
    35    34    33    1
    36   122   124   ar
    37   122   121   ar
    38   124   125   ar
    39    18    19   ar
    40    18    17    1
    41   125   123   ar
    42   121   120    1
    43   121   123   ar
    44    37    38    1
    45    17    14    1
    46    39    38   ar
    47    39    41   ar
    48    38    40   ar
    49   114   113    1
    50    16    15    2
    51    32    31    1
    52    14    13    1
    53    14    15    1
    54    41    43   ar
    55   113   115    1
    56   113   110    1
    57     8    10   ar
    58     8     6   ar
    59    63    64    1
    60   111   112    2
    61   111   110    1
    62    67    68    1
    63    67    64    1
    64     5     6    1
    65     5     2    1
    66    40    42   ar
    67     4     3    2
    68    30    31   ar
    69    30    28   ar
    70    10    11   ar
    71    31    29   ar
    72     1     2    1
    73    64    65    1
    74   110   109    1
    75     6     7   ar
    76    43    42   ar
    77     2     3    1
    78    28    26   ar
    79    98    96   ar
    80    98    99   ar
    81    11    12    1
    82    11     9   ar
    83    29    27   ar
    84    88    89    2
    85    88    87    1
    86    96    93   ar
    87     7     9   ar
    88    65    66    2
    89   131   130    1
    90    87    90    1
    91    87    86    1
    92    26    27   ar
    93    26    25    1
    94    99    97   ar
    95    90    91    1
    96    93    91   ar
    97    93    95   ar
    98   129   128    2
    99   130   127    1
   100   128   127    1
   101    91    92   ar
   102    25    22    1
   103    97    95   ar
   104    95    94   ar
   105   127   126    1
   106    75    74    2
   107    22    21    1
   108    22    23    1
   109    83    82    1
   110    83    84    1
   111    92    94   ar
   112    85    84    1
   113    73    74    1
   114    73    70    1
   115    82    81    1
   116    74    76   am
   117    69    70    1
   118    23    24    2
   119    70    71    1
   120    79    78    1
   121    79    80    2
   122    81    78    1
   123    78    77    1
   124    71    72    2
