@<TRIPOS>MOLECULE
tmp/3u4uA00.pdb
 188 178 0 0 0
SMALL
GASTEIGER

@<TRIPOS>ATOM
      1  N         28.2680   38.1900    1.8760 N.3    42  ARG42      -0.1245
      2  CA        28.2070   38.8660    3.1820 C.3    42  ARG42       0.1563
      3  C         28.4540   37.9060    4.3570 C.2    42  ARG42       0.2260
      4  O         27.8580   36.8350    4.4250 O.2    42  ARG42      -0.2867
      5  CB        26.8230   39.5000    3.3610 C.3    42  ARG42       0.0307
      6  CG        26.7710   40.9960    3.2240 C.3    42  ARG42       0.0489
      7  CD        25.4440   41.4760    2.6020 C.3    42  ARG42       0.2205
      8  NE        24.2680   40.7310    3.0760 N.pl3  42  ARG42      -0.0865
      9  CZ        23.7200   40.8480    4.2810 C.cat  42  ARG42       0.5346
     10  NH1       24.2300   41.6830    5.1870 N.pl3  42  ARG42       0.1354
     11  NH2       22.6510   40.1230    4.5830 N.pl3  42  ARG42       0.1354
     12  N         27.5050   36.6310    7.6510 N.3    44  LEU44      -0.1231
     13  CA        26.2610   36.6080    8.4450 C.3    44  LEU44       0.1693
     14  C         26.6290   36.4960    9.9000 C.2    44  LEU44       0.2593
     15  O         26.0280   37.1390   10.7570 O.2    44  LEU44      -0.2718
     16  CB        25.3760   35.4070    8.0750 C.3    44  LEU44       0.0284
     17  CG        24.5800   35.4980    6.7740 C.3    44  LEU44       0.0019
     18  CD1       23.9390   34.1650    6.4200 C.3    44  LEU44       0.0001
     19  CD2       23.5190   36.5690    6.8650 C.3    44  LEU44       0.0001
     20  N         27.6190   35.6490   10.1650 N.am   45  GLY45      -0.1942
     21  CA        28.1150   35.4400   11.4950 C.3    45  GLY45       0.2014
     22  C         29.1440   34.3270   11.5820 C.2    45  GLY45       0.2639
     23  O         29.5890   33.7650   10.5740 O.2    45  GLY45      -0.2714
     24  N         29.5160   34.0270   12.8210 N.am   46  ARG46      -0.1963
     25  CA        30.6500   33.1750   13.1340 C.3    46  ARG46       0.1729
     26  C         30.1270   32.1420   14.0980 C.2    46  ARG46       0.2616
     27  O         30.4130   32.2080   15.2990 O.2    46  ARG46      -0.2715
     28  CB        31.7670   34.0160   13.7680 C.3    46  ARG46       0.0348
     29  CG        32.9690   33.2580   14.3640 C.3    46  ARG46       0.0492
     30  CD        33.6360   34.0440   15.5300 C.3    46  ARG46       0.2205
     31  NE        34.0450   33.1640   16.6410 N.pl3  46  ARG46      -0.0865
     32  CZ        35.1930   32.4810   16.7150 C.cat  46  ARG46       0.5346
     33  NH1       36.1130   32.5360   15.7460 N.pl3  46  ARG46       0.1354
     34  NH2       35.4350   31.7340   17.7850 N.pl3  46  ARG46       0.1354
     35  N         29.3230   31.2190   13.5550 N.am   47  GLY47      -0.1955
     36  CA        28.8130   30.0670   14.2820 C.3    47  GLY47       0.1869
     37  C         29.9160   29.3730   15.0470 C.2    47  GLY47       0.2309
     38  O         31.1010   29.6610   14.8420 O.2    47  GLY47      -0.2863
     39  N         32.3330   27.3670   12.7310 N.3    50  SER50      -0.1217
     40  CA        32.2950   27.8240   11.3650 C.3    50  SER50       0.1889
     41  C         32.1950   29.3330   11.2440 C.2    50  SER50       0.2288
     42  O         31.8640   30.0350   12.2120 O.2    50  SER50      -0.2866
     43  CB        31.0740   27.1920   10.6890 C.3    50  SER50       0.2089
     44  OG        29.8850   27.6120   11.3340 O.3    50  SER50      -0.2183
     45  N         29.9240   31.7950    8.5910 N.3    52  VAL52      -0.1245
     46  CA        28.7290   31.6240    7.7710 C.3    52  VAL52       0.1561
     47  C         28.4820   32.8480    6.8890 C.2    52  VAL52       0.2260
     48  O         28.5510   33.9800    7.3480 O.2    52  VAL52      -0.2867
     49  CB        27.4940   31.3560    8.6560 C.3    52  VAL52       0.0252
     50  CG1       26.2340   31.1880    7.8220 C.3    52  VAL52       0.0019
     51  CG2       27.7500   30.1560    9.5360 C.3    52  VAL52       0.0019
     52  N         26.1730   34.5560    3.4380 N.3    54  GLU54      -0.1245
     53  CA        25.2180   34.5950    2.3410 C.3    54  GLU54       0.1567
     54  C         26.0550   34.5050    1.0480 C.2    54  GLU54       0.2260
     55  O         27.0190   35.2410    0.8700 O.2    54  GLU54      -0.2867
     56  CB        24.4040   35.9020    2.4020 C.3    54  GLU54       0.0388
     57  CG        23.2290   36.0500    1.4150 C.3    54  GLU54       0.1160
     58  CD        22.6490   37.5040    1.3520 C.2    54  GLU54       0.3649
     59  OE1       22.8770   38.3210    2.2870 O.co2  54  GLU54      -0.2457
     60  OE2       21.9570   37.8370    0.3560 O.co2  54  GLU54      -0.2457
     61  N         23.1470   29.6730    1.5700 N.3    65  VAL65      -0.1245
     62  CA        23.9590   29.9240    2.7830 C.3    65  VAL65       0.1561
     63  C         25.1470   28.9290    2.8910 C.2    65  VAL65       0.2260
     64  O         24.9720   27.6910    2.8650 O.2    65  VAL65      -0.2867
     65  CB        23.0770   29.9010    4.0840 C.3    65  VAL65       0.0252
     66  CG1       23.9300   29.8890    5.3660 C.3    65  VAL65       0.0019
     67  CG2       22.0800   31.1170    4.1000 C.3    65  VAL65       0.0019
     68  N         28.3990   27.5370    5.0120 N.3    67  LYS67      -0.1245
     69  CA        28.9890   27.3400    6.3120 C.3    67  LYS67       0.1561
     70  C         30.3730   26.7630    6.1000 C.2    67  LYS67       0.2260
     71  O         30.5300   25.5800    5.7440 O.2    67  LYS67      -0.2867
     72  CB        28.1360   26.3580    7.1030 C.3    67  LYS67       0.0271
     73  CG        28.4760   26.2100    8.5760 C.3    67  LYS67       0.0035
     74  CD        27.8510   24.9120    9.0430 C.3    67  LYS67       0.0206
     75  CE        27.3820   24.8930   10.4340 C.3    67  LYS67       0.1093
     76  NZ        26.6200   23.5760   10.6370 N.3    67  LYS67      -0.1314
     77  N         27.3310   15.3580   10.8530 N.3    80  GLU80      -0.1245
     78  CA        26.4050   16.3890   10.4220 C.3    80  GLU80       0.1567
     79  C         25.9440   16.1260    8.9820 C.2    80  GLU80       0.2260
     80  O         24.7510   16.0880    8.6830 O.2    80  GLU80      -0.2867
     81  CB        27.0600   17.7920   10.5300 C.3    80  GLU80       0.0388
     82  CG        26.0450   18.9030   10.1820 C.3    80  GLU80       0.1160
     83  CD        26.5670   20.3200   10.2690 C.2    80  GLU80       0.3649
     84  OE1       27.7170   20.5050   10.6950 O.co2  80  GLU80      -0.2457
     85  OE2       25.8130   21.2630    9.8780 O.co2  80  GLU80      -0.2457
     86  N         16.0160   21.7640    6.8030 N.3    94  ILE94      -0.1245
     87  CA        16.8810   22.4910    5.9010 C.3    94  ILE94       0.1561
     88  C         17.6170   21.5260    4.9310 C.2    94  ILE94       0.2260
     89  O         18.1440   20.4270    5.3030 O.2    94  ILE94      -0.2867
     90  CB        17.8390   23.4390    6.6510 C.3    94  ILE94       0.0252
     91  CG1       18.3240   24.5530    5.7430 C.3    94  ILE94       0.0019
     92  CG2       19.0230   22.6820    7.3230 C.3    94  ILE94       0.0019
     93  CD1       17.4010   25.6580    5.5640 C.3    94  ILE94       0.0001
     94  N         23.6940   25.3240    2.0450 N.3   112  PHE112     -0.1227
     95  CA        22.2890   25.1110    2.3800 C.3   112  PHE112      0.1736
     96  C         21.3650   26.0030    1.5360 C.2   112  PHE112      0.2595
     97  O         21.7900   27.0690    1.0980 O.2   112  PHE112     -0.2718
     98  CB        22.0760   25.4710    3.8710 C.3   112  PHE112      0.0547
     99  CG        22.8650   24.5940    4.8130 C.ar  112  PHE112     -0.0202
    100  CD1       22.4170   23.3170    5.1150 C.ar  112  PHE112     -0.0042
    101  CD2       24.0780   25.0130    5.3240 C.ar  112  PHE112     -0.0042
    102  CE1       23.1690   22.4680    5.9420 C.ar  112  PHE112     -0.0003
    103  CE2       24.8570   24.1840    6.1520 C.ar  112  PHE112     -0.0003
    104  CZ        24.4090   22.9220    6.4890 C.ar  112  PHE112     -0.0000
    105  N         20.0930   25.5880    1.3790 N.am  113  GLU113     -0.1965
    106  CA        19.0080   26.5020    0.9560 C.3   113  GLU113      0.1733
    107  C         18.9690   27.7280    1.8360 C.2   113  GLU113      0.2616
    108  O         19.2590   27.6680    3.0380 O.2   113  GLU113     -0.2715
    109  CB        17.6100   25.8340    0.9510 C.3   113  GLU113      0.0429
    110  CG        17.0860   25.4380    2.2960 C.3   113  GLU113      0.1163
    111  CD        15.6820   24.8830    2.2790 C.2   113  GLU113      0.3649
    112  OE1       14.7820   25.5610    1.7410 O.co2 113  GLU113     -0.2457
    113  OE2       15.4700   23.7790    2.8390 O.co2 113  GLU113     -0.2457
    114  N         18.6530   28.8610    1.2220 N.am  114  HIS114     -0.1959
    115  CA        18.5370   30.1180    1.9440 C.3   114  HIS114      0.1787
    116  C         17.0650   30.3160    2.3690 C.2   114  HIS114      0.2620
    117  O         16.1330   29.9630    1.6290 O.2   114  HIS114     -0.2715
    118  CB        19.0510   31.2590    1.0580 C.3   114  HIS114      0.0785
    119  CG        18.8270   32.6500    1.6090 C.ar  114  HIS114      0.0821
    120  ND1       17.6860   33.3820    1.3450 N.ar  114  HIS114     -0.2267
    121  CD2       19.6320   33.4670    2.3300 C.ar  114  HIS114      0.1154
    122  CE1       17.7870   34.5760    1.8990 C.ar  114  HIS114      0.1986
    123  NE2       18.9600   34.6590    2.4940 N.ar  114  HIS114     -0.2212
    124  N         16.8820   30.8310    3.5930 N.am  115  VAL115     -0.1963
    125  CA        15.5880   31.2860    4.0630 C.3   115  VAL115      0.1727
    126  C         15.6790   32.7460    4.4200 C.2   115  VAL115      0.2616
    127  O         16.5880   33.1530    5.1620 O.2   115  VAL115     -0.2715
    128  CB        15.1070   30.5640    5.3430 C.3   115  VAL115      0.0290
    129  CG1       13.7640   31.1830    5.8260 C.3   115  VAL115      0.0023
    130  CG2       15.0010   29.0740    5.1300 C.3   115  VAL115      0.0023
    131  N         14.6990   33.5140    3.9220 N.am  116  ASN116     -0.1958
    132  CA        14.6280   34.9640    4.1040 C.3   116  ASN116      0.1819
    133  C         14.0480   35.2880    5.4670 C.2   116  ASN116      0.2621
    134  O         12.8830   35.6750    5.5990 O.2   116  ASN116     -0.2715
    135  CB        13.7790   35.5840    2.9810 C.3   116  ASN116      0.1195
    136  CG        13.9000   37.1120    2.9030 C.2   116  ASN116      0.2630
    137  OD1       14.7430   37.7100    3.5250 O.2   116  ASN116     -0.2716
    138  ND2       13.0600   37.7280    2.0820 N.am  116  ASN116     -0.0877
    139  N         14.8950   35.1300    6.4700 N.am  117  ASN117     -0.1972
    140  CA        14.5060   35.1290    7.8620 C.3   117  ASN117      0.1688
    141  C         14.2170   36.5440    8.4180 C.2   117  ASN117      0.2292
    142  O         14.8660   37.5080    8.0410 O.2   117  ASN117     -0.2864
    143  CB        15.6400   34.4490    8.6650 C.3   117  ASN117      0.1181
    144  CG        15.2830   34.1920   10.0960 C.2   117  ASN117      0.2629
    145  OD1       14.2450   33.6170   10.3790 O.2   117  ASN117     -0.2716
    146  ND2       16.1540   34.5940   11.0200 N.am  117  ASN117     -0.0877
    147  N         17.2820   30.5320   17.4950 N.3   159  HIS159     -0.1226
    148  CA        18.3260   30.6870   16.4730 C.3   159  HIS159      0.1752
    149  C         18.3510   29.6260   15.3750 C.2   159  HIS159      0.2596
    150  O         18.7350   29.9540   14.2580 O.2   159  HIS159     -0.2718
    151  CB        19.7280   30.7930   17.0980 C.3   159  HIS159      0.0759
    152  CG        20.0110   32.1250   17.7240 C.ar  159  HIS159      0.0818
    153  ND1       20.3320   32.2720   19.0590 N.ar  159  HIS159     -0.2268
    154  CD2       20.0290   33.3750   17.1950 C.ar  159  HIS159      0.1154
    155  CE1       20.5380   33.5530   19.3220 C.ar  159  HIS159      0.1986
    156  NE2       20.3610   34.2390   18.2090 N.ar  159  HIS159     -0.2212
    157  N         17.9550   28.3810   15.6600 N.am  160  ASN160     -0.1974
    158  CA        17.9980   27.3160   14.6530 C.3   160  ASN160      0.1688
    159  C         16.6870   27.0570   13.9420 C.2   160  ASN160      0.2292
    160  O         16.5390   26.0760   13.2390 O.2   160  ASN160     -0.2864
    161  CB        18.5640   26.0290   15.2520 C.3   160  ASN160      0.1181
    162  CG        20.0330   26.1680   15.6270 C.2   160  ASN160      0.2629
    163  OD1       20.7410   27.0700   15.1200 O.2   160  ASN160     -0.2716
    164  ND2       20.4850   25.3280   16.5500 N.am  160  ASN160     -0.0877
    165  N         14.5950   28.9510   11.2610 N.3   162  MET162     -0.1245
    166  CA        14.5250   30.0260   10.2560 C.3   162  MET162      0.1570
    167  C         13.0740   30.1700    9.7620 C.2   162  MET162      0.2261
    168  O         12.4630   29.1850    9.3530 O.2   162  MET162     -0.2867
    169  CB        15.4730   29.7450    9.0550 C.3   162  MET162      0.0387
    170  CG        16.9770   29.8660    9.3590 C.3   162  MET162      0.0595
    171  SD        17.5190   31.5060    9.8810 S.3   162  MET162     -0.1393
    172  CE        18.6200   31.2800   11.2700 C.3   162  MET162      0.0692
    173  N         17.2630   24.2560   11.3470 N.3   173  ILE173     -0.1231
    174  CA        18.6490   24.3610   10.8360 C.3   173  ILE173      0.1692
    175  C         19.7010   23.9580   11.8610 C.2   173  ILE173      0.2592
    176  O         19.4030   23.7120   13.0450 O.2   173  ILE173     -0.2718
    177  CB        18.9730   25.8040   10.3640 C.3   173  ILE173      0.0266
    178  CG1       19.1600   26.7350   11.5750 C.3   173  ILE173      0.0019
    179  CG2       17.8540   26.2660    9.4830 C.3   173  ILE173      0.0020
    180  CD1       19.9290   28.0380   11.3360 C.3   173  ILE173      0.0001
    181  N         20.9230   23.9330   11.3660 N.am  174  ASP174     -0.1974
    182  CA        22.1500   23.6160   12.1240 C.3   174  ASP174      0.1709
    183  C         22.1360   22.2970   12.8590 C.2   174  ASP174      0.2293
    184  O         21.9670   22.2040   14.1050 O.2   174  ASP174     -0.2864
    185  CB        22.5430   24.7570   13.0460 C.3   174  ASP174      0.1436
    186  CG        24.0190   24.7100   13.4210 C.2   174  ASP174      0.3671
    187  OD1       24.5580   25.7810   13.6950 O.co2 174  ASP174     -0.2456
    188  OD2       24.6340   23.6080   13.4060 O.co2 174  ASP174     -0.2456
@<TRIPOS>BOND
     1    60    58   ar
     2    55    54    2
     3   109   106    1
     4   109   110    1
     5   106   105    1
     6   106   107    1
     7    54    53    1
     8   118   119    1
     9   118   115    1
    10    97    96    2
    11   114   107   am
    12   114   115    1
    13   120   119   ar
    14   120   122   ar
    15    58    57    1
    16    58    59   ar
    17   105    96   am
    18    57    56    1
    19    96    95    1
    20    61    62    1
    21   119   121   ar
    22   117   116    2
    23   112   111   ar
    24   107   108    2
    25     1     2    1
    26   122   123   ar
    27   115   116    1
    28    94    95    1
    29   138   136   am
    30   111   110    1
    31   111   113   ar
    32   121   123   ar
    33    53    56    1
    34    53    52    1
    35   116   124   am
    36    95    98    1
    37     7     8    1
    38     7     6    1
    39    62    63    1
    40    62    65    1
    41    64    63    2
    42   136   135    1
    43   136   137    2
    44   135   132    1
    45     8     9    2
    46     2     5    1
    47     2     3    1
    48     6     5    1
    49   124   125    1
    50    98    99    1
    51   131   132    1
    52   131   126   am
    53   125   126    1
    54   125   128    1
    55    65    67    1
    56    65    66    1
    57   132   133    1
    58     9    11    1
    59     9    10    1
    60     3     4    2
    61   126   127    2
    62    99   100   ar
    63    99   101   ar
    64    88    89    2
    65    88    87    1
    66    68    69    1
    67   100   102   ar
    68   130   128    1
    69   101   103   ar
    70   128   129    1
    71   133   134    2
    72   133   139   am
    73    93    91    1
    74    91    90    1
    75    71    70    2
    76    87    90    1
    77    87    86    1
    78   102   104   ar
    79    70    69    1
    80   103   104   ar
    81    69    72    1
    82    18    17    1
    83   139   140    1
    84    90    92    1
    85    17    19    1
    86    17    16    1
    87    47    48    2
    88    47    46    1
    89    72    73    1
    90    12    13    1
    91    46    45    1
    92    46    49    1
    93    50    49    1
    94   140   141    1
    95   140   143    1
    96   142   141    2
    97    16    13    1
    98    13    14    1
    99    73    74    1
   100    49    51    1
   101   143   144    1
   102    80    79    2
   103    79    78    1
   104    74    75    1
   105   169   170    1
   106   169   166    1
   107   168   167    2
   108   170   171    1
   109   179   177    1
   110   167   166    1
   111    85    83   ar
   112   171   172    1
   113    14    20   am
   114    14    15    2
   115   144   145    2
   116   144   146   am
   117    20    21    1
   118    82    83    1
   119    82    81    1
   120   166   165    1
   121    83    84   ar
   122   177   174    1
   123   177   178    1
   124    78    81    1
   125    78    77    1
   126    75    76    1
   127    23    22    2
   128    43    44    1
   129    43    40    1
   130   174   173    1
   131   174   175    1
   132    41    40    1
   133    41    42    2
   134   180   178    1
   135    40    39    1
   136   181   175   am
   137   181   182    1
   138    21    22    1
   139    22    24   am
   140   175   176    2
   141   182   183    1
   142   182   185    1
   143    24    25    1
   144   183   184    2
   145   185   186    1
   146    25    28    1
   147    25    26    1
   148   160   159    2
   149   188   186   ar
   150   186   187   ar
   151    35    26   am
   152    35    36    1
   153    28    29    1
   154   159   158    1
   155    26    27    2
   156   150   149    2
   157    36    37    1
   158    29    30    1
   159   158   161    1
   160   158   157    1
   161    38    37    2
   162   163   162    2
   163   161   162    1
   164   149   157   am
   165   149   148    1
   166    30    31    1
   167   162   164   am
   168    33    32    1
   169   148   151    1
   170   148   147    1
   171    31    32    2
   172    32    34    1
   173   151   152    1
   174   154   152   ar
   175   154   156   ar
   176   152   153   ar
   177   156   155   ar
   178   153   155   ar
