@<TRIPOS>MOLECULE
tmp/3u52B01.pdb
 100 97 0 0 0
SMALL
GASTEIGER

@<TRIPOS>ATOM
      1  N         88.9820   48.1340  115.1570 N.3     7  ASP7       -0.1239
      2  CA        89.8940   48.4680  116.2330 C.3     7  ASP7        0.1674
      3  C         89.4730   49.6900  117.0450 C.2     7  ASP7        0.2266
      4  O         89.6150   49.6950  118.2730 O.2     7  ASP7       -0.2867
      5  CB        91.3200   48.6430  115.6870 C.3     7  ASP7        0.1410
      6  CG        91.9460   47.3090  115.2340 C.2     7  ASP7        0.3668
      7  OD1       92.9270   47.3310  114.4520 O.co2   7  ASP7       -0.2456
      8  OD2       91.4580   46.2290  115.6600 O.co2   7  ASP7       -0.2456
      9  N         86.6330   48.5600  119.3370 N.3    10  GLN10      -0.1231
     10  CA        87.2570   47.8110  120.4430 C.3    10  GLN10       0.1698
     11  C         87.8740   48.7180  121.5130 C.2    10  GLN10       0.2592
     12  O         87.6400   48.5040  122.6840 O.2    10  GLN10      -0.2718
     13  CB        88.2370   46.7560  119.9090 C.3    10  GLN10       0.0381
     14  CG        87.5150   45.5850  119.2610 C.3    10  GLN10       0.0905
     15  CD        88.4170   44.3830  118.9210 C.2    10  GLN10       0.2608
     16  OE1       88.0230   43.5190  118.1210 O.2    10  GLN10      -0.2717
     17  NE2       89.5960   44.3010  119.5460 N.am   10  GLN10      -0.0878
     18  N         88.6200   49.7550  121.1160 N.am   11  TYR11      -0.1976
     19  CA        89.0550   50.7810  122.0490 C.3    11  TYR11       0.1639
     20  C         87.9420   51.4880  122.7990 C.2    11  TYR11       0.2290
     21  O         88.1670   51.9520  123.9160 O.2    11  TYR11      -0.2864
     22  CB        89.9620   51.8250  121.3960 C.3    11  TYR11       0.0560
     23  CG        91.4260   51.4610  121.4960 C.ar   11  TYR11      -0.0198
     24  CD1       92.1010   50.9890  120.3880 C.ar   11  TYR11      -0.0009
     25  CD2       92.1370   51.5730  122.7090 C.ar   11  TYR11      -0.0009
     26  CE1       93.4470   50.6730  120.4410 C.ar   11  TYR11       0.0417
     27  CE2       93.4860   51.2490  122.7680 C.ar   11  TYR11       0.0417
     28  CZ        94.1200   50.8000  121.6280 C.ar   11  TYR11       0.1957
     29  OH        95.4320   50.4450  121.6190 O.3    11  TYR11      -0.2866
     30  N         85.9180   47.1570  124.7670 N.3    14  ARG14      -0.1231
     31  CA        86.7120   46.2150  125.5600 C.3    14  ARG14       0.1694
     32  C         87.9810   46.7780  126.2020 C.2    14  ARG14       0.2592
     33  O         88.3470   46.3340  127.2660 O.2    14  ARG14      -0.2718
     34  CB        87.0070   44.9180  124.8050 C.3    14  ARG14       0.0321
     35  CG        87.6110   45.0780  123.4750 C.3    14  ARG14       0.0489
     36  CD        87.7840   43.6850  122.8760 C.3    14  ARG14       0.2205
     37  NE        86.6940   43.2920  121.9800 N.pl3  14  ARG14      -0.0865
     38  CZ        86.7030   42.1940  121.2140 C.cat  14  ARG14       0.5346
     39  NH1       85.6880   41.9470  120.3880 N.pl3  14  ARG14       0.1354
     40  NH2       87.7330   41.3520  121.2490 N.pl3  14  ARG14       0.1354
     41  N         88.6170   47.7860  125.6020 N.am   15  ASP15      -0.1974
     42  CA        89.7700   48.4320  126.2570 C.3    15  ASP15       0.1709
     43  C         89.4920   49.1460  127.6270 C.2    15  ASP15       0.2293
     44  O         90.4260   49.3870  128.3870 O.2    15  ASP15      -0.2864
     45  CB        90.5080   49.3690  125.2900 C.3    15  ASP15       0.1436
     46  CG        91.8800   49.7490  125.8140 C.2    15  ASP15       0.3671
     47  OD1       92.0870   50.9220  126.2020 O.co2  15  ASP15      -0.2456
     48  OD2       92.7180   48.8250  125.9160 O.co2  15  ASP15      -0.2456
     49  N         87.8600   47.7300  130.0480 N.3    17  ALA17      -0.1245
     50  CA        88.0170   46.6350  131.0420 C.3    17  ALA17       0.1562
     51  C         89.5190   46.4180  131.3430 C.2    17  ALA17       0.2260
     52  O         90.3870   46.8630  130.5520 O.2    17  ALA17      -0.2867
     53  CB        87.3470   45.3450  130.5210 C.3    17  ALA17       0.0290
     54  N         90.6170   32.3740  124.7120 N.3    41  ASP41      -0.1225
     55  CA        91.0580   33.7340  124.3730 C.3    41  ASP41       0.1805
     56  C         89.8260   34.5570  123.9640 C.2    41  ASP41       0.2598
     57  O         89.2610   34.3390  122.8840 O.2    41  ASP41      -0.2718
     58  CB        92.0680   33.6110  123.2290 C.3    41  ASP41       0.1424
     59  CG        92.6250   34.9370  122.7560 C.2    41  ASP41       0.3668
     60  OD1       93.3140   34.8580  121.6960 O.co2  41  ASP41      -0.2456
     61  OD2       92.3790   36.0250  123.3680 O.co2  41  ASP41      -0.2456
     62  N         89.4290   35.4870  124.8360 N.am   42  TRP42      -0.1962
     63  CA        88.2360   36.3310  124.6430 C.3    42  TRP42       0.1771
     64  C         88.4870   37.3660  123.5650 C.2    42  TRP42       0.2620
     65  O         87.5590   37.9850  123.0650 O.2    42  TRP42      -0.2715
     66  CB        87.8370   37.0540  125.9520 C.3    42  TRP42       0.0590
     67  CG        86.9090   36.2540  126.8460 C.ar   42  TRP42       0.0006
     68  CD1       87.2310   35.6570  128.0280 C.ar   42  TRP42       0.0946
     69  CD2       85.5150   35.9910  126.6340 C.ar   42  TRP42       0.0152
     70  NE1       86.1290   35.0200  128.5620 N.ar   42  TRP42      -0.2442
     71  CE2       85.0640   35.2120  127.7250 C.ar   42  TRP42       0.0810
     72  CE3       84.6020   36.3290  125.6170 C.ar   42  TRP42       0.0012
     73  CZ2       83.7450   34.7610  127.8300 C.ar   42  TRP42       0.0191
     74  CZ3       83.3030   35.9050  125.7290 C.ar   42  TRP42       0.0001
     75  CH2       82.8830   35.1170  126.8280 C.ar   42  TRP42       0.0015
     76  N         89.7560   37.5600  123.2180 N.am   43  SER43      -0.1950
     77  CA        90.1280   38.5510  122.2060 C.3    43  SER43       0.1924
     78  C         89.6870   38.0880  120.8230 C.2    43  SER43       0.2314
     79  O         89.5340   38.9120  119.9070 O.2    43  SER43      -0.2863
     80  CB        91.6360   38.8500  122.2480 C.3    43  SER43       0.2116
     81  OG        92.3800   37.8380  121.6060 O.3    43  SER43      -0.2180
     82  N         83.4590   37.2940  131.2390 N.3   118  SER118     -0.1202
     83  CA        84.6800   38.0190  131.5040 C.3   118  SER118      0.2020
     84  C         85.2040   38.7190  130.2450 C.2   118  SER118      0.2619
     85  O         86.1890   39.4290  130.2990 O.2   118  SER118     -0.2717
     86  CB        85.7640   37.1310  132.1820 C.3   118  SER118      0.2103
     87  OG        85.9960   35.9300  131.4510 O.3   118  SER118     -0.2182
     88  N         84.5500   38.5570  129.1040 N.am  119  GLY119     -0.1942
     89  CA        85.0190   39.3110  127.9340 C.3   119  GLY119      0.2014
     90  C         84.1200   40.5160  127.8010 C.2   119  GLY119      0.2639
     91  O         82.9030   40.3430  127.6660 O.2   119  GLY119     -0.2714
     92  N         84.6900   41.7210  127.8630 N.am  120  ALA120     -0.1963
     93  CA        83.9030   42.9550  127.8310 C.3   120  ALA120      0.1728
     94  C         83.1130   43.1560  126.5370 C.2   120  ALA120      0.2616
     95  O         82.0350   43.7870  126.5450 O.2   120  ALA120     -0.2715
     96  CB        84.7770   44.1600  128.1350 C.3   120  ALA120      0.0334
     97  N         83.6300   42.5850  125.4490 N.am  121  GLY121     -0.1955
     98  CA        82.9510   42.5310  124.1430 C.3   121  GLY121      0.1869
     99  C         81.6210   41.8130  124.1940 C.2   121  GLY121      0.2309
    100  O         80.5930   42.3200  123.7000 O.2   121  GLY121     -0.2863
@<TRIPOS>BOND
     1     7     6   ar
     2     1     2    1
     3     6     8   ar
     4     6     5    1
     5     5     2    1
     6     2     3    1
     7     3     4    2
     8    16    15    2
     9    15    14    1
    10    15    17   am
    11    14    13    1
    12     9    10    1
    13    79    78    2
    14    13    10    1
    15    39    38    1
    16    24    26   ar
    17    24    23   ar
    18    26    28   ar
    19    10    11    1
    20    78    77    1
    21    18    11   am
    22    18    19    1
    23    38    40    1
    24    38    37    2
    25    22    23    1
    26    22    19    1
    27    23    25   ar
    28    11    12    2
    29    81    80    1
    30    29    28    1
    31    28    27   ar
    32    60    59   ar
    33    37    36    1
    34    19    20    1
    35    77    80    1
    36    77    76    1
    37    25    27   ar
    38    59    58    1
    39    59    61   ar
    40    20    21    2
    41    36    35    1
    42    57    56    2
    43    65    64    2
    44    76    64   am
    45    58    55    1
    46    35    34    1
    47    64    63    1
    48   100    99    2
    49    56    55    1
    50    56    62   am
    51    98    99    1
    52    98    97    1
    53    55    54    1
    54    63    62    1
    55    63    66    1
    56    30    31    1
    57    34    31    1
    58    45    46    1
    59    45    42    1
    60    97    94   am
    61    31    32    1
    62    41    32   am
    63    41    42    1
    64    72    74   ar
    65    72    69   ar
    66    74    75   ar
    67    46    48   ar
    68    46    47   ar
    69    66    67    1
    70    32    33    2
    71    42    43    1
    72    94    95    2
    73    94    93    1
    74    69    67   ar
    75    69    71   ar
    76    75    73   ar
    77    67    68   ar
    78    43    44    2
    79    91    90    2
    80    71    73   ar
    81    71    70   ar
    82    90    92   am
    83    90    89    1
    84    93    92    1
    85    93    96    1
    86    89    88    1
    87    68    70   ar
    88    88    84   am
    89    49    50    1
    90    84    85    2
    91    84    83    1
    92    53    50    1
    93    52    51    2
    94    50    51    1
    95    82    83    1
    96    87    86    1
    97    83    86    1
