@<TRIPOS>MOLECULE
tmp/3u52B00.pdb
 90 85 0 0 0
SMALL
GASTEIGER

@<TRIPOS>ATOM
      1  N         80.6490   32.5890  137.4520 N.3    31  GLU31      -0.1245
      2  CA        79.7520   31.6630  136.7190 C.3    31  GLU31       0.1567
      3  C         80.2910   31.0080  135.4530 C.2    31  GLU31       0.2260
      4  O         79.5770   30.2700  134.7780 O.2    31  GLU31      -0.2867
      5  CB        78.4210   32.3540  136.4080 C.3    31  GLU31       0.0388
      6  CG        77.6260   32.6960  137.6650 C.3    31  GLU31       0.1160
      7  CD        76.2740   33.3430  137.3430 C.2    31  GLU31       0.3649
      8  OE1       75.7700   33.2080  136.1920 O.co2  31  GLU31      -0.2457
      9  OE2       75.7390   33.9870  138.2650 O.co2  31  GLU31      -0.2457
     10  N         65.5380   40.6810  131.7290 N.3   108  GLN108     -0.1231
     11  CA        66.2290   40.1880  132.9530 C.3   108  GLN108      0.1698
     12  C         67.4230   39.2340  132.7500 C.2   108  GLN108      0.2592
     13  O         68.4500   39.4210  133.3900 O.2   108  GLN108     -0.2718
     14  CB        65.2250   39.5370  133.9090 C.3   108  GLN108      0.0381
     15  CG        64.0630   40.4890  134.2170 C.3   108  GLN108      0.0905
     16  CD        63.1300   39.9300  135.2420 C.2   108  GLN108      0.2608
     17  OE1       62.3850   39.0090  134.9660 O.2   108  GLN108     -0.2717
     18  NE2       63.1860   40.4720  136.4500 N.am  108  GLN108     -0.0878
     19  N         67.2330   38.1930  131.9340 N.am  109  GLY109     -0.1957
     20  CA        68.2470   37.1850  131.6040 C.3   109  GLY109      0.1869
     21  C         69.4550   37.8080  130.9390 C.2   109  GLY109      0.2309
     22  O         70.6000   37.4990  131.3000 O.2   109  GLY109     -0.2863
     23  N         71.5900   40.0080  133.3830 N.3   112  LYS112     -0.1231
     24  CA        72.3860   39.1960  134.2560 C.3   112  LYS112      0.1693
     25  C         73.5900   38.6770  133.5160 C.2   112  LYS112      0.2591
     26  O         74.6890   38.7900  133.9810 O.2   112  LYS112     -0.2718
     27  CB        71.5650   38.0630  134.8490 C.3   112  LYS112      0.0285
     28  CG        72.4700   37.1620  135.7310 C.3   112  LYS112      0.0035
     29  CD        71.7300   36.1990  136.5530 C.3   112  LYS112      0.0206
     30  CE        72.7090   35.1090  137.0650 C.3   112  LYS112      0.1093
     31  NZ        73.6280   35.7230  138.0390 N.3   112  LYS112     -0.1314
     32  N         73.3710   38.1450  132.3320 N.am  113  VAL113     -0.1980
     33  CA        74.4290   37.5930  131.5040 C.3   113  VAL113      0.1595
     34  C         75.3760   38.6990  130.9790 C.2   113  VAL113      0.2287
     35  O         76.5870   38.4610  130.7610 O.2   113  VAL113     -0.2864
     36  CB        73.7290   36.6560  130.4290 C.3   113  VAL113      0.0276
     37  CG1       73.9000   37.1450  129.0610 C.3   113  VAL113      0.0022
     38  CG2       74.0920   35.1580  130.6120 C.3   113  VAL113      0.0022
     39  N         78.0600   38.6830  133.7670 N.3   116  GLN116     -0.1245
     40  CA        78.7120   37.4510  134.1110 C.3   116  GLN116      0.1566
     41  C         79.8740   37.0600  133.2460 C.2   116  GLN116      0.2260
     42  O         80.7300   36.3370  133.7290 O.2   116  GLN116     -0.2867
     43  CB        77.6870   36.2820  134.2090 C.3   116  GLN116      0.0367
     44  CG        76.7170   36.3990  135.4370 C.3   116  GLN116      0.0905
     45  CD        77.4030   36.7140  136.7590 C.2   116  GLN116      0.2608
     46  OE1       78.4330   36.1350  137.1210 O.2   116  GLN116     -0.2717
     47  NE2       76.8220   37.6480  137.5030 N.am  116  GLN116     -0.0878
     48  N         65.9340   28.1620  130.6970 N.3   177  ALA177     -0.1231
     49  CA        67.0470   28.9980  130.2230 C.3   177  ALA177      0.1694
     50  C         67.6600   29.8880  131.2940 C.2   177  ALA177      0.2591
     51  O         68.8850   29.9300  131.4270 O.2   177  ALA177     -0.2718
     52  CB        66.5670   29.8630  129.0620 C.3   177  ALA177      0.0304
     53  N         66.8270   30.6070  132.0590 N.am  178  ARG178     -0.1980
     54  CA        67.3250   31.5100  133.1450 C.3   178  ARG178      0.1597
     55  C         67.9370   30.8210  134.3610 C.2   178  ARG178      0.2287
     56  O         68.7630   31.3880  135.0550 O.2   178  ARG178     -0.2864
     57  CB        66.2180   32.4270  133.6200 C.3   178  ARG178      0.0334
     58  CG        65.8650   33.5040  132.5740 C.3   178  ARG178      0.0492
     59  CD        65.3450   34.7400  133.2550 C.3   178  ARG178      0.2205
     60  NE        64.0290   34.5080  133.7820 N.pl3 178  ARG178     -0.0865
     61  CZ        63.5230   35.0520  134.8820 C.cat 178  ARG178      0.5346
     62  NH1       64.2390   35.8910  135.6190 N.pl3 178  ARG178      0.1354
     63  NH2       62.2750   34.7370  135.2380 N.pl3 178  ARG178      0.1354
     64  N         69.6350   28.0680  134.0520 N.3   180  ALA180     -0.1231
     65  CA        70.8670   27.4830  133.4830 C.3   180  ALA180      0.1694
     66  C         72.0500   28.4610  133.6420 C.2   180  ALA180      0.2593
     67  O         71.8510   29.6110  134.0030 O.2   180  ALA180     -0.2718
     68  CB        70.6620   27.1370  132.0210 C.3   180  ALA180      0.0304
     69  N         73.2680   28.0150  133.3590 N.am  181  GLY181     -0.1943
     70  CA        74.4300   28.9110  133.4380 C.3   181  GLY181      0.1998
     71  C         74.4950   29.8350  132.2090 C.2   181  GLY181      0.2480
     72  O         73.6290   29.7380  131.3200 O.2   181  GLY181     -0.2729
     73  N         75.5010   30.7280  132.1490 N.am  182  PRO182     -0.2726
     74  CA        75.5250   31.8000  131.1190 C.3   182  PRO182      0.1402
     75  C         75.7480   31.3090  129.6860 C.2   182  PRO182      0.2269
     76  O         75.1500   31.8340  128.7410 O.2   182  PRO182     -0.2865
     77  CB        76.6500   32.7450  131.6020 C.3   182  PRO182      0.0296
     78  CG        77.5440   31.8700  132.4150 C.3   182  PRO182      0.0237
     79  CD        76.6540   30.8140  133.0660 C.3   182  PRO182      0.0939
     80  N         72.4720   29.6140  128.6480 N.3   185  PHE185     -0.1241
     81  CA        71.5340   30.7240  128.3850 C.3   185  PHE185      0.1605
     82  C         71.6840   31.3190  126.9760 C.2   185  PHE185      0.2264
     83  O         70.6920   31.4500  126.2210 O.2   185  PHE185     -0.2867
     84  CB        71.6290   31.8590  129.4340 C.3   185  PHE185      0.0534
     85  CG        70.6350   32.9840  129.1650 C.ar  185  PHE185     -0.0203
     86  CD1       69.3050   32.8480  129.5670 C.ar  185  PHE185     -0.0042
     87  CD2       71.0070   34.1080  128.3900 C.ar  185  PHE185     -0.0042
     88  CE1       68.3450   33.8790  129.3010 C.ar  185  PHE185     -0.0003
     89  CE2       70.0630   35.1400  128.1070 C.ar  185  PHE185     -0.0003
     90  CZ        68.7290   35.0030  128.5580 C.ar  185  PHE185     -0.0000
@<TRIPOS>BOND
     1    83    82    2
     2    82    81    1
     3    89    87   ar
     4    89    90   ar
     5    81    80    1
     6    81    84    1
     7    87    85   ar
     8    90    88   ar
     9    76    75    2
    10    37    36    1
    11    52    49    1
    12    85    84    1
    13    85    86   ar
    14    88    86   ar
    15    75    74    1
    16    49    48    1
    17    49    50    1
    18    36    38    1
    19    36    33    1
    20    35    34    2
    21    21    22    2
    22    21    20    1
    23    34    33    1
    24    74    77    1
    25    74    73    1
    26    50    51    2
    27    50    53   am
    28    72    71    2
    29    33    32    1
    30    77    78    1
    31    20    19    1
    32    10    11    1
    33    19    12   am
    34    68    65    1
    35    53    54    1
    36    73    71   am
    37    73    79    1
    38    71    70    1
    39    32    25   am
    40    78    79    1
    41    58    59    1
    42    58    57    1
    43    12    11    1
    44    12    13    2
    45    11    14    1
    46    54    57    1
    47    54    55    1
    48    41    42    2
    49    41    40    1
    50    59    60    1
    51    69    70    1
    52    69    66   am
    53    23    24    1
    54    65    66    1
    55    65    64    1
    56    25    26    2
    57    25    24    1
    58    66    67    2
    59    39    40    1
    60    60    61    2
    61    14    15    1
    62    40    43    1
    63    43    44    1
    64    15    16    1
    65    24    27    1
    66    55    56    2
    67     4     3    2
    68    27    28    1
    69    61    63    1
    70    61    62    1
    71    17    16    2
    72    16    18   am
    73    44    45    1
    74     3     2    1
    75    28    29    1
    76     8     7   ar
    77     5     2    1
    78     5     6    1
    79    29    30    1
    80     2     1    1
    81    45    46    2
    82    45    47   am
    83    30    31    1
    84     7     6    1
    85     7     9   ar
