@<TRIPOS>MOLECULE
tmp/3u57A00.pdb
 236 234 0 0 0
SMALL
GASTEIGER

@<TRIPOS>ATOM
      1  N         41.1410   50.7640   28.6690 N.3    25  GLN25      -0.1245
      2  CA        41.2400   49.3430   28.2730 C.3    25  GLN25       0.1566
      3  C         41.5160   49.1320   26.8000 C.2    25  GLN25       0.2260
      4  O         42.0540   48.1000   26.4330 O.2    25  GLN25      -0.2867
      5  CB        40.0270   48.5330   28.6930 C.3    25  GLN25       0.0367
      6  CG        39.7460   48.6150   30.1440 C.3    25  GLN25       0.0905
      7  CD        38.4990   47.8180   30.5040 C.2    25  GLN25       0.2608
      8  OE1       37.3830   48.3680   30.6080 O.2    25  GLN25      -0.2717
      9  NE2       38.6780   46.4940   30.6660 N.am   25  GLN25      -0.0878
     10  N         35.9580   56.6650   33.8660 N.3   129  HIS129     -0.1226
     11  CA        36.1100   55.2380   34.1280 C.3   129  HIS129      0.1752
     12  C         37.4760   54.9980   34.7960 C.2   129  HIS129      0.2596
     13  O         38.3470   54.3480   34.2310 O.2   129  HIS129     -0.2718
     14  CB        35.9850   54.4580   32.8230 C.3   129  HIS129      0.0759
     15  CG        35.6240   53.0120   32.9910 C.ar  129  HIS129      0.0818
     16  ND1       36.2900   52.1590   33.8580 N.ar  129  HIS129     -0.2268
     17  CD2       34.6910   52.2530   32.3620 C.ar  129  HIS129      0.1154
     18  CE1       35.7620   50.9490   33.7770 C.ar  129  HIS129      0.1986
     19  NE2       34.7890   50.9800   32.8790 N.ar  129  HIS129     -0.2212
     20  N         37.6410   55.5590   35.9890 N.am  130  TRP130     -0.1976
     21  CA        38.7630   55.2980   36.8900 C.3   130  TRP130      0.1640
     22  C         40.1270   55.9250   36.5170 C.2   130  TRP130      0.2290
     23  O         41.0830   55.8100   37.2920 O.2   130  TRP130     -0.2864
     24  CB        38.9730   53.7930   37.1350 C.3   130  TRP130      0.0576
     25  CG        37.7320   52.9670   37.2400 C.ar  130  TRP130      0.0006
     26  CD1       36.4420   53.4070   37.5030 C.ar  130  TRP130      0.0946
     27  CD2       37.6520   51.5440   37.1220 C.ar  130  TRP130      0.0152
     28  NE1       35.5860   52.3450   37.5150 N.ar  130  TRP130     -0.2442
     29  CE2       36.2940   51.1870   37.2880 C.ar  130  TRP130      0.0810
     30  CE3       38.5940   50.5350   36.8680 C.ar  130  TRP130      0.0012
     31  CZ2       35.8460   49.8500   37.1990 C.ar  130  TRP130      0.0191
     32  CZ3       38.1490   49.2070   36.7820 C.ar  130  TRP130      0.0001
     33  CH2       36.7840   48.8840   36.9510 C.ar  130  TRP130      0.0015
     34  N         30.6800   52.4530   37.3480 N.3   175  GLN175     -0.1245
     35  CA        31.1720   51.5320   38.3750 C.3   175  GLN175      0.1566
     36  C         31.9480   52.2330   39.4550 C.2   175  GLN175      0.2260
     37  O         33.0320   51.7780   39.8400 O.2   175  GLN175     -0.2867
     38  CB        32.1050   50.4950   37.7760 C.3   175  GLN175      0.0367
     39  CG        31.4610   49.5440   36.8190 C.3   175  GLN175      0.0905
     40  CD        31.9340   48.1160   37.0620 C.2   175  GLN175      0.2608
     41  OE1       33.0760   47.8890   37.5010 O.2   175  GLN175     -0.2717
     42  NE2       31.0460   47.1320   36.7950 N.am  175  GLN175     -0.0878
     43  N         31.6740   52.0470   42.3400 N.3   177  TRP177     -0.1227
     44  CA        31.8550   51.0950   43.4500 C.3   177  TRP177      0.1737
     45  C         33.2220   50.4200   43.3400 C.2   177  TRP177      0.2596
     46  O         33.9620   50.2670   44.3060 O.2   177  TRP177     -0.2718
     47  CB        30.7380   50.0190   43.4290 C.3   177  TRP177      0.0564
     48  CG        30.9080   48.9680   44.5130 C.ar  177  TRP177      0.0003
     49  CD1       30.5190   49.0680   45.8170 C.ar  177  TRP177      0.0946
     50  CD2       31.5420   47.6900   44.3840 C.ar  177  TRP177      0.0152
     51  NE1       30.8670   47.9320   46.5090 N.ar  177  TRP177     -0.2442
     52  CE2       31.4910   47.0670   45.6520 C.ar  177  TRP177      0.0810
     53  CE3       32.1400   47.0070   43.3170 C.ar  177  TRP177      0.0012
     54  CZ2       32.0240   45.8020   45.8890 C.ar  177  TRP177      0.0191
     55  CZ3       32.6590   45.7460   43.5480 C.ar  177  TRP177      0.0001
     56  CH2       32.5980   45.1520   44.8300 C.ar  177  TRP177      0.0015
     57  N         33.5600   50.0130   42.1430 N.am  178  THR178     -0.1953
     58  CA        34.7660   49.2340   41.9840 C.3   178  THR178      0.1897
     59  C         35.9730   50.1250   42.2810 C.2   178  THR178      0.2313
     60  O         36.9770   49.6880   42.8910 O.2   178  THR178     -0.2863
     61  CB        34.8380   48.6960   40.5750 C.3   178  THR178      0.1794
     62  OG1       33.5570   48.1390   40.2380 O.3   178  THR178     -0.2208
     63  CG2       35.9110   47.6390   40.4560 C.3   178  THR178      0.0378
     64  N         38.3030   48.7570   45.3500 N.3   182  HIS182     -0.1241
     65  CA        39.6130   48.1880   45.0470 C.3   182  HIS182      0.1621
     66  C         40.7480   49.1960   44.9770 C.2   182  HIS182      0.2264
     67  O         41.9210   48.8140   45.1010 O.2   182  HIS182     -0.2867
     68  CB        39.5570   47.3370   43.8070 C.3   182  HIS182      0.0745
     69  CG        38.6350   46.1770   43.9610 C.ar  182  HIS182      0.0817
     70  ND1       38.9070   45.1250   44.8120 N.ar  182  HIS182     -0.2268
     71  CD2       37.4090   45.9350   43.4380 C.ar  182  HIS182      0.1154
     72  CE1       37.9050   44.2630   44.7750 C.ar  182  HIS182      0.1986
     73  NE2       36.9760   44.7380   43.9610 N.ar  182  HIS182     -0.2212
     74  N         43.9560   46.8130   45.3920 N.3   188  LEU188     -0.1231
     75  CA        44.4000   45.9980   44.2550 C.3   188  LEU188      0.1693
     76  C         44.3350   46.7580   42.9450 C.2   188  LEU188      0.2592
     77  O         44.9880   46.4030   41.9690 O.2   188  LEU188     -0.2718
     78  CB        43.5830   44.7040   44.1510 C.3   188  LEU188      0.0284
     79  CG        43.7370   43.7210   45.3240 C.3   188  LEU188      0.0019
     80  CD1       42.7160   42.5840   45.2090 C.3   188  LEU188      0.0001
     81  CD2       45.1570   43.1810   45.3710 C.3   188  LEU188      0.0001
     82  N         43.5200   47.7950   42.9190 N.am  189  TYR189     -0.1976
     83  CA        43.4370   48.6330   41.7550 C.3   189  TYR189      0.1639
     84  C         44.1060   49.9870   42.0950 C.2   189  TYR189      0.2290
     85  O         44.3700   50.2900   43.2710 O.2   189  TYR189     -0.2864
     86  CB        41.9700   48.8340   41.3650 C.3   189  TYR189      0.0560
     87  CG        41.3680   47.7120   40.5440 C.ar  189  TYR189     -0.0198
     88  CD1       42.0550   46.5100   40.3360 C.ar  189  TYR189     -0.0009
     89  CD2       40.1020   47.8400   40.0060 C.ar  189  TYR189     -0.0009
     90  CE1       41.5050   45.4960   39.5900 C.ar  189  TYR189      0.0417
     91  CE2       39.5390   46.8310   39.2590 C.ar  189  TYR189      0.0417
     92  CZ        40.2370   45.6630   39.0670 C.ar  189  TYR189      0.1957
     93  OH        39.6570   44.6710   38.3150 O.3   189  TYR189     -0.2866
     94  N         27.7380   49.2450   39.5020 N.3   239  ALA239     -0.1231
     95  CA        28.1030   47.8520   39.5540 C.3   239  ALA239      0.1694
     96  C         27.0420   47.1640   40.3710 C.2   239  ALA239      0.2593
     97  O         26.6960   47.6350   41.4640 O.2   239  ALA239     -0.2718
     98  CB        29.4290   47.6950   40.2330 C.3   239  ALA239      0.0304
     99  N         26.5030   46.0620   39.8610 N.am  240  THR240     -0.1939
    100  CA        25.6130   45.2700   40.7020 C.3   240  THR240      0.2028
    101  C         25.9600   43.8150   40.6500 C.2   240  THR240      0.2642
    102  O         26.5790   43.3450   39.7140 O.2   240  THR240     -0.2714
    103  CB        24.1520   45.4500   40.3320 C.3   240  THR240      0.1808
    104  OG1       23.8570   44.6580   39.1760 O.3   240  THR240     -0.2208
    105  CG2       23.8670   46.9290   40.0630 C.3   240  THR240      0.0379
    106  N         25.5760   43.1060   41.6950 N.am  241  GLN241     -0.1976
    107  CA        25.6950   41.6490   41.7330 C.3   241  GLN241      0.1601
    108  C         24.4970   41.1550   42.5020 C.2   241  GLN241      0.2287
    109  O         24.0990   41.7770   43.4720 O.2   241  GLN241     -0.2864
    110  CB        26.9940   41.2350   42.3970 C.3   241  GLN241      0.0394
    111  CG        26.8450   40.1420   43.3800 C.3   241  GLN241      0.0908
    112  CD        28.1110   39.3130   43.5070 C.2   241  GLN241      0.2608
    113  OE1       29.1500   39.6720   42.9800 O.2   241  GLN241     -0.2717
    114  NE2       28.0260   38.2050   44.2180 N.am  241  GLN241     -0.0878
    115  N         26.5760   47.6750   48.5280 N.3   264  MET264     -0.1245
    116  CA        27.1290   47.7050   47.1870 C.3   264  MET264      0.1570
    117  C         26.4230   48.7020   46.2970 C.2   264  MET264      0.2261
    118  O         27.0720   49.6000   45.7410 O.2   264  MET264     -0.2867
    119  CB        27.1080   46.3330   46.5240 C.3   264  MET264      0.0387
    120  CG        27.9070   46.3210   45.2380 C.3   264  MET264      0.0595
    121  SD        28.0280   44.7180   44.4090 S.3   264  MET264     -0.1393
    122  CE        26.3810   44.6060   43.7080 C.3   264  MET264      0.0692
    123  N         25.2630   47.4170   35.7270 N.3   310  ASN310     -0.1240
    124  CA        26.1780   46.4610   35.1680 C.3   310  ASN310      0.1653
    125  C         26.0120   45.1390   35.8920 C.2   310  ASN310      0.2266
    126  O         26.1750   45.0690   37.1060 O.2   310  ASN310     -0.2867
    127  CB        27.6280   46.9670   35.3010 C.3   310  ASN310      0.1155
    128  CG        27.8300   48.3600   34.6600 C.2   310  ASN310      0.2627
    129  OD1       27.1450   48.7250   33.6920 O.2   310  ASN310     -0.2716
    130  ND2       28.7690   49.1380   35.2090 N.am  310  ASN310     -0.0877
    131  N         26.9570   40.9250   36.2220 N.3   312  TYR312     -0.1227
    132  CA        27.7420   39.8040   35.7530 C.3   312  TYR312      0.1736
    133  C         27.3700   38.4610   36.3760 C.2   312  TYR312      0.2596
    134  O         27.3070   37.4630   35.6710 O.2   312  TYR312     -0.2718
    135  CB        29.2400   40.0690   35.9610 C.3   312  TYR312      0.0548
    136  CG        29.7660   41.0790   34.9930 C.ar  312  TYR312     -0.0200
    137  CD1       30.2340   40.6890   33.7430 C.ar  312  TYR312     -0.0009
    138  CD2       29.7710   42.4360   35.3130 C.ar  312  TYR312     -0.0009
    139  CE1       30.7080   41.6250   32.8350 C.ar  312  TYR312      0.0417
    140  CE2       30.2410   43.3670   34.4240 C.ar  312  TYR312      0.0417
    141  CZ        30.7090   42.9600   33.1890 C.ar  312  TYR312      0.1957
    142  OH        31.1660   43.8910   32.3000 O.3   312  TYR312     -0.2866
    143  N         27.1620   38.4510   37.6910 N.am  313  THR313     -0.1953
    144  CA        27.1020   37.2220   38.4660 C.3   313  THR313      0.1897
    145  C         26.3030   37.4190   39.7560 C.2   313  THR313      0.2313
    146  O         25.6360   38.4430   39.9420 O.2   313  THR313     -0.2863
    147  CB        28.5290   36.6660   38.7540 C.3   313  THR313      0.1794
    148  OG1       28.4290   35.3490   39.2960 O.3   313  THR313     -0.2208
    149  CG2       29.3320   37.5630   39.7280 C.3   313  THR313      0.0378
    150  N         35.6690   33.8840   39.7250 N.3   350  TRP350     -0.1241
    151  CA        34.7830   34.8080   40.4430 C.3   350  TRP350      0.1605
    152  C         33.4340   34.9040   39.7370 C.2   350  TRP350      0.2264
    153  O         32.4550   35.3720   40.3180 O.2   350  TRP350     -0.2867
    154  CB        35.3900   36.2160   40.6170 C.3   350  TRP350      0.0550
    155  CG        35.6090   36.9400   39.3140 C.ar  350  TRP350      0.0003
    156  CD1       36.7660   36.9890   38.5890 C.ar  350  TRP350      0.0946
    157  CD2       34.6400   37.7030   38.5750 C.ar  350  TRP350      0.0152
    158  NE1       36.5740   37.7340   37.4460 N.ar  350  TRP350     -0.2442
    159  CE2       35.2820   38.1820   37.4160 C.ar  350  TRP350      0.0810
    160  CE3       33.2930   38.0280   38.7860 C.ar  350  TRP350      0.0012
    161  CZ2       34.6270   38.9630   36.4670 C.ar  350  TRP350      0.0191
    162  CZ3       32.6430   38.8080   37.8500 C.ar  350  TRP350      0.0001
    163  CH2       33.3090   39.2640   36.6980 C.ar  350  TRP350      0.0015
    164  N         26.1990   47.1640   31.0520 N.3   378  GLU378     -0.1245
    165  CA        27.2410   46.1330   30.9390 C.3   378  GLU378      0.1567
    166  C         26.6950   44.7430   31.2720 C.2   378  GLU378      0.2260
    167  O         25.9920   44.5580   32.2670 O.2   378  GLU378     -0.2867
    168  CB        28.3760   46.4010   31.9310 C.3   378  GLU378      0.0388
    169  CG        29.3970   47.3660   31.4500 C.3   378  GLU378      0.1160
    170  CD        30.5570   47.5270   32.4300 C.2   378  GLU378      0.3649
    171  OE1       30.8850   46.5830   33.1790 O.co2 378  GLU378     -0.2457
    172  OE2       31.1550   48.6120   32.4520 O.co2 378  GLU378     -0.2457
    173  N         28.9810   43.7140   27.0240 N.3   427  TRP427     -0.1241
    174  CA        30.3560   44.0500   27.3920 C.3   427  TRP427      0.1605
    175  C         31.2550   42.8320   27.1760 C.2   427  TRP427      0.2264
    176  O         30.9550   41.7800   27.7200 O.2   427  TRP427     -0.2867
    177  CB        30.4100   44.4440   28.8560 C.3   427  TRP427      0.0550
    178  CG        31.7660   44.8810   29.2480 C.ar  427  TRP427      0.0003
    179  CD1       32.7850   44.0840   29.7120 C.ar  427  TRP427      0.0946
    180  CD2       32.2940   46.2150   29.1810 C.ar  427  TRP427      0.0152
    181  NE1       33.8930   44.8430   29.9540 N.ar  427  TRP427     -0.2442
    182  CE2       33.6290   46.1520   29.6310 C.ar  427  TRP427      0.0810
    183  CE3       31.7640   47.4560   28.7890 C.ar  427  TRP427      0.0012
    184  CZ2       34.4490   47.2820   29.7150 C.ar  427  TRP427      0.0191
    185  CZ3       32.5760   48.5880   28.8730 C.ar  427  TRP427      0.0001
    186  CH2       33.9110   48.4890   29.3330 C.ar  427  TRP427      0.0015
    187  N         42.4930   44.1470   30.9840 N.3   434  GLU434     -0.1231
    188  CA        41.5210   43.8140   32.0200 C.3   434  GLU434      0.1699
    189  C         42.1200   44.0600   33.3950 C.2   434  GLU434      0.2592
    190  O         42.0500   43.2290   34.3320 O.2   434  GLU434     -0.2718
    191  CB        41.0450   42.3630   31.8500 C.3   434  GLU434      0.0402
    192  CG        40.2640   42.1380   30.5620 C.3   434  GLU434      0.1161
    193  CD        38.8730   42.8240   30.6010 C.2   434  GLU434      0.3649
    194  OE1       38.4460   43.2380   31.7000 O.co2 434  GLU434     -0.2457
    195  OE2       38.2230   42.9470   29.5380 O.co2 434  GLU434     -0.2457
    196  N         42.7610   45.2190   33.4940 N.am  435  TRP435     -0.1976
    197  CA        43.2270   45.7170   34.7550 C.3   435  TRP435      0.1640
    198  C         44.2370   44.7540   35.3970 C.2   435  TRP435      0.2290
    199  O         45.1930   44.3700   34.7430 O.2   435  TRP435     -0.2864
    200  CB        42.0190   46.0020   35.6330 C.3   435  TRP435      0.0576
    201  CG        40.9250   46.7940   34.9360 C.ar  435  TRP435      0.0006
    202  CD1       39.6900   46.3520   34.6240 C.ar  435  TRP435      0.0946
    203  CD2       40.9770   48.1720   34.4910 C.ar  435  TRP435      0.0152
    204  NE1       38.9590   47.3450   34.0080 N.ar  435  TRP435     -0.2442
    205  CE2       39.7180   48.4790   33.9300 C.ar  435  TRP435      0.0810
    206  CE3       41.9590   49.1650   34.5090 C.ar  435  TRP435      0.0012
    207  CZ2       39.4170   49.7360   33.3870 C.ar  435  TRP435      0.0191
    208  CZ3       41.6550   50.4260   33.9680 C.ar  435  TRP435      0.0001
    209  CH2       40.3980   50.6950   33.4180 C.ar  435  TRP435      0.0015
    210  N         44.2180   41.7480   35.6870 N.3   437  GLU437     -0.1245
    211  CA        44.2990   40.5060   34.9110 C.3   437  GLU437      0.1567
    212  C         45.0220   40.6600   33.6130 C.2   437  GLU437      0.2260
    213  O         45.1420   39.6860   32.8650 O.2   437  GLU437     -0.2867
    214  CB        42.8900   40.0040   34.5810 C.3   437  GLU437      0.0388
    215  CG        42.0520   39.6720   35.8090 C.3   437  GLU437      0.1160
    216  CD        42.2840   38.2460   36.2790 C.2   437  GLU437      0.3649
    217  OE1       41.3530   37.4180   36.1000 O.co2 437  GLU437     -0.2457
    218  OE2       43.4000   37.9440   36.7940 O.co2 437  GLU437     -0.2457
    219  N         42.6300   37.6700   30.0150 N.3   441  VAL441     -0.1245
    220  CA        41.2150   37.3830   30.0730 C.3   441  VAL441      0.1561
    221  C         40.5060   38.1060   28.9360 C.2   441  VAL441      0.2260
    222  O         40.5320   39.3350   28.8730 O.2   441  VAL441     -0.2867
    223  CB        40.6620   37.9300   31.3960 C.3   441  VAL441      0.0252
    224  CG1       39.2100   37.5720   31.5710 C.3   441  VAL441      0.0019
    225  CG2       41.4500   37.3920   32.5490 C.3   441  VAL441      0.0019
    226  N         37.0820   39.2620   27.0340 N.3   443  PHE443     -0.1241
    227  CA        35.6540   39.5200   27.2320 C.3   443  PHE443      0.1605
    228  C         34.9650   39.9770   25.9860 C.2   443  PHE443      0.2264
    229  O         33.7700   40.2380   26.0270 O.2   443  PHE443     -0.2867
    230  CB        35.4110   40.6220   28.2670 C.3   443  PHE443      0.0534
    231  CG        35.2070   40.1190   29.6670 C.ar  443  PHE443     -0.0203
    232  CD1       33.9180   39.8940   30.1580 C.ar  443  PHE443     -0.0042
    233  CD2       36.2970   39.8680   30.4970 C.ar  443  PHE443     -0.0042
    234  CE1       33.7170   39.4330   31.4570 C.ar  443  PHE443     -0.0003
    235  CE2       36.1070   39.3920   31.7980 C.ar  443  PHE443     -0.0003
    236  CZ        34.8000   39.1730   32.2770 C.ar  443  PHE443     -0.0000
@<TRIPOS>BOND
     1   228   229    2
     2   228   227    1
     3     4     3    2
     4     3     2    1
     5   173   174    1
     6   226   227    1
     7   175   174    1
     8   175   176    2
     9   227   230    1
    10   174   177    1
    11   230   231    1
    12     2     1    1
    13     2     5    1
    14     5     6    1
    15   183   185   ar
    16   183   180   ar
    17   177   178    1
    18   222   221    2
    19   185   186   ar
    20   221   220    1
    21   180   178   ar
    22   180   182   ar
    23   178   179   ar
    24   186   184   ar
    25   195   193   ar
    26   182   184   ar
    27   182   181   ar
    28   231   232   ar
    29   231   233   ar
    30   179   181   ar
    31   219   220    1
    32   220   223    1
    33     6     7    1
    34   232   234   ar
    35   233   235   ar
    36     7     8    2
    37     7     9   am
    38   192   193    1
    39   192   191    1
    40   193   194   ar
    41   165   164    1
    42   165   166    1
    43   165   168    1
    44   187   188    1
    45   166   167    2
    46   223   224    1
    47   223   225    1
    48   169   168    1
    49   169   170    1
    50   234   236   ar
    51   235   236   ar
    52   191   188    1
    53   188   189    1
    54   142   141    1
    55    17    19   ar
    56    17    15   ar
    57   170   172   ar
    58   170   171   ar
    59    14    15    1
    60    14    11    1
    61   139   141   ar
    62   139   137   ar
    63   213   212    2
    64    19    18   ar
    65    15    16   ar
    66   141   140   ar
    67   207   209   ar
    68   207   205   ar
    69   189   196   am
    70   189   190    2
    71   209   208   ar
    72   196   197    1
    73   212   211    1
    74   129   128    2
    75   137   136   ar
    76    18    16   ar
    77    10    11    1
    78   205   204   ar
    79   205   203   ar
    80   208   206   ar
    81   204   202   ar
    82    11    12    1
    83    13    12    2
    84   140   138   ar
    85   203   206   ar
    86   203   201   ar
    87   214   211    1
    88   214   215    1
    89   202   201   ar
    90   128   130   am
    91   128   127    1
    92   199   198    2
    93   197   198    1
    94   197   200    1
    95    12    20   am
    96   211   210    1
    97   201   200    1
    98   136   138   ar
    99   136   135    1
   100   124   127    1
   101   124   123    1
   102   124   125    1
   103   134   133    2
   104   132   135    1
   105   132   131    1
   106   132   133    1
   107   215   216    1
   108   125   126    2
   109    20    21    1
   110   217   216   ar
   111   216   218   ar
   112   133   143   am
   113   161   163   ar
   114   161   159   ar
   115    22    21    1
   116    22    23    2
   117   163   162   ar
   118    32    30   ar
   119    32    33   ar
   120    42    40   am
   121    39    40    1
   122    39    38    1
   123    30    27   ar
   124    21    24    1
   125    33    31   ar
   126    40    41    2
   127    27    25   ar
   128    27    29   ar
   129    24    25    1
   130    31    29   ar
   131    25    26   ar
   132    29    28   ar
   133    34    35    1
   134   159   158   ar
   135   159   157   ar
   136   158   156   ar
   137    26    28   ar
   138   143   144    1
   139    38    35    1
   140   162   160   ar
   141    93    92    1
   142    35    36    1
   143   144   147    1
   144   144   145    1
   145   157   160   ar
   146   157   155   ar
   147   156   155   ar
   148   147   148    1
   149   147   149    1
   150    92    91   ar
   151    92    90   ar
   152   104   103    1
   153    91    89   ar
   154   155   154    1
   155    36    37    2
   156    94    95    1
   157    95    98    1
   158    95    96    1
   159    90    88   ar
   160   102   101    2
   161   150   151    1
   162   152   153    2
   163   152   151    1
   164   145   146    2
   165    99    96   am
   166    99   100    1
   167    89    87   ar
   168   105   103    1
   169    62    61    1
   170   103   100    1
   171    88    87   ar
   172    96    97    2
   173   151   154    1
   174    63    61    1
   175    87    86    1
   176    61    58    1
   177   101   100    1
   178   101   106   am
   179    86    83    1
   180   106   107    1
   181   107   110    1
   182   107   108    1
   183    83    84    1
   184    83    82    1
   185    77    76    2
   186    58    57    1
   187    58    59    1
   188    84    85    2
   189    57    45   am
   190    59    60    2
   191    43    44    1
   192   110   111    1
   193   108   109    2
   194    82    76   am
   195    76    75    1
   196   113   112    2
   197    53    55   ar
   198    53    50   ar
   199    45    44    1
   200    45    46    2
   201   111   112    1
   202    47    44    1
   203    47    48    1
   204    71    69   ar
   205    71    73   ar
   206   112   114   am
   207    55    56   ar
   208   122   121    1
   209    68    69    1
   210    68    65    1
   211    69    70   ar
   212    73    72   ar
   213    78    75    1
   214    78    79    1
   215    75    74    1
   216    50    48   ar
   217    50    52   ar
   218   121   120    1
   219    48    49   ar
   220    72    70   ar
   221    56    54   ar
   222    66    65    1
   223    66    67    2
   224    65    64    1
   225    80    79    1
   226   120   119    1
   227    79    81    1
   228    52    54   ar
   229    52    51   ar
   230   118   117    2
   231    49    51   ar
   232   117   116    1
   233   119   116    1
   234   116   115    1
