@<TRIPOS>MOLECULE
tmp/3u58A00.pdb
 152 147 0 0 0
SMALL
GASTEIGER

@<TRIPOS>ATOM
      1  N          2.0720   46.4190    3.7440 N.3    39  PHE39      -0.1241
      2  CA         1.3300   46.2820    4.9940 C.3    39  PHE39       0.1605
      3  C          2.2580   45.8150    6.1160 C.2    39  PHE39       0.2264
      4  O          3.1460   44.9970    5.8930 O.2    39  PHE39      -0.2867
      5  CB         0.1610   45.3150    4.8260 C.3    39  PHE39       0.0534
      6  CG        -0.8150   45.7210    3.7470 C.ar   39  PHE39      -0.0203
      7  CD1       -1.8720   46.5730    4.0300 C.ar   39  PHE39      -0.0042
      8  CD2       -0.6790   45.2410    2.4470 C.ar   39  PHE39      -0.0042
      9  CE1       -2.7740   46.9460    3.0410 C.ar   39  PHE39      -0.0003
     10  CE2       -1.5820   45.6080    1.4460 C.ar   39  PHE39      -0.0003
     11  CZ        -2.6300   46.4590    1.7450 C.ar   39  PHE39      -0.0000
     12  N          2.0730   44.8000   10.3980 N.3    41  ASN41      -0.1225
     13  CA         1.4380   44.6370   11.7070 C.3    41  ASN41       0.1785
     14  C          2.4330   44.3030   12.7960 C.2    41  ASN41       0.2597
     15  O          2.2400   44.6620   13.9520 O.2    41  ASN41      -0.2718
     16  CB         0.4380   43.4840   11.6720 C.3    41  ASN41       0.1169
     17  CG        -0.8720   43.8690   11.0580 C.2    41  ASN41       0.2627
     18  OD1       -0.9330   44.7290   10.1800 O.2    41  ASN41      -0.2716
     19  ND2       -1.9420   43.2370   11.5180 N.am   41  ASN41      -0.0877
     20  N          3.4840   43.5840   12.4170 N.am   42  GLN42      -0.1979
     21  CA         4.3870   42.9680   13.3730 C.3    42  GLN42       0.1601
     22  C          5.7870   43.5330   13.2320 C.2    42  GLN42       0.2287
     23  O          6.1440   44.0540   12.1820 O.2    42  GLN42      -0.2864
     24  CB         4.4210   41.4580   13.1470 C.3    42  GLN42       0.0394
     25  CG         3.0800   40.8640   12.7390 C.3    42  GLN42       0.0908
     26  CD         2.0940   40.7850   13.8960 C.2    42  GLN42       0.2608
     27  OE1        2.4840   40.8290   15.0690 O.2    42  GLN42      -0.2717
     28  NE2        0.8080   40.6630   13.5700 N.am   42  GLN42      -0.0878
     29  N          7.1590   41.6240    9.6670 N.3    45  SER45      -0.1217
     30  CA         6.5430   40.7680    8.6690 C.3    45  SER45       0.1889
     31  C          5.6970   41.6200    7.7140 C.2    45  SER45       0.2288
     32  O          4.4720   41.4700    7.6450 O.2    45  SER45      -0.2866
     33  CB         5.7210   39.6410    9.3170 C.3    45  SER45       0.2089
     34  OG         4.3920   40.0420    9.6160 O.3    45  SER45      -0.2183
     35  N          4.2460   42.7970    4.0720 N.3    47  TYR47      -0.1227
     36  CA         3.8950   42.1940    2.7990 C.3    47  TYR47       0.1736
     37  C          3.3320   43.2340    1.8370 C.2    47  TYR47       0.2595
     38  O          3.0230   44.3560    2.2330 O.2    47  TYR47      -0.2718
     39  CB         2.8880   41.0640    2.9960 C.3    47  TYR47       0.0548
     40  CG         1.6560   41.4380    3.7830 C.ar   47  TYR47      -0.0200
     41  CD1        0.4350   41.6520    3.1480 C.ar   47  TYR47      -0.0009
     42  CD2        1.7050   41.5570    5.1710 C.ar   47  TYR47      -0.0009
     43  CE1       -0.7040   41.9850    3.8760 C.ar   47  TYR47       0.0417
     44  CE2        0.5780   41.8920    5.9090 C.ar   47  TYR47       0.0417
     45  CZ        -0.6250   42.1050    5.2580 C.ar   47  TYR47       0.1957
     46  OH        -1.7460   42.4400    5.9950 O.3    47  TYR47      -0.2866
     47  N          3.2240   42.8630    0.5680 N.am   48  PHE48      -0.1962
     48  CA         2.4780   43.6610   -0.3880 C.3    48  PHE48       0.1771
     49  C          2.0700   42.7780   -1.5360 C.2    48  PHE48       0.2619
     50  O          2.4730   41.6200   -1.5960 O.2    48  PHE48      -0.2715
     51  CB         3.2940   44.8470   -0.8850 C.3    48  PHE48       0.0574
     52  CG         4.3500   44.4980   -1.8920 C.ar   48  PHE48      -0.0200
     53  CD1        4.0850   44.5920   -3.2530 C.ar   48  PHE48      -0.0042
     54  CD2        5.6270   44.1320   -1.4830 C.ar   48  PHE48      -0.0042
     55  CE1        5.0690   44.3070   -4.1930 C.ar   48  PHE48      -0.0003
     56  CE2        6.6160   43.8450   -2.4120 C.ar   48  PHE48      -0.0003
     57  CZ         6.3370   43.9330   -3.7720 C.ar   48  PHE48      -0.0000
     58  N          1.2630   43.3020   -2.4450 N.am   49  PHE49      -0.1974
     59  CA         0.9370   42.5250   -3.6240 C.3    49  PHE49       0.1639
     60  C          0.7620   43.3920   -4.8640 C.2    49  PHE49       0.2290
     61  O          0.4880   44.5850   -4.7630 O.2    49  PHE49      -0.2864
     62  CB        -0.3050   41.6820   -3.3690 C.3    49  PHE49       0.0560
     63  CG        -1.5420   42.4820   -3.1900 C.ar   49  PHE49      -0.0200
     64  CD1       -2.4320   42.6470   -4.2450 C.ar   49  PHE49      -0.0042
     65  CD2       -1.8210   43.0830   -1.9720 C.ar   49  PHE49      -0.0042
     66  CE1       -3.5940   43.3950   -4.0900 C.ar   49  PHE49      -0.0003
     67  CE2       -2.9820   43.8380   -1.8010 C.ar   49  PHE49      -0.0003
     68  CZ        -3.8690   43.9950   -2.8640 C.ar   49  PHE49      -0.0000
     69  N         -2.8690   37.7880   -9.2120 N.3    61  ASN61      -0.1240
     70  CA        -2.3760   38.4210   -8.0050 C.3    61  ASN61       0.1653
     71  C         -1.0270   37.8050   -7.6300 C.2    61  ASN61       0.2266
     72  O         -0.8980   36.5800   -7.5690 O.2    61  ASN61      -0.2867
     73  CB        -3.4070   38.1970   -6.8970 C.3    61  ASN61       0.1155
     74  CG        -3.0360   38.8700   -5.5910 C.2    61  ASN61       0.2627
     75  OD1       -3.3300   40.0450   -5.3850 O.2    61  ASN61      -0.2716
     76  ND2       -2.4140   38.1140   -4.6850 N.am   61  ASN61      -0.0877
     77  N          1.8090   37.9700   -4.5430 N.3    63  SER63      -0.1217
     78  CA         2.0780   38.4370   -3.1760 C.3    63  SER63       0.1889
     79  C          3.5440   38.2600   -2.7950 C.2    63  SER63       0.2288
     80  O          4.1820   37.2880   -3.1850 O.2    63  SER63      -0.2866
     81  CB         1.1750   37.7240   -2.1660 C.3    63  SER63       0.2089
     82  OG         1.1430   36.3210   -2.3860 O.3    63  SER63      -0.2183
     83  N          6.2490   38.1470    0.4240 N.3    65  TRP65      -0.1227
     84  CA         6.2690   37.9680    1.8720 C.3    65  TRP65       0.1737
     85  C          7.6700   37.9890    2.4120 C.2    65  TRP65       0.2595
     86  O          7.8770   37.9390    3.6160 O.2    65  TRP65      -0.2718
     87  CB         5.5870   36.6610    2.2500 C.3    65  TRP65       0.0564
     88  CG         4.1950   36.5940    1.7040 C.ar   65  TRP65       0.0003
     89  CD1        3.8070   36.0830    0.5000 C.ar   65  TRP65       0.0946
     90  CD2        3.0080   37.0780    2.3350 C.ar   65  TRP65       0.0152
     91  NE1        2.4510   36.2010    0.3510 N.ar   65  TRP65      -0.2442
     92  CE2        1.9340   36.8160    1.4590 C.ar   65  TRP65       0.0810
     93  CE3        2.7460   37.6970    3.5620 C.ar   65  TRP65       0.0012
     94  CZ2        0.6190   37.1590    1.7650 C.ar   65  TRP65       0.0191
     95  CZ3        1.4390   38.0360    3.8630 C.ar   65  TRP65       0.0001
     96  CH2        0.3920   37.7630    2.9690 C.ar   65  TRP65       0.0015
     97  N          8.6370   38.0630    1.5150 N.am   66  GLN66      -0.1979
     98  CA        10.0260   38.1200    1.9180 C.3    66  GLN66       0.1601
     99  C         10.7560   39.0050    0.9190 C.2    66  GLN66       0.2287
    100  O         10.2660   39.2190   -0.1830 O.2    66  GLN66      -0.2864
    101  CB        10.6100   36.7110    1.9510 C.3    66  GLN66       0.0394
    102  CG        11.6250   36.4860    3.0560 C.3    66  GLN66       0.0908
    103  CD        11.4250   35.1450    3.7490 C.2    66  GLN66       0.2608
    104  OE1       10.4460   34.9560    4.4820 O.2    66  GLN66      -0.2717
    105  NE2       12.3410   34.1990    3.5080 N.am   66  GLN66      -0.0878
    106  N         -0.3770   29.0150   -6.2090 N.3    89  LYS89      -0.1245
    107  CA        -1.1980   28.6380   -5.0680 C.3    89  LYS89       0.1561
    108  C         -2.6270   29.0750   -5.2690 C.2    89  LYS89       0.2260
    109  O         -2.8600   30.1450   -5.8220 O.2    89  LYS89      -0.2867
    110  CB        -0.6710   29.2910   -3.8010 C.3    89  LYS89       0.0271
    111  CG        -1.3630   28.8230   -2.5490 C.3    89  LYS89       0.0035
    112  CD        -1.0410   29.7480   -1.3890 C.3    89  LYS89       0.0206
    113  CE        -1.6210   29.2330   -0.0760 C.3    89  LYS89       0.1093
    114  NZ        -1.1740   30.0870    1.0580 N.3    89  LYS89      -0.1314
    115  N         -6.2390   30.7120   -4.5250 N.3    91  PHE91      -0.1241
    116  CA        -6.4880   32.0230   -3.9330 C.3    91  PHE91       0.1605
    117  C         -7.9870   32.2400   -3.7270 C.2    91  PHE91       0.2264
    118  O         -8.4860   33.3670   -3.8510 O.2    91  PHE91      -0.2867
    119  CB        -5.9480   33.0950   -4.8880 C.3    91  PHE91       0.0534
    120  CG        -5.7590   34.4410   -4.2570 C.ar   91  PHE91      -0.0203
    121  CD1       -5.4900   34.5600   -2.8990 C.ar   91  PHE91      -0.0042
    122  CD2       -5.8560   35.5920   -5.0290 C.ar   91  PHE91      -0.0042
    123  CE1       -5.3180   35.8070   -2.3160 C.ar   91  PHE91      -0.0003
    124  CE2       -5.6890   36.8420   -4.4630 C.ar   91  PHE91      -0.0003
    125  CZ        -5.4150   36.9540   -3.0980 C.ar   91  PHE91      -0.0000
    126  N         -2.9810   32.2490   -7.6650 N.3    96  GLU96      -0.1245
    127  CA        -2.0780   33.3630   -7.4680 C.3    96  GLU96       0.1567
    128  C         -0.6690   32.8170   -7.4730 C.2    96  GLU96       0.2260
    129  O         -0.4710   31.6010   -7.3910 O.2    96  GLU96      -0.2867
    130  CB        -2.3590   34.0950   -6.1590 C.3    96  GLU96       0.0388
    131  CG        -1.9260   33.3340   -4.9050 C.3    96  GLU96       0.1160
    132  CD        -1.6190   34.2500   -3.7070 C.2    96  GLU96       0.3649
    133  OE1       -1.4310   33.7270   -2.5850 O.co2  96  GLU96      -0.2457
    134  OE2       -1.5510   35.4900   -3.8790 O.co2  96  GLU96      -0.2457
    135  N          2.8190   33.1790   -5.3280 N.3    98  LYS98      -0.1245
    136  CA         3.1950   33.5720   -3.9860 C.3    98  LYS98       0.1561
    137  C          4.7210   33.4870   -3.7790 C.2    98  LYS98       0.2260
    138  O          5.3270   32.4190   -3.9260 O.2    98  LYS98      -0.2867
    139  CB         2.4480   32.6880   -2.9840 C.3    98  LYS98       0.0271
    140  CG         2.5220   33.1820   -1.5600 C.3    98  LYS98       0.0035
    141  CD         1.7090   32.3240   -0.6090 C.3    98  LYS98       0.0206
    142  CE         1.6260   32.9940    0.7580 C.3    98  LYS98       0.1093
    143  NZ         0.8250   32.2260    1.7400 N.3    98  LYS98      -0.1314
    144  N          7.6710   33.6660   -1.2690 N.3   100  LYS100     -0.1245
    145  CA         7.8690   33.5170    0.1710 C.3   100  LYS100      0.1561
    146  C          9.2880   33.1790    0.6170 C.2   100  LYS100      0.2260
    147  O          9.5820   33.2550    1.8100 O.2   100  LYS100     -0.2867
    148  CB         6.9480   32.4190    0.6980 C.3   100  LYS100      0.0271
    149  CG         5.9760   31.8890   -0.3330 C.3   100  LYS100      0.0035
    150  CD         5.6010   30.4470   -0.0400 C.3   100  LYS100      0.0206
    151  CE         5.4060   30.2180    1.4450 C.3   100  LYS100      0.1093
    152  NZ         4.9490   28.8350    1.7210 N.3   100  LYS100     -0.1314
@<TRIPOS>BOND
     1    69    70    1
     2    70    71    1
     3    70    73    1
     4   126   127    1
     5    71    72    2
     6   128   127    1
     7   128   129    2
     8   127   130    1
     9    73    74    1
    10   106   107    1
    11   130   131    1
    12   109   108    2
    13    74    75    2
    14    74    76   am
    15   135   136    1
    16   108   107    1
    17   107   110    1
    18   122   124   ar
    19   122   120   ar
    20   131   132    1
    21   119   120    1
    22   119   116    1
    23    60    61    2
    24    60    59    1
    25    77    78    1
    26   115   116    1
    27   124   125   ar
    28   120   121   ar
    29    64    66   ar
    30    64    63   ar
    31    55    57   ar
    32    55    53   ar
    33    66    68   ar
    34   136   137    1
    35   136   139    1
    36   116   117    1
    37   138   137    2
    38   134   132   ar
    39   118   117    2
    40   110   111    1
    41    57    56   ar
    42   132   133   ar
    43    59    62    1
    44    59    58    1
    45    62    63    1
    46    53    52   ar
    47    63    65   ar
    48    80    79    2
    49    78    79    1
    50    78    81    1
    51   125   123   ar
    52   139   140    1
    53   121   123   ar
    54    68    67   ar
    55   111   112    1
    56    58    49   am
    57    56    54   ar
    58    82    81    1
    59    65    67   ar
    60    52    54   ar
    61    52    51    1
    62    50    49    2
    63   140   141    1
    64    49    48    1
    65   112   113    1
    66   144   145    1
    67    51    48    1
    68   141   142    1
    69    48    47    1
    70   149   150    1
    71   149   148    1
    72   100    99    2
    73   113   114    1
    74   150   151    1
    75   145   146    1
    76   145   148    1
    77    91    89   ar
    78    91    92   ar
    79    83    84    1
    80    89    88   ar
    81    47    37   am
    82   146   147    2
    83   142   143    1
    84    99    98    1
    85   151   152    1
    86    10    11   ar
    87    10     8   ar
    88    92    94   ar
    89    92    90   ar
    90    97    98    1
    91    97    85   am
    92    88    87    1
    93    88    90   ar
    94    11     9   ar
    95    94    96   ar
    96    37    38    2
    97    37    36    1
    98    84    87    1
    99    84    85    1
   100    98   101    1
   101   101   102    1
   102    90    93   ar
   103    85    86    2
   104     8     6   ar
   105    36    39    1
   106    36    35    1
   107    96    95   ar
   108    39    40    1
   109     9     7   ar
   110   102   103    1
   111    41    40   ar
   112    41    43   ar
   113   105   103   am
   114    93    95   ar
   115     1     2    1
   116     6     7   ar
   117     6     5    1
   118   103   104    2
   119    40    42   ar
   120    43    45   ar
   121     5     2    1
   122     2     3    1
   123    42    44   ar
   124    45    44   ar
   125    45    46    1
   126     4     3    2
   127    32    31    2
   128    31    30    1
   129    30    33    1
   130    30    29    1
   131    33    34    1
   132    18    17    2
   133    12    13    1
   134    17    19   am
   135    17    16    1
   136    16    13    1
   137    13    14    1
   138    23    22    2
   139    20    14   am
   140    20    21    1
   141    25    24    1
   142    25    26    1
   143    14    15    2
   144    24    21    1
   145    22    21    1
   146    28    26   am
   147    26    27    2
