@<TRIPOS>MOLECULE
tmp/3u5jA00.pdb
 141 139 0 0 0
SMALL
GASTEIGER

@<TRIPOS>ATOM
      1  N         22.6690   21.7600    1.0830 N.3    40  TRP40      -0.1228
      2  CA        22.4790   20.4040    1.5820 C.3    40  TRP40       0.1722
      3  C         23.7620   19.5570    1.8090 C.2    40  TRP40       0.2437
      4  O         23.8300   18.8750    2.8040 O.2    40  TRP40      -0.2733
      5  CB        21.4430   19.6260    0.7340 C.3    40  TRP40       0.0563
      6  CG        21.7800   19.4740   -0.7390 C.ar   40  TRP40       0.0003
      7  CD1       21.4670   20.3470   -1.7200 C.ar   40  TRP40       0.0946
      8  CD2       22.4780   18.3950   -1.3780 C.ar   40  TRP40       0.0152
      9  NE1       21.9400   19.9090   -2.9160 N.ar   40  TRP40      -0.2442
     10  CE2       22.5600   18.7090   -2.7400 C.ar   40  TRP40       0.0810
     11  CE3       23.0390   17.1830   -0.9300 C.ar   40  TRP40       0.0012
     12  CZ2       23.1750   17.8660   -3.6670 C.ar   40  TRP40       0.0191
     13  CZ3       23.6540   16.3660   -1.8440 C.ar   40  TRP40       0.0001
     14  CH2       23.7080   16.7000   -3.1980 C.ar   40  TRP40       0.0015
     15  N         24.8010   19.6430    0.9350 N.am   41  PRO41      -0.2718
     16  CA        25.9660   18.8020    1.2200 C.3    41  PRO41       0.1535
     17  C         26.7340   19.2260    2.4580 C.2    41  PRO41       0.2598
     18  O         27.5350   18.4230    2.9730 O.2    41  PRO41      -0.2715
     19  CB        26.8560   18.9950   -0.0120 C.3    41  PRO41       0.0310
     20  CG        25.9490   19.5220   -1.0740 C.3    41  PRO41       0.0237
     21  CD        24.9730   20.3500   -0.3480 C.3    41  PRO41       0.0939
     22  N         26.5060   20.4720    2.8960 N.am   42  PHE42      -0.1974
     23  CA        27.2270   21.1170    3.9920 C.3    42  PHE42       0.1639
     24  C         26.4480   21.1330    5.3020 C.2    42  PHE42       0.2290
     25  O         26.9430   21.6430    6.3060 O.2    42  PHE42      -0.2864
     26  CB        27.6140   22.5560    3.5720 C.3    42  PHE42       0.0560
     27  CG        28.3810   22.6150    2.3200 C.ar   42  PHE42      -0.0200
     28  CD1       29.7710   22.4490    2.3370 C.ar   42  PHE42      -0.0042
     29  CD2       27.7670   22.8490    1.1060 C.ar   42  PHE42      -0.0042
     30  CE1       30.5220   22.4530    1.1530 C.ar   42  PHE42      -0.0003
     31  CE2       28.5190   22.8560   -0.0810 C.ar   42  PHE42      -0.0003
     32  CZ        29.9030   22.6530   -0.0490 C.ar   42  PHE42      -0.0000
     33  N         25.6180   18.7330    7.3520 N.3    44  GLN44      -0.1231
     34  CA        26.0240   17.6910    8.3190 C.3    44  GLN44       0.1683
     35  C         27.4240   17.2600    7.9970 C.2    44  GLN44       0.2434
     36  O         27.9090   17.5250    6.8880 O.2    44  GLN44      -0.2733
     37  CB        25.1010   16.4750    8.2250 C.3    44  GLN44       0.0380
     38  CG        25.0390   15.8470    6.8700 C.3    44  GLN44       0.0905
     39  CD        24.2870   16.6850    5.8280 C.2    44  GLN44       0.2608
     40  OE1       23.1380   17.1030    6.0800 O.2    44  GLN44      -0.2717
     41  NE2       24.9480   16.9760    4.6760 N.am   44  GLN44      -0.0878
     42  N         28.0870   16.5960    8.9440 N.am   45  PRO45      -0.2718
     43  CA        29.4180   16.0800    8.6490 C.3    45  PRO45       0.1535
     44  C         29.4500   15.2140    7.4050 C.2    45  PRO45       0.2598
     45  O         28.4930   14.4850    7.1180 O.2    45  PRO45      -0.2715
     46  CB        29.7540   15.2610    9.9020 C.3    45  PRO45       0.0310
     47  CG        29.0380   15.9860   10.9830 C.3    45  PRO45       0.0237
     48  CD        27.7350   16.4010   10.3550 C.3    45  PRO45       0.0939
     49  N         30.5630   15.2850    6.6790 N.am   46  VAL46      -0.1964
     50  CA        30.7340   14.3630    5.5420 C.3    46  VAL46       0.1727
     51  C         30.6660   12.9120    6.0030 C.2    46  VAL46       0.2616
     52  O         31.4770   12.4740    6.8220 O.2    46  VAL46      -0.2715
     53  CB        32.0410   14.6250    4.8240 C.3    46  VAL46       0.0290
     54  CG1       32.3120   13.5540    3.7240 C.3    46  VAL46       0.0023
     55  CG2       32.0330   16.0160    4.1820 C.3    46  VAL46       0.0023
     56  N         29.7360   12.1540    5.4300 N.am   47  ASP47      -0.1971
     57  CA        29.6180   10.7200    5.6940 C.3    47  ASP47       0.1709
     58  C         30.4110    9.9710    4.6480 C.2    47  ASP47       0.2293
     59  O         29.9060    9.6740    3.5480 O.2    47  ASP47      -0.2864
     60  CB        28.1570   10.2940    5.6760 C.3    47  ASP47       0.1436
     61  CG        27.9620    8.8660    6.0260 C.2    47  ASP47       0.3671
     62  OD1       28.9280    8.0780    6.0150 O.co2  47  ASP47      -0.2456
     63  OD2       26.7850    8.5220    6.2920 O.co2  47  ASP47      -0.2456
     64  N         29.0220    7.9720    1.2420 N.3    51  LEU51      -0.1245
     65  CA        29.4690    8.5910    0.0060 C.3    51  LEU51       0.1561
     66  C         30.6030    7.8440   -0.7160 C.2    51  LEU51       0.2260
     67  O         31.0060    8.2200   -1.8300 O.2    51  LEU51      -0.2867
     68  CB        29.8750   10.0440    0.2650 C.3    51  LEU51       0.0270
     69  CG        28.8030   11.0130    0.7410 C.3    51  LEU51       0.0019
     70  CD1       29.4190   12.3200    1.2260 C.3    51  LEU51       0.0001
     71  CD2       27.7850   11.3100   -0.4140 C.3    51  LEU51       0.0001
     72  N         33.8510    7.6140    0.0510 N.3    53  LEU53      -0.1245
     73  CA        35.0310    8.4750   -0.0250 C.3    53  LEU53       0.1561
     74  C         36.0190    8.0540    1.0670 C.2    53  LEU53       0.2260
     75  O         36.2310    8.7450    2.0490 O.2    53  LEU53      -0.2867
     76  CB        34.6200    9.9110    0.1530 C.3    53  LEU53       0.0270
     77  CG        33.5820   10.4610   -0.8200 C.3    53  LEU53       0.0019
     78  CD1       33.2620   11.9310   -0.4220 C.3    53  LEU53       0.0001
     79  CD2       34.0490   10.3140   -2.2550 C.3    53  LEU53       0.0001
     80  N         38.6340   10.4620    2.4460 N.3    56  TYR56      -0.1241
     81  CA        38.2680   11.8300    2.8260 C.3    56  TYR56       0.1605
     82  C         38.9660   12.2540    4.1110 C.2    56  TYR56       0.2264
     83  O         39.5460   13.3310    4.1850 O.2    56  TYR56      -0.2867
     84  CB        36.7350   11.9850    2.9770 C.3    56  TYR56       0.0534
     85  CG        36.3290   13.4110    3.2310 C.ar   56  TYR56      -0.0201
     86  CD1       36.1870   13.8870    4.5360 C.ar   56  TYR56      -0.0009
     87  CD2       36.1920   14.3170    2.1800 C.ar   56  TYR56      -0.0009
     88  CE1       35.8730   15.1900    4.7870 C.ar   56  TYR56       0.0417
     89  CE2       35.8780   15.6530    2.4310 C.ar   56  TYR56       0.0417
     90  CZ        35.7210   16.0780    3.7300 C.ar   56  TYR56       0.1957
     91  OH        35.4410   17.3990    4.0320 O.3    56  TYR56      -0.2866
     92  N         36.6390   21.6670    1.4370 N.3    95  CYS95      -0.1235
     93  CA        36.0040   21.3150    0.1800 C.3    95  CYS95       0.1677
     94  C         36.9690   21.4730   -0.9970 C.2    95  CYS95       0.2270
     95  O         37.0780   20.6040   -1.8460 O.2    95  CYS95      -0.2867
     96  CB        34.7410   22.1400   -0.0240 C.3    95  CYS95       0.0956
     97  SG        33.7310   21.6130   -1.3820 S.3    95  CYS95      -0.0801
     98  N         39.9140   18.8380   -0.8000 N.3    98  TYR98      -0.1227
     99  CA        39.5820   17.4770   -1.1930 C.3    98  TYR98       0.1736
    100  C         39.2350   17.3010   -2.6820 C.2    98  TYR98       0.2595
    101  O         39.6660   16.3240   -3.3280 O.2    98  TYR98      -0.2718
    102  CB        38.4650   16.9190   -0.2980 C.3    98  TYR98       0.0548
    103  CG        38.1630   15.4890   -0.6150 C.ar   98  TYR98      -0.0200
    104  CD1       39.0260   14.4870   -0.2520 C.ar   98  TYR98      -0.0009
    105  CD2       37.0510   15.1470   -1.3440 C.ar   98  TYR98      -0.0009
    106  CE1       38.7800   13.1820   -0.5690 C.ar   98  TYR98       0.0417
    107  CE2       36.7950   13.8510   -1.6820 C.ar   98  TYR98       0.0417
    108  CZ        37.6580   12.8620   -1.3110 C.ar   98  TYR98       0.1957
    109  OH        37.4250   11.5370   -1.6710 O.3    98  TYR98      -0.2866
    110  N         38.4550   18.2320   -3.2070 N.am   99  ASN99      -0.1974
    111  CA        37.8560   18.1510   -4.5340 C.3    99  ASN99       0.1688
    112  C         38.7000   18.8480   -5.5950 C.2    99  ASN99       0.2292
    113  O         39.7970   19.2710   -5.3130 O.2    99  ASN99      -0.2864
    114  CB        36.4350   18.7150   -4.4460 C.3    99  ASN99       0.1181
    115  CG        35.5560   17.8980   -3.5010 C.2    99  ASN99       0.2629
    116  OD1       35.2690   18.3150   -2.3230 O.2    99  ASN99      -0.2716
    117  ND2       35.1970   16.6910   -3.9450 N.am   99  ASN99      -0.0877
    118  N         31.1760   19.9690   -9.2430 N.3   104  ASP104     -0.1225
    119  CA        29.9090   20.5230   -8.7460 C.3   104  ASP104      0.1805
    120  C         30.0110   20.9680   -7.2900 C.2   104  ASP104      0.2597
    121  O         29.5110   22.0360   -6.9510 O.2   104  ASP104     -0.2718
    122  CB        28.7700   19.5120   -8.8670 C.3   104  ASP104      0.1424
    123  CG        28.2530   19.3590  -10.3020 C.2   104  ASP104      0.3668
    124  OD1       28.4530   20.2890  -11.1500 O.co2 104  ASP104     -0.2456
    125  OD2       27.6180   18.3040  -10.5630 O.co2 104  ASP104     -0.2456
    126  N         30.5940   20.1520   -6.4320 N.am  105  ILE105     -0.1980
    127  CA        30.6260   20.4970   -5.0110 C.3   105  ILE105      0.1595
    128  C         31.4560   21.7730   -4.7510 C.2   105  ILE105      0.2287
    129  O         31.1210   22.5500   -3.8670 O.2   105  ILE105     -0.2864
    130  CB        31.1140   19.3330   -4.1360 C.3   105  ILE105      0.0276
    131  CG1       30.9300   19.6370   -2.6460 C.3   105  ILE105      0.0022
    132  CG2       32.5910   19.0020   -4.4320 C.3   105  ILE105      0.0022
    133  CD1       29.5080   19.8210   -2.1810 C.3   105  ILE105      0.0001
    134  N         29.3510   24.7060   -5.6450 N.3   108  MET108     -0.1245
    135  CA        28.4140   24.9180   -4.5460 C.3   108  MET108      0.1570
    136  C         29.0730   25.6690   -3.4060 C.2   108  MET108      0.2261
    137  O         28.5210   26.6580   -2.9000 O.2   108  MET108     -0.2867
    138  CB        27.8840   23.5770   -4.0890 C.3   108  MET108      0.0387
    139  CG        27.0280   22.9460   -5.1660 C.3   108  MET108      0.0595
    140  SD        26.5820   21.2280   -4.8570 S.3   108  MET108     -0.1393
    141  CE        25.3420   21.6060   -3.8560 C.3   108  MET108      0.0692
@<TRIPOS>BOND
     1   124   123   ar
     2   125   123   ar
     3   123   122    1
     4   118   119    1
     5   122   119    1
     6   119   120    1
     7   120   121    2
     8   120   126   am
     9   126   127    1
    10   134   135    1
    11   112   113    2
    12   112   111    1
    13   139   140    1
    14   139   138    1
    15   127   128    1
    16   127   130    1
    17   140   141    1
    18   128   129    2
    19   135   138    1
    20   135   136    1
    21   111   114    1
    22   111   110    1
    23   114   115    1
    24   132   130    1
    25   130   131    1
    26   117   115   am
    27    12    14   ar
    28    12    10   ar
    29   115   116    2
    30   136   137    2
    31   101   100    2
    32   110   100   am
    33    14    13   ar
    34     9    10   ar
    35     9     7   ar
    36    10     8   ar
    37   100    99    1
    38   131   133    1
    39    79    77    1
    40    95    94    2
    41    13    11   ar
    42    67    66    2
    43     7     6   ar
    44   107   105   ar
    45   107   108   ar
    46   109   108    1
    47    97    96    1
    48     8    11   ar
    49     8     6   ar
    50   105   103   ar
    51   108   106   ar
    52    99    98    1
    53    99   102    1
    54    20    21    1
    55    20    19    1
    56    94    93    1
    57    77    78    1
    58    77    76    1
    59     6     5    1
    60    66    65    1
    61   103   102    1
    62   103   104   ar
    63   106   104   ar
    64    71    69    1
    65    21    15    1
    66    31    32   ar
    67    31    29   ar
    68    32    30   ar
    69    73    72    1
    70    73    76    1
    71    73    74    1
    72    96    93    1
    73    19    16    1
    74    65    68    1
    75    65    64    1
    76    93    92    1
    77    68    69    1
    78     5     2    1
    79    69    70    1
    80    15    16    1
    81    15     3   am
    82    74    75    2
    83     1     2    1
    84    29    27   ar
    85    30    28   ar
    86    16    17    1
    87     2     3    1
    88     3     4    2
    89    87    89   ar
    90    87    85   ar
    91    27    28   ar
    92    27    26    1
    93    89    90   ar
    94    80    81    1
    95    17    22   am
    96    17    18    2
    97    81    84    1
    98    81    82    1
    99    22    23    1
   100    84    85    1
   101    85    86   ar
   102    59    58    2
   103    26    23    1
   104    54    53    1
   105    90    91    1
   106    90    88   ar
   107    23    24    1
   108    82    83    2
   109    55    53    1
   110    86    88   ar
   111    58    57    1
   112    41    39   am
   113    53    50    1
   114    24    25    2
   115    56    57    1
   116    56    51   am
   117    50    51    1
   118    50    49    1
   119    60    57    1
   120    60    61    1
   121    39    40    2
   122    39    38    1
   123    51    52    2
   124    62    61   ar
   125    61    63   ar
   126    49    44   am
   127    38    37    1
   128    36    35    2
   129    45    44    2
   130    33    34    1
   131    44    43    1
   132    35    34    1
   133    35    42   am
   134    37    34    1
   135    43    42    1
   136    43    46    1
   137    42    48    1
   138    46    47    1
   139    48    47    1
