@<TRIPOS>MOLECULE
tmp/3u5kC00.pdb
 143 139 0 0 0
SMALL
GASTEIGER

@<TRIPOS>ATOM
      1  N         72.3960   24.5710   41.4250 N.3    39  TRP39      -0.1228
      2  CA        72.7260   26.0120   41.6150 C.3    39  TRP39       0.1722
      3  C         73.0060   26.8400   40.3450 C.2    39  TRP39       0.2437
      4  O         72.5270   27.9360   40.2670 O.2    39  TRP39      -0.2733
      5  CB        73.8160   26.2490   42.6980 C.3    39  TRP39       0.0563
      6  CG        75.1300   25.6040   42.4790 C.ar   39  TRP39       0.0003
      7  CD1       75.5010   24.3560   42.8920 C.ar   39  TRP39       0.0946
      8  CD2       76.2690   26.1550   41.7880 C.ar   39  TRP39       0.0152
      9  NE1       76.8000   24.0960   42.5000 N.ar   39  TRP39      -0.2442
     10  CE2       77.2900   25.1810   41.8220 C.ar   39  TRP39       0.0810
     11  CE3       76.5230   27.3810   41.1410 C.ar   39  TRP39       0.0012
     12  CZ2       78.5520   25.3920   41.2480 C.ar   39  TRP39       0.0191
     13  CZ3       77.7660   27.5800   40.5610 C.ar   39  TRP39       0.0001
     14  CH2       78.7720   26.5920   40.6240 C.ar   39  TRP39       0.0015
     15  N         73.7000   26.2890   39.3240 N.am   40  PRO40      -0.2718
     16  CA        73.8940   27.1410   38.1330 C.3    40  PRO40       0.1535
     17  C         72.6350   27.4270   37.3100 C.2    40  PRO40       0.2598
     18  O         72.6500   28.4040   36.5530 O.2    40  PRO40      -0.2715
     19  CB        74.9250   26.3700   37.2810 C.3    40  PRO40       0.0310
     20  CG        75.5370   25.3390   38.2340 C.3    40  PRO40       0.0237
     21  CD        74.3850   24.9910   39.1830 C.3    40  PRO40       0.0939
     22  N         71.5710   26.6270   37.5150 N.am   41  PHE41      -0.1974
     23  CA        70.3420   26.5980   36.6700 C.3    41  PHE41       0.1639
     24  C         69.0700   27.1610   37.2940 C.2    41  PHE41       0.2290
     25  O         68.0440   27.3300   36.6030 O.2    41  PHE41      -0.2864
     26  CB        70.0700   25.1600   36.1440 C.3    41  PHE41       0.0560
     27  CG        71.2850   24.5350   35.4820 C.ar   41  PHE41      -0.0200
     28  CD1       71.5600   24.7260   34.1190 C.ar   41  PHE41      -0.0042
     29  CD2       72.1990   23.8050   36.2470 C.ar   41  PHE41      -0.0042
     30  CE1       72.7100   24.1350   33.5280 C.ar   41  PHE41      -0.0003
     31  CE2       73.3350   23.2290   35.6770 C.ar   41  PHE41      -0.0003
     32  CZ        73.6080   23.3920   34.3210 C.ar   41  PHE41      -0.0000
     33  N         68.3990   30.2180   38.1620 N.3    43  GLN43      -0.1245
     34  CA        68.0770   31.5630   37.7270 C.3    43  GLN43       0.1566
     35  C         68.6010   31.7870   36.3370 C.2    43  GLN43       0.2260
     36  O         69.5080   31.0480   35.9240 O.2    43  GLN43      -0.2867
     37  CB        68.6000   32.6090   38.7360 C.3    43  GLN43       0.0367
     38  CG        70.1250   32.8330   38.7340 C.3    43  GLN43       0.0905
     39  CD        70.9330   31.9250   39.6640 C.2    43  GLN43       0.2608
     40  OE1       70.4580   30.8910   40.1370 O.2    43  GLN43      -0.2717
     41  NE2       72.1870   32.3330   39.9360 N.am   43  GLN43      -0.0878
     42  N         70.7870   33.0280   33.2950 N.3    45  VAL45      -0.1231
     43  CA        72.2190   33.1740   33.3050 C.3    45  VAL45       0.1692
     44  C         72.6440   34.6320   33.4670 C.2    45  VAL45       0.2592
     45  O         72.2700   35.5020   32.6580 O.2    45  VAL45      -0.2718
     46  CB        72.8250   32.6000   32.0490 C.3    45  VAL45       0.0266
     47  CG1       74.2470   33.1380   31.8700 C.3    45  VAL45       0.0020
     48  CG2       72.8590   31.0410   32.1350 C.3    45  VAL45       0.0020
     49  N         73.4240   34.8750   34.5200 N.am   46  ASP46      -0.1974
     50  CA        73.9580   36.1850   34.8260 C.3    46  ASP46       0.1709
     51  C         75.3410   36.4690   34.1980 C.2    46  ASP46       0.2293
     52  O         76.3850   36.2730   34.8250 O.2    46  ASP46      -0.2864
     53  CB        73.9710   36.4360   36.3280 C.3    46  ASP46       0.1436
     54  CG        74.2940   37.8570   36.6670 C.2    46  ASP46       0.3671
     55  OD1       74.7350   38.6080   35.7580 O.co2  46  ASP46      -0.2456
     56  OD2       74.0850   38.2530   37.8490 O.co2  46  ASP46      -0.2456
     57  N         77.7460   39.0030   36.3100 N.3    49  LYS49      -0.1231
     58  CA        78.3130   38.2510   37.4370 C.3    49  LYS49       0.1693
     59  C         79.2850   37.1790   36.9890 C.2    49  LYS49       0.2591
     60  O         80.3620   37.0240   37.5780 O.2    49  LYS49      -0.2718
     61  CB        77.2060   37.5890   38.2660 C.3    49  LYS49       0.0285
     62  CG        77.7440   36.9360   39.5310 C.3    49  LYS49       0.0035
     63  CD        76.6110   36.3940   40.4060 C.3    49  LYS49       0.0206
     64  CE        75.9650   37.5060   41.2490 C.3    49  LYS49       0.1093
     65  NZ        76.8560   37.9280   42.3740 N.3    49  LYS49      -0.1314
     66  N         78.9290   36.4620   35.9280 N.am   50  LEU50      -0.1980
     67  CA        79.7500   35.3550   35.4420 C.3    50  LEU50       0.1596
     68  C         80.8050   35.7630   34.4040 C.2    50  LEU50       0.2287
     69  O         81.5870   34.9130   33.9690 O.2    50  LEU50      -0.2864
     70  CB        78.8600   34.2560   34.8620 C.3    50  LEU50       0.0297
     71  CG        77.8100   33.6770   35.7980 C.3    50  LEU50       0.0022
     72  CD1       76.7130   32.9670   35.0060 C.3    50  LEU50       0.0001
     73  CD2       78.4320   32.7540   36.8670 C.3    50  LEU50       0.0001
     74  N         80.5850   36.8310   31.1160 N.3    52  LEU52      -0.1245
     75  CA        80.3400   36.1430   29.8530 C.3    52  LEU52       0.1561
     76  C         79.7370   37.0930   28.8010 C.2    52  LEU52       0.2260
     77  O         78.5580   36.9670   28.4440 O.2    52  LEU52      -0.2867
     78  CB        79.3930   34.9520   30.0930 C.3    52  LEU52       0.0270
     79  CG        79.5940   33.9500   31.2580 C.3    52  LEU52       0.0019
     80  CD1       78.4080   32.9380   31.2720 C.3    52  LEU52       0.0001
     81  CD2       80.8870   33.1860   31.1330 C.3    52  LEU52       0.0001
     82  N         77.6140   35.5130   25.9740 N.3    55  TYR55      -0.1241
     83  CA        76.5060   34.5590   26.2420 C.3    55  TYR55       0.1605
     84  C         75.1940   34.8260   25.4780 C.2    55  TYR55       0.2264
     85  O         74.5860   33.8880   24.8950 O.2    55  TYR55      -0.2867
     86  CB        76.2230   34.3670   27.7290 C.3    55  TYR55       0.0534
     87  CG        75.1830   33.2440   27.9230 C.ar   55  TYR55      -0.0201
     88  CD1       75.5540   31.8880   27.8670 C.ar   55  TYR55      -0.0009
     89  CD2       73.8400   33.5300   28.0750 C.ar   55  TYR55      -0.0009
     90  CE1       74.6590   30.9000   27.9640 C.ar   55  TYR55       0.0417
     91  CE2       72.9070   32.5100   28.2140 C.ar   55  TYR55       0.0417
     92  CZ        73.3200   31.1930   28.1610 C.ar   55  TYR55       0.1957
     93  OH        72.4140   30.1460   28.2690 O.3    55  TYR55      -0.2866
     94  N         73.0820   25.2160   27.5350 N.3    94  CYS94      -0.1235
     95  CA        74.3260   24.8310   28.2370 C.3    94  CYS94       0.1677
     96  C         75.3020   24.0240   27.3520 C.2    94  CYS94       0.2270
     97  O         76.5000   24.3040   27.2770 O.2    94  CYS94      -0.2867
     98  CB        73.9740   24.0140   29.4760 C.3    94  CYS94       0.0956
     99  SG        75.3220   23.7720   30.6020 S.3    94  CYS94      -0.0801
    100  N         76.8140   26.5170   24.5200 N.3    97  TYR97      -0.1227
    101  CA        77.7050   27.5570   24.9360 C.3    97  TYR97       0.1736
    102  C         79.0530   27.0340   25.4050 C.2    97  TYR97       0.2595
    103  O         80.1010   27.6210   25.1120 O.2    97  TYR97      -0.2718
    104  CB        77.0420   28.3790   26.0650 C.3    97  TYR97       0.0548
    105  CG        77.8890   29.5440   26.4730 C.ar   97  TYR97      -0.0200
    106  CD1       77.9620   30.6770   25.6940 C.ar   97  TYR97      -0.0009
    107  CD2       78.6630   29.4860   27.6350 C.ar   97  TYR97      -0.0009
    108  CE1       78.7470   31.7360   26.0710 C.ar   97  TYR97       0.0417
    109  CE2       79.4500   30.5050   28.0060 C.ar   97  TYR97       0.0417
    110  CZ        79.5060   31.6410   27.2290 C.ar   97  TYR97       0.1957
    111  OH        80.3210   32.6880   27.6160 O.3    97  TYR97      -0.2866
    112  N         78.9980   25.9150   26.1200 N.am   98  ASN98      -0.1974
    113  CA        80.1320   25.3570   26.8350 C.3    98  ASN98       0.1688
    114  C         80.9040   24.2650   26.0880 C.2    98  ASN98       0.2292
    115  O         80.3360   23.5430   25.2820 O.2    98  ASN98      -0.2864
    116  CB        79.6630   24.8280   28.1790 C.3    98  ASN98       0.1181
    117  CG        79.0810   25.9170   29.0530 C.2    98  ASN98       0.2629
    118  OD1       79.8180   26.7160   29.6580 O.2    98  ASN98      -0.2716
    119  ND2       77.7600   25.9470   29.1470 N.am   98  ASN98      -0.0877
    120  N         82.7980   21.4050   33.5360 N.3   103  ASP103     -0.1225
    121  CA        82.0600   20.8810   34.6750 C.3   103  ASP103      0.1805
    122  C         80.5570   21.1330   34.5080 C.2   103  ASP103      0.2597
    123  O         79.7200   20.2330   34.7220 O.2   103  ASP103     -0.2718
    124  CB        82.5920   21.5090   35.9580 C.3   103  ASP103      0.1424
    125  CG        83.9330   20.9470   36.3520 C.2   103  ASP103      0.3668
    126  OD1       84.2720   19.8470   35.8550 O.co2 103  ASP103     -0.2456
    127  OD2       84.6100   21.5760   37.1890 O.co2 103  ASP103     -0.2456
    128  N         80.2080   22.3620   34.1380 N.am  104  ILE104     -0.1980
    129  CA        78.8170   22.7500   34.0400 C.3   104  ILE104      0.1595
    130  C         78.0840   21.8230   33.0760 C.2   104  ILE104      0.2287
    131  O         76.9060   21.5430   33.2860 O.2   104  ILE104     -0.2864
    132  CB        78.6860   24.2570   33.6510 C.3   104  ILE104      0.0276
    133  CG1       77.2320   24.7380   33.7210 C.3   104  ILE104      0.0022
    134  CG2       79.2510   24.5130   32.2550 C.3   104  ILE104      0.0022
    135  CD1       76.7020   24.8630   35.1010 C.3   104  ILE104      0.0001
    136  N         77.2650   18.4440   34.8160 N.3   107  MET107     -0.1196
    137  CA        76.1430   18.8060   35.7030 C.3   107  MET107      0.1786
    138  C         74.7940   18.8030   34.9420 C.2   107  MET107      0.2306
    139  O         73.8090   18.1480   35.3410 O.2   107  MET107     -0.2863
    140  CB        76.3820   20.1960   36.3180 C.2   107  MET107      0.0070
    141  CG        77.5770   20.3280   37.2450 C.2   107  MET107      0.0282
    142  SD        78.1310   22.0150   37.5680 S.3   107  MET107     -0.1125
    143  CE        77.5190   22.3260   39.2360 C.3   107  MET107      0.0742
@<TRIPOS>BOND
     1   100   101    1
     2    85    84    2
     3   101   102    1
     4   101   104    1
     5   103   102    2
     6   115   114    2
     7   102   112   am
     8    84    83    1
     9   106   108   ar
    10   106   105   ar
    11    82    83    1
    12   104   105    1
    13   108   110   ar
    14   114   113    1
    15   112   113    1
    16    83    86    1
    17   105   107   ar
    18   113   116    1
    19   110   111    1
    20   110   109   ar
    21    97    96    2
    22    96    95    1
    23    94    95    1
    24   107   109   ar
    25    86    87    1
    26    88    87   ar
    27    88    90   ar
    28    87    89   ar
    29    90    92   ar
    30    89    91   ar
    31    92    91   ar
    32    92    93    1
    33   116   117    1
    34    95    98    1
    35    77    76    2
    36    76    75    1
    37   117   119   am
    38   117   118    2
    39    98    99    1
    40    75    78    1
    41    75    74    1
    42    78    79    1
    43    81    79    1
    44    79    80    1
    45    47    46    1
    46    46    48    1
    47    46    43    1
    48   134   132    1
    49    45    44    2
    50   130   131    2
    51   130   129    1
    52    42    43    1
    53    43    44    1
    54    44    49   am
    55    30    28   ar
    56    30    32   ar
    57   120   121    1
    58   132   133    1
    59   132   129    1
    60   133   135    1
    61    69    68    2
    62   129   128    1
    63    28    27   ar
    64   128   122   am
    65    51    52    2
    66    51    50    1
    67    32    31   ar
    68    68    67    1
    69   122   121    1
    70   122   123    2
    71    49    50    1
    72   121   124    1
    73   136   137    1
    74    50    53    1
    75    70    67    1
    76    70    71    1
    77   138   139    2
    78   138   137    1
    79    72    71    1
    80    67    66    1
    81    27    26    1
    82    27    29   ar
    83    31    29   ar
    84   137   140    1
    85    55    54   ar
    86    71    73    1
    87   126   125   ar
    88    36    35    2
    89    66    59   am
    90   124   125    1
    91    26    23    1
    92    57    58    1
    93   140   141    2
    94    53    54    1
    95    35    34    1
    96   125   127   ar
    97    18    17    2
    98    25    24    2
    99    54    56   ar
   100    23    24    1
   101    23    22    1
   102    59    58    1
   103    59    60    2
   104   141   142    1
   105    19    16    1
   106    19    20    1
   107    17    22   am
   108    17    16    1
   109    58    61    1
   110   142   143    1
   111    34    33    1
   112    34    37    1
   113    16    15    1
   114    20    21    1
   115    61    62    1
   116    38    37    1
   117    38    39    1
   118    21    15    1
   119    15     3   am
   120    62    63    1
   121    39    41   am
   122    39    40    2
   123     4     3    2
   124     3     2    1
   125    63    64    1
   126    13    14   ar
   127    13    11   ar
   128    14    12   ar
   129    11     8   ar
   130    12    10   ar
   131    64    65    1
   132     1     2    1
   133     2     5    1
   134     8    10   ar
   135     8     6   ar
   136    10     9   ar
   137     6     5    1
   138     6     7   ar
   139     9     7   ar
