@<TRIPOS>MOLECULE
tmp/3u5lA00.pdb
 133 131 0 0 0
SMALL
GASTEIGER

@<TRIPOS>ATOM
      1  N         22.6280   21.7490    1.0920 N.3    40  TRP40      -0.1228
      2  CA        22.4390   20.3840    1.5600 C.3    40  TRP40       0.1722
      3  C         23.7160   19.5460    1.8010 C.2    40  TRP40       0.2437
      4  O         23.7770   18.8500    2.8180 O.2    40  TRP40      -0.2733
      5  CB        21.3890   19.6260    0.7320 C.3    40  TRP40       0.0563
      6  CG        21.6880   19.5200   -0.7320 C.ar   40  TRP40       0.0003
      7  CD1       21.3870   20.4140   -1.7180 C.ar   40  TRP40       0.0946
      8  CD2       22.3680   18.4310   -1.3990 C.ar   40  TRP40       0.0152
      9  NE1       21.8390   19.9670   -2.9300 N.ar   40  TRP40      -0.2442
     10  CE2       22.4470   18.7570   -2.7690 C.ar   40  TRP40       0.0810
     11  CE3       22.9480   17.2230   -0.9630 C.ar   40  TRP40       0.0012
     12  CZ2       23.0610   17.9240   -3.7020 C.ar   40  TRP40       0.0191
     13  CZ3       23.5520   16.4070   -1.8970 C.ar   40  TRP40       0.0001
     14  CH2       23.6170   16.7620   -3.2380 C.ar   40  TRP40       0.0015
     15  N         24.7330   19.6120    0.9170 N.am   41  PRO41      -0.2718
     16  CA        25.9390   18.8010    1.2070 C.3    41  PRO41       0.1535
     17  C         26.6920   19.2110    2.4650 C.2    41  PRO41       0.2598
     18  O         27.5130   18.4340    2.9610 O.2    41  PRO41      -0.2715
     19  CB        26.8100   19.0070   -0.0400 C.3    41  PRO41       0.0310
     20  CG        25.8680   19.5100   -1.0990 C.3    41  PRO41       0.0237
     21  CD        24.9040   20.3620   -0.3500 C.3    41  PRO41       0.0939
     22  N         26.4520   20.4400    2.9200 N.am   42  PHE42      -0.1974
     23  CA        27.1820   21.0650    3.9950 C.3    42  PHE42       0.1639
     24  C         26.4050   21.0640    5.3050 C.2    42  PHE42       0.2290
     25  O         26.8910   21.5890    6.2990 O.2    42  PHE42      -0.2864
     26  CB        27.5910   22.4910    3.6080 C.3    42  PHE42       0.0560
     27  CG        28.3850   22.5590    2.3400 C.ar   42  PHE42      -0.0200
     28  CD1       29.7750   22.3800    2.3700 C.ar   42  PHE42      -0.0042
     29  CD2       27.7870   22.8020    1.1100 C.ar   42  PHE42      -0.0042
     30  CE1       30.5160   22.4210    1.1990 C.ar   42  PHE42      -0.0003
     31  CE2       28.5530   22.8400   -0.0500 C.ar   42  PHE42      -0.0003
     32  CZ        29.9040   22.6460   -0.0010 C.ar   42  PHE42      -0.0000
     33  N         25.6370   18.6610    7.3370 N.3    44  GLN44      -0.1231
     34  CA        26.0090   17.6190    8.3080 C.3    44  GLN44       0.1683
     35  C         27.4210   17.2010    7.9910 C.2    44  GLN44       0.2434
     36  O         27.9080   17.4440    6.8750 O.2    44  GLN44      -0.2733
     37  CB        25.0770   16.4070    8.2240 C.3    44  GLN44       0.0380
     38  CG        25.0160   15.7650    6.8560 C.3    44  GLN44       0.0905
     39  CD        24.2930   16.6550    5.8220 C.2    44  GLN44       0.2608
     40  OE1       23.1570   17.0800    6.0550 O.2    44  GLN44      -0.2717
     41  NE2       24.9470   16.9300    4.6750 N.am   44  GLN44      -0.0878
     42  N         28.1020   16.5500    8.9470 N.am   45  PRO45      -0.2718
     43  CA        29.4360   16.0210    8.6650 C.3    45  PRO45       0.1535
     44  C         29.4440   15.1240    7.4230 C.2    45  PRO45       0.2598
     45  O         28.4940   14.3860    7.1630 O.2    45  PRO45      -0.2715
     46  CB        29.7500   15.2090    9.9210 C.3    45  PRO45       0.0310
     47  CG        29.0160   15.9330   10.9920 C.3    45  PRO45       0.0237
     48  CD        27.6980   16.3010   10.3460 C.3    45  PRO45       0.0939
     49  N         30.5470   15.1610    6.6700 N.am   46  VAL46      -0.1978
     50  CA        30.6920   14.2620    5.5270 C.3    46  VAL46       0.1596
     51  C         30.6230   12.8020    6.0230 C.2    46  VAL46       0.2287
     52  O         31.4260   12.3870    6.8740 O.2    46  VAL46      -0.2864
     53  CB        32.0330   14.5200    4.8200 C.3    46  VAL46       0.0276
     54  CG1       32.3040   13.4360    3.7640 C.3    46  VAL46       0.0022
     55  CG2       32.0210   15.9220    4.1740 C.3    46  VAL46       0.0022
     56  N         28.8900    7.9350    1.2610 N.3    51  LEU51      -0.1245
     57  CA        29.3220    8.5910    0.0290 C.3    51  LEU51       0.1561
     58  C         30.4570    7.8730   -0.6960 C.2    51  LEU51       0.2260
     59  O         30.8290    8.2860   -1.7810 O.2    51  LEU51      -0.2867
     60  CB        29.7340   10.0420    0.3140 C.3    51  LEU51       0.0270
     61  CG        28.6130   10.9730    0.7930 C.3    51  LEU51       0.0019
     62  CD1       29.1840   12.2850    1.3820 C.3    51  LEU51       0.0001
     63  CD2       27.6290   11.2710   -0.3530 C.3    51  LEU51       0.0001
     64  N         33.7520    7.5860    0.0420 N.3    53  LEU53      -0.1245
     65  CA        34.9230    8.4730    0.0000 C.3    53  LEU53       0.1561
     66  C         35.9180    7.9780    1.0340 C.2    53  LEU53       0.2260
     67  O         36.1520    8.6170    2.0630 O.2    53  LEU53      -0.2867
     68  CB        34.5060    9.9030    0.3430 C.3    53  LEU53       0.0270
     69  CG        33.3940   10.5460   -0.4630 C.3    53  LEU53       0.0019
     70  CD1       32.9970   11.9040    0.1350 C.3    53  LEU53       0.0001
     71  CD2       33.7860   10.6590   -1.9080 C.3    53  LEU53       0.0001
     72  N         38.5750   10.3700    2.3550 N.3    56  TYR56      -0.1241
     73  CA        38.2170   11.7250    2.7790 C.3    56  TYR56       0.1605
     74  C         38.9260   12.1380    4.0730 C.2    56  TYR56       0.2264
     75  O         39.5250   13.1950    4.1500 O.2    56  TYR56      -0.2867
     76  CB        36.6990   11.8900    2.9360 C.3    56  TYR56       0.0534
     77  CG        36.3040   13.3270    3.2120 C.ar   56  TYR56      -0.0201
     78  CD1       36.1510   13.8000    4.5100 C.ar   56  TYR56      -0.0009
     79  CD2       36.1620   14.2330    2.1720 C.ar   56  TYR56      -0.0009
     80  CE1       35.8410   15.1170    4.7670 C.ar   56  TYR56       0.0417
     81  CE2       35.8410   15.5720    2.4130 C.ar   56  TYR56       0.0417
     82  CZ        35.6940   16.0070    3.7220 C.ar   56  TYR56       0.1957
     83  OH        35.4170   17.3270    3.9880 O.3    56  TYR56      -0.2866
     84  N         36.6380   21.5740    1.3890 N.3    95  CYS95      -0.1235
     85  CA        35.9920   21.2260    0.1410 C.3    95  CYS95       0.1677
     86  C         36.9490   21.4300   -1.0360 C.2    95  CYS95       0.2270
     87  O         37.0560   20.5890   -1.9280 O.2    95  CYS95      -0.2867
     88  CB        34.7230   22.0560   -0.0420 C.3    95  CYS95       0.0956
     89  SG        33.7040   21.5640   -1.4020 S.3    95  CYS95      -0.0801
     90  N         39.8980   18.7280   -0.8960 N.3    98  TYR98      -0.1227
     91  CA        39.5690   17.3540   -1.2840 C.3    98  TYR98       0.1736
     92  C         39.1870   17.2380   -2.7760 C.2    98  TYR98       0.2595
     93  O         39.5410   16.2660   -3.4370 O.2    98  TYR98      -0.2718
     94  CB        38.4300   16.8070   -0.4070 C.3    98  TYR98       0.0548
     95  CG        38.1270   15.3600   -0.7030 C.ar   98  TYR98      -0.0200
     96  CD1       38.9790   14.3470   -0.2790 C.ar   98  TYR98      -0.0009
     97  CD2       37.0350   15.0060   -1.4780 C.ar   98  TYR98      -0.0009
     98  CE1       38.7340   13.0420   -0.5880 C.ar   98  TYR98       0.0417
     99  CE2       36.7850   13.7090   -1.8040 C.ar   98  TYR98       0.0417
    100  CZ        37.6340   12.7120   -1.3670 C.ar   98  TYR98       0.1957
    101  OH        37.3600   11.4060   -1.7060 O.3    98  TYR98      -0.2866
    102  N         38.4500   18.2240   -3.2780 N.am   99  ASN99      -0.1974
    103  CA        37.8600   18.1770   -4.6180 C.3    99  ASN99       0.1688
    104  C         38.7110   18.9040   -5.6530 C.2    99  ASN99       0.2292
    105  O         39.8170   19.3060   -5.3510 O.2    99  ASN99      -0.2864
    106  CB        36.4140   18.6840   -4.5140 C.3    99  ASN99       0.1181
    107  CG        35.5750   17.7820   -3.6260 C.2    99  ASN99       0.2629
    108  OD1       35.2200   16.6670   -4.0150 O.2    99  ASN99      -0.2716
    109  ND2       35.2600   18.2530   -2.4190 N.am   99  ASN99      -0.0877
    110  N         31.0790   19.9600   -9.2420 N.3   104  ASP104     -0.1225
    111  CA        29.7980   20.4570   -8.7550 C.3   104  ASP104      0.1805
    112  C         29.8890   20.9100   -7.2910 C.2   104  ASP104      0.2597
    113  O         29.3770   21.9710   -6.9440 O.2   104  ASP104     -0.2718
    114  CB        28.6880   19.4030   -8.9060 C.3   104  ASP104      0.1424
    115  CG        28.1640   19.3000  -10.3270 C.2   104  ASP104      0.3668
    116  OD1       28.3060   20.2860  -11.0870 O.co2 104  ASP104     -0.2456
    117  OD2       27.6330   18.2190  -10.6620 O.co2 104  ASP104     -0.2456
    118  N         30.5330   20.1190   -6.4340 N.am  105  ILE105     -0.1980
    119  CA        30.5650   20.4700   -5.0200 C.3   105  ILE105      0.1595
    120  C         31.3680   21.7540   -4.7880 C.2   105  ILE105      0.2287
    121  O         31.0660   22.5310   -3.8840 O.2   105  ILE105     -0.2864
    122  CB        31.0630   19.3050   -4.1400 C.3   105  ILE105      0.0276
    123  CG1       30.9080   19.6310   -2.6490 C.3   105  ILE105      0.0022
    124  CG2       32.4990   18.9410   -4.4550 C.3   105  ILE105      0.0022
    125  CD1       29.4880   19.8050   -2.1870 C.3   105  ILE105      0.0001
    126  N         29.2950   24.7000   -5.6860 N.3   108  MET108     -0.1245
    127  CA        28.3640   24.9030   -4.5820 C.3   108  MET108      0.1570
    128  C         29.0440   25.6550   -3.4360 C.2   108  MET108      0.2261
    129  O         28.5290   26.6450   -2.9440 O.2   108  MET108     -0.2867
    130  CB        27.8260   23.5730   -4.1040 C.3   108  MET108      0.0387
    131  CG        26.9090   22.9340   -5.1380 C.3   108  MET108      0.0595
    132  SD        26.5180   21.2120   -4.8450 S.3   108  MET108     -0.1393
    133  CE        25.3310   21.6360   -3.8740 C.3   108  MET108      0.0692
@<TRIPOS>BOND
     1   116   115   ar
     2   117   115   ar
     3   115   114    1
     4   110   111    1
     5   114   111    1
     6   111   112    1
     7   112   113    2
     8   112   118   am
     9   118   119    1
    10   126   127    1
    11   104   105    2
    12   104   103    1
    13   131   132    1
    14   131   130    1
    15   119   120    1
    16   119   122    1
    17   132   133    1
    18   120   121    2
    19   103   106    1
    20   103   102    1
    21   127   130    1
    22   127   128    1
    23   106   107    1
    24   124   122    1
    25   122   123    1
    26   108   107    2
    27    12    14   ar
    28    12    10   ar
    29   107   109   am
    30    93    92    2
    31   128   129    2
    32   102    92   am
    33    14    13   ar
    34     9    10   ar
    35     9     7   ar
    36    92    91    1
    37    10     8   ar
    38   123   125    1
    39    87    86    2
    40    71    69    1
    41    13    11   ar
    42    99    97   ar
    43    99   100   ar
    44    59    58    2
    45     7     6   ar
    46   101   100    1
    47    97    95   ar
    48    89    88    1
    49     8    11   ar
    50     8     6   ar
    51   100    98   ar
    52    91    90    1
    53    91    94    1
    54    20    21    1
    55    20    19    1
    56    86    85    1
    57     6     5    1
    58    95    94    1
    59    95    96   ar
    60    58    57    1
    61    98    96   ar
    62    69    70    1
    63    69    68    1
    64    63    61    1
    65    21    15    1
    66    31    32   ar
    67    31    29   ar
    68    88    85    1
    69    19    16    1
    70    32    30   ar
    71    65    64    1
    72    65    68    1
    73    65    66    1
    74    57    60    1
    75    57    56    1
    76    85    84    1
    77    60    61    1
    78     5     2    1
    79    61    62    1
    80    15    16    1
    81    15     3   am
    82    66    67    2
    83     1     2    1
    84    29    27   ar
    85    30    28   ar
    86    16    17    1
    87     2     3    1
    88     3     4    2
    89    79    81   ar
    90    79    77   ar
    91    27    28   ar
    92    27    26    1
    93    72    73    1
    94    81    82   ar
    95    17    22   am
    96    17    18    2
    97    73    76    1
    98    73    74    1
    99    22    23    1
   100    76    77    1
   101    77    78   ar
   102    26    23    1
   103    82    83    1
   104    82    80   ar
   105    54    53    1
   106    23    24    1
   107    74    75    2
   108    55    53    1
   109    78    80   ar
   110    41    39   am
   111    53    50    1
   112    24    25    2
   113    50    51    1
   114    50    49    1
   115    39    40    2
   116    39    38    1
   117    51    52    2
   118    49    44   am
   119    38    37    1
   120    36    35    2
   121    45    44    2
   122    33    34    1
   123    44    43    1
   124    35    34    1
   125    35    42   am
   126    37    34    1
   127    43    42    1
   128    43    46    1
   129    42    48    1
   130    46    47    1
   131    48    47    1
