@<TRIPOS>MOLECULE
tmp/3u5yA00.pdb
 220 219 0 0 0
SMALL
GASTEIGER

@<TRIPOS>ATOM
      1  N         41.3040   50.6020   28.7030 N.3    24  GLN24      -0.1245
      2  CA        41.3370   49.2090   28.2730 C.3    24  GLN24       0.1566
      3  C         41.5740   49.0350   26.7660 C.2    24  GLN24       0.2260
      4  O         42.1930   48.0450   26.3810 O.2    24  GLN24      -0.2867
      5  CB        40.0400   48.4970   28.6660 C.3    24  GLN24       0.0367
      6  CG        39.7250   48.6750   30.1390 C.3    24  GLN24       0.0905
      7  CD        38.5170   47.8820   30.5490 C.2    24  GLN24       0.2608
      8  OE1       37.4060   48.4210   30.6330 O.2    24  GLN24      -0.2717
      9  NE2       38.7090   46.5680   30.7260 N.am   24  GLN24      -0.0878
     10  N         35.9340   56.4710   33.9100 N.3   128  HIS128     -0.1226
     11  CA        36.0750   55.0490   34.1650 C.3   128  HIS128      0.1752
     12  C         37.4520   54.7740   34.7730 C.2   128  HIS128      0.2596
     13  O         38.2770   54.0990   34.1560 O.2   128  HIS128     -0.2718
     14  CB        35.8920   54.2720   32.8560 C.3   128  HIS128      0.0759
     15  CG        35.5310   52.8260   33.0390 C.ar  128  HIS128      0.0818
     16  ND1       36.3890   51.9050   33.6090 N.ar  128  HIS128     -0.2268
     17  CD2       34.4110   52.1400   32.7080 C.ar  128  HIS128      0.1154
     18  CE1       35.8110   50.7160   33.6260 C.ar  128  HIS128      0.1986
     19  NE2       34.6120   50.8310   33.0830 N.ar  128  HIS128     -0.2212
     20  N         37.6890   55.3430   35.9740 N.am  129  TRP129     -0.1976
     21  CA        38.8290   55.0360   36.8760 C.3   129  TRP129      0.1640
     22  C         40.1140   55.7090   36.5260 C.2   129  TRP129      0.2290
     23  O         41.1250   55.5510   37.2450 O.2   129  TRP129     -0.2864
     24  CB        39.1250   53.5230   37.0070 C.3   129  TRP129      0.0576
     25  CG        37.9260   52.6560   37.1950 C.ar  129  TRP129      0.0006
     26  CD1       36.6810   53.0610   37.5150 C.ar  129  TRP129      0.0946
     27  CD2       37.8880   51.2240   37.1030 C.ar  129  TRP129      0.0152
     28  NE1       35.8370   51.9640   37.6030 N.ar  129  TRP129     -0.2442
     29  CE2       36.5720   50.8250   37.3630 C.ar  129  TRP129      0.0810
     30  CE3       38.8500   50.2420   36.8080 C.ar  129  TRP129      0.0012
     31  CZ2       36.1690   49.4860   37.3070 C.ar  129  TRP129      0.0191
     32  CZ3       38.4630   48.9150   36.7720 C.ar  129  TRP129      0.0001
     33  CH2       37.1240   48.5500   37.0090 C.ar  129  TRP129      0.0015
     34  N         30.6430   52.2480   37.1360 N.3   174  GLN174     -0.1245
     35  CA        31.1650   51.3540   38.1730 C.3   174  GLN174      0.1566
     36  C         31.9940   52.0200   39.2650 C.2   174  GLN174      0.2260
     37  O         33.1040   51.5970   39.5600 O.2   174  GLN174     -0.2867
     38  CB        32.0040   50.2720   37.5120 C.3   174  GLN174      0.0367
     39  CG        31.1360   49.2710   36.8380 C.3   174  GLN174      0.0905
     40  CD        31.6780   47.8960   36.9950 C.2   174  GLN174      0.2608
     41  OE1       32.9030   47.7070   37.1240 O.2   174  GLN174     -0.2717
     42  NE2       30.7760   46.9030   37.0060 N.am  174  GLN174     -0.0878
     43  N         31.6140   51.8730   42.4080 N.3   176  TRP176     -0.1227
     44  CA        31.7830   50.8650   43.4610 C.3   176  TRP176      0.1737
     45  C         33.1370   50.2130   43.3630 C.2   176  TRP176      0.2596
     46  O         33.8840   50.1100   44.3510 O.2   176  TRP176     -0.2718
     47  CB        30.6660   49.7940   43.4110 C.3   176  TRP176      0.0564
     48  CG        30.8290   48.7740   44.5010 C.ar  176  TRP176      0.0003
     49  CD1       30.3750   48.8700   45.8080 C.ar  176  TRP176      0.0946
     50  CD2       31.5330   47.5250   44.4180 C.ar  176  TRP176      0.0152
     51  NE1       30.7510   47.7560   46.5200 N.ar  176  TRP176     -0.2442
     52  CE2       31.4470   46.9080   45.6970 C.ar  176  TRP176      0.0810
     53  CE3       32.2020   46.8540   43.3850 C.ar  176  TRP176      0.0012
     54  CZ2       32.0190   45.6670   45.9700 C.ar  176  TRP176      0.0191
     55  CZ3       32.7620   45.6220   43.6520 C.ar  176  TRP176      0.0001
     56  CH2       32.6700   45.0360   44.9450 C.ar  176  TRP176      0.0015
     57  N         33.4940   49.8010   42.1590 N.am  177  THR177     -0.1953
     58  CA        34.6900   48.9850   42.0030 C.3   177  THR177      0.1897
     59  C         35.8960   49.8350   42.2240 C.2   177  THR177      0.2313
     60  O         36.9810   49.3630   42.6410 O.2   177  THR177     -0.2863
     61  CB        34.7270   48.3870   40.5890 C.3   177  THR177      0.1794
     62  OG1       33.4400   47.8320   40.3140 O.3   177  THR177     -0.2208
     63  CG2       35.7680   47.3170   40.4630 C.3   177  THR177      0.0378
     64  N         38.1960   48.5510   45.2800 N.3   181  HIS181     -0.1241
     65  CA        39.4920   47.9540   44.9120 C.3   181  HIS181      0.1621
     66  C         40.5940   48.9740   44.8410 C.2   181  HIS181      0.2264
     67  O         41.7820   48.6320   44.8810 O.2   181  HIS181     -0.2867
     68  CB        39.3960   47.1480   43.6180 C.3   181  HIS181      0.0745
     69  CG        38.6470   45.8650   43.7790 C.ar  181  HIS181      0.0817
     70  ND1       39.1650   44.7860   44.4690 N.ar  181  HIS181     -0.2268
     71  CD2       37.4080   45.4960   43.3730 C.ar  181  HIS181      0.1154
     72  CE1       38.2830   43.8010   44.4620 C.ar  181  HIS181      0.1986
     73  NE2       37.2050   44.2090   43.8120 N.ar  181  HIS181     -0.2212
     74  N         43.5830   47.4790   42.8370 N.3   188  TYR188     -0.1241
     75  CA        43.5320   48.3650   41.6880 C.3   188  TYR188      0.1605
     76  C         44.1060   49.7610   42.0340 C.2   188  TYR188      0.2264
     77  O         44.3440   50.0970   43.2360 O.2   188  TYR188     -0.2867
     78  CB        42.0830   48.5230   41.2630 C.3   188  TYR188      0.0534
     79  CG        41.5020   47.3590   40.4630 C.ar  188  TYR188     -0.0201
     80  CD1       42.2190   46.1850   40.2560 C.ar  188  TYR188     -0.0009
     81  CD2       40.2260   47.4340   39.9570 C.ar  188  TYR188     -0.0009
     82  CE1       41.6800   45.1410   39.5430 C.ar  188  TYR188      0.0417
     83  CE2       39.6870   46.4140   39.2600 C.ar  188  TYR188      0.0417
     84  CZ        40.4160   45.2680   39.0480 C.ar  188  TYR188      0.1957
     85  OH        39.8380   44.2440   38.3240 O.3   188  TYR188     -0.2866
     86  N         27.8300   49.1090   39.4100 N.3   238  ALA238     -0.1231
     87  CA        28.0990   47.6840   39.5740 C.3   238  ALA238      0.1694
     88  C         26.9370   47.0620   40.3540 C.2   238  ALA238      0.2593
     89  O         26.3650   47.7040   41.2480 O.2   238  ALA238     -0.2718
     90  CB        29.3840   47.4850   40.3170 C.3   238  ALA238      0.0304
     91  N         26.5530   45.8420   39.9860 N.am  239  THR239     -0.1939
     92  CA        25.6250   45.0630   40.7880 C.3   239  THR239      0.2028
     93  C         26.0080   43.6000   40.7510 C.2   239  THR239      0.2642
     94  O         26.6500   43.1280   39.8090 O.2   239  THR239     -0.2714
     95  CB        24.1930   45.1590   40.2970 C.3   239  THR239      0.1808
     96  OG1       24.0540   44.3710   39.1120 O.3   239  THR239     -0.2208
     97  CG2       23.7950   46.6090   40.0210 C.3   239  THR239      0.0379
     98  N         25.6010   42.8790   41.7890 N.am  240  GLN240     -0.1976
     99  CA        25.7420   41.4360   41.8590 C.3   240  GLN240      0.1601
    100  C         24.4830   40.9670   42.5410 C.2   240  GLN240      0.2287
    101  O         24.0710   41.5550   43.5330 O.2   240  GLN240     -0.2864
    102  CB        26.9600   41.0650   42.6850 C.3   240  GLN240      0.0394
    103  CG        27.1350   39.5830   42.8190 C.3   240  GLN240      0.0908
    104  CD        28.2680   39.2080   43.7380 C.2   240  GLN240      0.2608
    105  OE1       29.2960   39.8550   43.7590 O.2   240  GLN240     -0.2717
    106  NE2       28.0810   38.1440   44.5030 N.am  240  GLN240     -0.0878
    107  N         26.4610   47.5880   48.3910 N.3   263  MET263     -0.1245
    108  CA        27.0730   47.5550   47.0760 C.3   263  MET263      0.1570
    109  C         26.4000   48.6070   46.2290 C.2   263  MET263      0.2261
    110  O         27.0420   49.5850   45.8510 O.2   263  MET263     -0.2867
    111  CB        26.9880   46.1800   46.3990 C.3   263  MET263      0.0387
    112  CG        27.8070   46.1620   45.1060 C.3   263  MET263      0.0595
    113  SD        27.8760   44.5310   44.3440 S.3   263  MET263     -0.1393
    114  CE        26.1440   44.3640   43.9180 C.3   263  MET263      0.0692
    115  N         27.0410   40.9480   36.2270 N.3   311  TYR311     -0.1227
    116  CA        27.8360   39.8010   35.7950 C.3   311  TYR311      0.1736
    117  C         27.4390   38.4720   36.4590 C.2   311  TYR311      0.2596
    118  O         27.1090   37.5070   35.7720 O.2   311  TYR311     -0.2718
    119  CB        29.3180   40.0600   36.0240 C.3   311  TYR311      0.0548
    120  CG        29.8710   41.1290   35.1260 C.ar  311  TYR311     -0.0200
    121  CD1       30.4010   40.8010   33.8790 C.ar  311  TYR311     -0.0009
    122  CD2       29.8560   42.4770   35.5130 C.ar  311  TYR311     -0.0009
    123  CE1       30.9020   41.7760   33.0410 C.ar  311  TYR311      0.0417
    124  CE2       30.3530   43.4580   34.6880 C.ar  311  TYR311      0.0417
    125  CZ        30.8820   43.0980   33.4420 C.ar  311  TYR311      0.1957
    126  OH        31.3970   44.0530   32.5940 O.3   311  TYR311     -0.2866
    127  N         27.4800   38.4280   37.7910 N.am  312  THR312     -0.1953
    128  CA        27.3100   37.1800   38.5330 C.3   312  THR312      0.1897
    129  C         26.3790   37.3290   39.7600 C.2   312  THR312      0.2313
    130  O         25.6550   38.3270   39.8980 O.2   312  THR312     -0.2863
    131  CB        28.6920   36.5760   38.8690 C.3   312  THR312      0.1794
    132  OG1       28.5480   35.2370   39.3540 O.3   312  THR312     -0.2208
    133  CG2       29.4660   37.4380   39.8630 C.3   312  THR312      0.0378
    134  N         35.7350   33.7900   39.7720 N.3   349  TRP349     -0.1241
    135  CA        34.7760   34.6530   40.4860 C.3   349  TRP349      0.1605
    136  C         33.4730   34.8590   39.7400 C.2   349  TRP349      0.2264
    137  O         32.5240   35.4230   40.2850 O.2   349  TRP349     -0.2867
    138  CB        35.3690   36.0270   40.8380 C.3   349  TRP349      0.0550
    139  CG        35.7550   36.8370   39.6370 C.ar  349  TRP349      0.0003
    140  CD1       36.9990   36.9320   39.0860 C.ar  349  TRP349      0.0946
    141  CD2       34.8890   37.6510   38.8240 C.ar  349  TRP349      0.0152
    142  NE1       36.9630   37.7540   37.9830 N.ar  349  TRP349     -0.2442
    143  CE2       35.6810   38.2060   37.7990 C.ar  349  TRP349      0.0810
    144  CE3       33.5280   37.9630   38.8680 C.ar  349  TRP349      0.0012
    145  CZ2       35.1580   39.0600   36.8230 C.ar  349  TRP349      0.0191
    146  CZ3       33.0050   38.8110   37.9030 C.ar  349  TRP349      0.0001
    147  CH2       33.8240   39.3530   36.8900 C.ar  349  TRP349      0.0015
    148  N         26.2870   47.0780   31.0960 N.3   377  GLU377     -0.1245
    149  CA        27.3360   46.0570   31.0150 C.3   377  GLU377      0.1567
    150  C         26.7760   44.6770   31.3290 C.2   377  GLU377      0.2260
    151  O         25.9550   44.5270   32.2310 O.2   377  GLU377     -0.2867
    152  CB        28.4760   46.3330   31.9950 C.3   377  GLU377      0.0388
    153  CG        29.3000   47.5130   31.6300 C.3   377  GLU377      0.1160
    154  CD        30.6200   47.5590   32.3470 C.2   377  GLU377      0.3649
    155  OE1       31.0060   46.5620   32.9810 O.co2 377  GLU377     -0.2457
    156  OE2       31.2940   48.5980   32.2620 O.co2 377  GLU377     -0.2457
    157  N         29.1310   43.5720   27.0170 N.3   426  TRP426     -0.1241
    158  CA        30.4630   43.9590   27.3580 C.3   426  TRP426      0.1605
    159  C         31.3380   42.7610   27.0750 C.2   426  TRP426      0.2264
    160  O         30.9620   41.6510   27.4400 O.2   426  TRP426     -0.2867
    161  CB        30.5310   44.3210   28.8540 C.3   426  TRP426      0.0550
    162  CG        31.8980   44.6580   29.2620 C.ar  426  TRP426      0.0003
    163  CD1       32.8440   43.8080   29.7120 C.ar  426  TRP426      0.0946
    164  CD2       32.5090   45.9560   29.2000 C.ar  426  TRP426      0.0152
    165  NE1       34.0210   44.4900   29.9550 N.ar  426  TRP426     -0.2442
    166  CE2       33.8300   45.8160   29.6540 C.ar  426  TRP426      0.0810
    167  CE3       32.0620   47.2240   28.8000 C.ar  426  TRP426      0.0012
    168  CZ2       34.7160   46.8970   29.7200 C.ar  426  TRP426      0.0191
    169  CZ3       32.9360   48.2880   28.8790 C.ar  426  TRP426      0.0001
    170  CH2       34.2430   48.1170   29.3330 C.ar  426  TRP426      0.0015
    171  N         42.5480   43.9090   30.8870 N.3   433  GLU433     -0.1231
    172  CA        41.5600   43.5940   31.9240 C.3   433  GLU433      0.1699
    173  C         42.1650   43.8660   33.3050 C.2   433  GLU433      0.2592
    174  O         42.1840   43.0160   34.2110 O.2   433  GLU433     -0.2718
    175  CB        41.0350   42.1650   31.7590 C.3   433  GLU433      0.0402
    176  CG        40.1730   41.9990   30.5440 C.3   433  GLU433      0.1161
    177  CD        38.8770   42.7680   30.6310 C.2   433  GLU433      0.3649
    178  OE1       38.5420   43.2570   31.7320 O.co2 433  GLU433     -0.2457
    179  OE2       38.1750   42.8810   29.5980 O.co2 433  GLU433     -0.2457
    180  N         42.7360   45.0590   33.4200 N.am  434  TRP434     -0.1976
    181  CA        43.1960   45.5760   34.6860 C.3   434  TRP434      0.1640
    182  C         44.2370   44.6710   35.3650 C.2   434  TRP434      0.2290
    183  O         45.3170   44.4830   34.8250 O.2   434  TRP434     -0.2864
    184  CB        41.9760   45.8650   35.5620 C.3   434  TRP434      0.0576
    185  CG        40.9040   46.7400   34.9010 C.ar  434  TRP434      0.0006
    186  CD1       39.6130   46.3900   34.6220 C.ar  434  TRP434      0.0946
    187  CD2       41.0380   48.1190   34.4870 C.ar  434  TRP434      0.0152
    188  NE1       38.9320   47.4680   34.0570 N.ar  434  TRP434     -0.2442
    189  CE2       39.7930   48.5330   33.9770 C.ar  434  TRP434      0.0810
    190  CE3       42.0990   49.0380   34.5010 C.ar  434  TRP434      0.0012
    191  CZ2       39.5780   49.8160   33.4830 C.ar  434  TRP434      0.0191
    192  CZ3       41.8690   50.3280   34.0340 C.ar  434  TRP434      0.0001
    193  CH2       40.6210   50.6950   33.5300 C.ar  434  TRP434      0.0015
    194  N         44.2220   41.5280   35.7590 N.3   436  GLU436     -0.1245
    195  CA        44.3720   40.3350   34.9130 C.3   436  GLU436      0.1567
    196  C         45.1600   40.5150   33.6190 C.2   436  GLU436      0.2260
    197  O         45.3300   39.5450   32.8720 O.2   436  GLU436     -0.2867
    198  CB        42.9940   39.8060   34.5430 C.3   436  GLU436      0.0388
    199  CG        42.1950   39.3550   35.7450 C.3   436  GLU436      0.1160
    200  CD        42.6400   37.9890   36.2680 C.2   436  GLU436      0.3649
    201  OE1       41.7370   37.1980   36.6400 O.co2 436  GLU436     -0.2457
    202  OE2       43.8640   37.6880   36.2870 O.co2 436  GLU436     -0.2457
    203  N         42.7340   37.5920   29.8580 N.3   440  VAL440     -0.1245
    204  CA        41.3130   37.3430   30.0200 C.3   440  VAL440      0.1561
    205  C         40.5330   38.0790   28.9130 C.2   440  VAL440      0.2260
    206  O         40.6260   39.3050   28.8000 O.2   440  VAL440     -0.2867
    207  CB        40.8850   37.8700   31.4300 C.3   440  VAL440      0.0252
    208  CG1       39.4090   37.8790   31.6080 C.3   440  VAL440      0.0019
    209  CG2       41.5390   37.0470   32.5270 C.3   440  VAL440      0.0019
    210  N         37.0930   39.2240   27.1120 N.3   442  PHE442     -0.1241
    211  CA        35.6680   39.4730   27.2780 C.3   442  PHE442      0.1605
    212  C         34.9720   39.8810   25.9980 C.2   442  PHE442      0.2264
    213  O         33.7490   40.1110   25.9910 O.2   442  PHE442     -0.2867
    214  CB        35.4550   40.6030   28.3020 C.3   442  PHE442      0.0534
    215  CG        35.2250   40.1140   29.7130 C.ar  442  PHE442     -0.0203
    216  CD1       33.9320   39.9450   30.1970 C.ar  442  PHE442     -0.0042
    217  CD2       36.3050   39.8320   30.5500 C.ar  442  PHE442     -0.0042
    218  CE1       33.7090   39.4970   31.5070 C.ar  442  PHE442     -0.0003
    219  CE2       36.0900   39.3860   31.8540 C.ar  442  PHE442     -0.0003
    220  CZ        34.7790   39.2100   32.3290 C.ar  442  PHE442     -0.0000
@<TRIPOS>BOND
     1   213   212    2
     2   212   211    1
     3     4     3    2
     4     3     2    1
     5   157   158    1
     6   159   158    1
     7   159   160    2
     8   210   211    1
     9   211   214    1
    10   158   161    1
    11     2     5    1
    12     2     1    1
    13   214   215    1
    14     5     6    1
    15   167   169   ar
    16   167   164   ar
    17   206   205    2
    18   161   162    1
    19   169   170   ar
    20   205   204    1
    21   164   162   ar
    22   164   166   ar
    23   162   163   ar
    24   170   168   ar
    25   179   177   ar
    26   166   168   ar
    27   166   165   ar
    28   163   165   ar
    29   215   216   ar
    30   215   217   ar
    31   203   204    1
    32   204   207    1
    33     6     7    1
    34   216   218   ar
    35   176   177    1
    36   176   175    1
    37     7     8    2
    38     7     9   am
    39   217   219   ar
    40   177   178   ar
    41   171   172    1
    42   149   148    1
    43   149   150    1
    44   149   152    1
    45   150   151    2
    46   207   208    1
    47   207   209    1
    48   218   220   ar
    49   153   152    1
    50   153   154    1
    51   175   172    1
    52   219   220   ar
    53   172   173    1
    54   156   154   ar
    55   154   155   ar
    56   126   125    1
    57    17    15   ar
    58    17    19   ar
    59    14    15    1
    60    14    11    1
    61   197   196    2
    62    15    16   ar
    63   123   125   ar
    64   123   121   ar
    65    19    18   ar
    66   173   180   am
    67   173   174    2
    68   180   181    1
    69   125   124   ar
    70   191   193   ar
    71   191   189   ar
    72   193   192   ar
    73    16    18   ar
    74   196   195    1
    75   121   120   ar
    76    10    11    1
    77   189   188   ar
    78   189   187   ar
    79   192   190   ar
    80   188   186   ar
    81    13    12    2
    82    11    12    1
    83   187   190   ar
    84   187   185   ar
    85   198   195    1
    86   198   199    1
    87   186   185   ar
    88   181   182    1
    89   181   184    1
    90   124   122   ar
    91    12    20   am
    92   183   182    2
    93   185   184    1
    94   195   194    1
    95   120   122   ar
    96   120   119    1
    97   199   200    1
    98   118   117    2
    99   116   119    1
   100   116   115    1
   101   116   117    1
   102    20    21    1
   103   200   202   ar
   104   200   201   ar
   105   117   127   am
   106    22    21    1
   107    22    23    2
   108    32    30   ar
   109    32    33   ar
   110    30    27   ar
   111   145   147   ar
   112   145   143   ar
   113    39    40    1
   114    39    38    1
   115    21    24    1
   116   147   146   ar
   117    40    42   am
   118    40    41    2
   119    24    25    1
   120    33    31   ar
   121    27    25   ar
   122    27    29   ar
   123    34    35    1
   124    25    26   ar
   125    31    29   ar
   126    29    28   ar
   127    38    35    1
   128    26    28   ar
   129   127   128    1
   130   143   142   ar
   131   143   141   ar
   132   146   144   ar
   133   142   140   ar
   134    35    36    1
   135    85    84    1
   136   128   131    1
   137   128   129    1
   138   141   144   ar
   139   141   139   ar
   140   131   132    1
   141   131   133    1
   142    84    83   ar
   143    84    82   ar
   144   140   139   ar
   145    96    95    1
   146    83    81   ar
   147    36    37    2
   148    86    87    1
   149    82    80   ar
   150    87    90    1
   151    87    88    1
   152   139   138    1
   153   136   137    2
   154   136   135    1
   155   129   130    2
   156   134   135    1
   157    94    93    2
   158    81    79   ar
   159    91    88   am
   160    91    92    1
   161    97    95    1
   162    80    79   ar
   163    95    92    1
   164    62    61    1
   165    88    89    2
   166    63    61    1
   167    79    78    1
   168   135   138    1
   169    61    58    1
   170    93    92    1
   171    93    98   am
   172    78    75    1
   173    75    76    1
   174    75    74    1
   175    98    99    1
   176    99   100    1
   177    99   102    1
   178    58    57    1
   179    58    59    1
   180    76    77    2
   181    57    45   am
   182    59    60    2
   183    43    44    1
   184   100   101    2
   185   102   103    1
   186   103   104    1
   187    45    44    1
   188    45    46    2
   189    71    69   ar
   190    71    73   ar
   191    53    55   ar
   192    53    50   ar
   193    47    44    1
   194    47    48    1
   195    68    69    1
   196    68    65    1
   197    55    56   ar
   198   104   105    2
   199   104   106   am
   200    69    70   ar
   201    73    72   ar
   202   114   113    1
   203   113   112    1
   204    50    48   ar
   205    50    52   ar
   206    72    70   ar
   207    48    49   ar
   208    66    67    2
   209    66    65    1
   210    65    64    1
   211    56    54   ar
   212   112   111    1
   213    52    54   ar
   214    52    51   ar
   215    49    51   ar
   216   110   109    2
   217   109   108    1
   218   111   108    1
   219   108   107    1
