@<TRIPOS>MOLECULE
tmp/3u5zC00.pdb
 190 184 0 0 0
SMALL
GASTEIGER

@<TRIPOS>ATOM
      1  N        -45.5770  -32.5550   43.8800 N.3    13  GLU13      -0.1231
      2  CA       -44.5560  -31.5980   43.5350 C.3    13  GLU13       0.1699
      3  C        -43.7320  -32.3700   42.5560 C.2    13  GLU13       0.2592
      4  O        -42.8540  -31.8390   41.8710 O.2    13  GLU13      -0.2718
      5  CB       -43.7310  -31.1590   44.7430 C.3    13  GLU13       0.0402
      6  CG       -43.0430  -32.2670   45.4940 C.3    13  GLU13       0.1161
      7  CD       -43.5020  -32.3680   46.9410 C.2    13  GLU13       0.3649
      8  OE1      -44.5780  -31.8130   47.2800 O.co2  13  GLU13      -0.2457
      9  OE2      -42.7890  -33.0150   47.7420 O.co2  13  GLU13      -0.2457
     10  N        -43.9980  -33.6680   42.5250 N.am   14  GLN14      -0.1979
     11  CA       -43.3870  -34.4840   41.5150 C.3    14  GLN14       0.1601
     12  C        -44.2920  -34.9250   40.3850 C.2    14  GLN14       0.2287
     13  O        -43.8080  -35.4320   39.3750 O.2    14  GLN14      -0.2864
     14  CB       -42.6900  -35.6640   42.1380 C.3    14  GLN14       0.0394
     15  CG       -41.5440  -36.0650   41.2910 C.3    14  GLN14       0.0908
     16  CD       -40.5250  -36.7820   42.0760 C.2    14  GLN14       0.2608
     17  OE1      -40.7080  -36.9930   43.2780 O.2    14  GLN14      -0.2717
     18  NE2      -39.4300  -37.1820   41.4150 N.am   14  GLN14      -0.0878
     19  N        -46.0550  -32.7290   38.8180 N.3    16  TYR16      -0.1227
     20  CA       -45.9420  -31.5480   37.9530 C.3    16  TYR16       0.1736
     21  C        -44.5340  -31.1270   37.4870 C.2    16  TYR16       0.2595
     22  O        -44.3260  -30.0110   37.0170 O.2    16  TYR16      -0.2718
     23  CB       -46.7190  -30.3860   38.5490 C.3    16  TYR16       0.0548
     24  CG       -48.1750  -30.7170   38.6530 C.ar   16  TYR16      -0.0200
     25  CD1      -48.6610  -31.4270   39.7280 C.ar   16  TYR16      -0.0009
     26  CD2      -49.0610  -30.3820   37.6400 C.ar   16  TYR16      -0.0009
     27  CE1      -49.9920  -31.7590   39.8200 C.ar   16  TYR16       0.0417
     28  CE2      -50.4070  -30.7120   37.7260 C.ar   16  TYR16       0.0417
     29  CZ       -50.8480  -31.3970   38.8270 C.ar   16  TYR16       0.1957
     30  OH       -52.1470  -31.7450   38.9670 O.3    16  TYR16      -0.2866
     31  N        -43.5520  -31.9830   37.6780 N.am   17  ARG17      -0.1966
     32  CA       -42.2250  -31.6410   37.2040 C.3    17  ARG17       0.1714
     33  C        -42.1810  -31.4830   35.6970 C.2    17  ARG17       0.2458
     34  O        -42.4740  -32.4170   34.9450 O.2    17  ARG17      -0.2730
     35  CB       -41.1670  -32.6430   37.7050 C.3    17  ARG17       0.0347
     36  CG       -40.3770  -33.3110   36.6120 C.3    17  ARG17       0.0492
     37  CD       -39.3960  -34.2340   37.2130 C.3    17  ARG17       0.2205
     38  NE       -38.5170  -33.5030   38.0930 N.pl3  17  ARG17      -0.0865
     39  CZ       -38.1810  -33.9260   39.2970 C.cat  17  ARG17       0.5346
     40  NH1      -38.6660  -35.0690   39.7490 N.pl3  17  ARG17       0.1354
     41  NH2      -37.3660  -33.2060   40.0430 N.pl3  17  ARG17       0.1354
     42  N        -41.7910  -30.2810   35.2800 N.am   18  PRO18      -0.2727
     43  CA       -41.6970  -29.7880   33.9190 C.3    18  PRO18       0.1402
     44  C        -41.0020  -30.7050   32.9710 C.2    18  PRO18       0.2269
     45  O        -39.9550  -31.2290   33.2380 O.2    18  PRO18      -0.2865
     46  CB       -40.8930  -28.5240   34.0820 C.3    18  PRO18       0.0296
     47  CG       -41.3740  -27.9830   35.3380 C.3    18  PRO18       0.0237
     48  CD       -41.6190  -29.1820   36.2360 C.3    18  PRO18       0.0939
     49  N        -40.9500  -25.0520   30.1050 N.3    23  GLU23      -0.1231
     50  CA       -41.8960  -25.1030   31.1890 C.3    23  GLU23       0.1699
     51  C        -41.2340  -24.5820   32.4560 C.2    23  GLU23       0.2592
     52  O        -41.9080  -24.0360   33.3210 O.2    23  GLU23      -0.2718
     53  CB       -42.4400  -26.5270   31.3600 C.3    23  GLU23       0.0402
     54  CG       -43.5760  -26.6400   32.3490 C.3    23  GLU23       0.1161
     55  CD       -44.3960  -27.8860   32.1560 C.2    23  GLU23       0.3649
     56  OE1      -44.2320  -28.5280   31.0920 O.co2  23  GLU23      -0.2457
     57  OE2      -45.2040  -28.2060   33.0650 O.co2  23  GLU23      -0.2457
     58  N        -39.9080  -24.7130   32.5350 N.am   24  CYS24      -0.1956
     59  CA       -39.1440  -24.4150   33.7550 C.3    24  CYS24       0.1843
     60  C        -39.1340  -22.9280   34.0410 C.2    24  CYS24       0.2625
     61  O        -39.0310  -22.1140   33.1300 O.2    24  CYS24      -0.2714
     62  CB       -37.6950  -24.8960   33.6240 C.3    24  CYS24       0.0997
     63  SG       -37.4380  -26.6060   33.0740 S.3    24  CYS24      -0.0797
     64  N        -39.2230  -22.5690   35.3100 N.am   25  ILE25      -0.1963
     65  CA       -39.1850  -21.1650   35.6650 C.3    25  ILE25       0.1727
     66  C        -37.7400  -20.7970   35.9880 C.2    25  ILE25       0.2616
     67  O        -37.2050  -21.1950   37.0360 O.2    25  ILE25      -0.2715
     68  CB       -40.0670  -20.8980   36.8700 C.3    25  ILE25       0.0290
     69  CG1      -41.4970  -21.1920   36.5170 C.3    25  ILE25       0.0022
     70  CG2      -39.9510  -19.4680   37.3390 C.3    25  ILE25       0.0023
     71  CD1      -42.4060  -20.6240   37.5160 C.3    25  ILE25       0.0001
     72  N        -37.1280  -20.0160   35.0920 N.am   26  LEU26      -0.1977
     73  CA       -35.6960  -19.7290   35.1400 C.3    26  LEU26       0.1596
     74  C        -35.4050  -18.2600   34.9230 C.2    26  LEU26       0.2287
     75  O        -36.1520  -17.5650   34.2200 O.2    26  LEU26      -0.2864
     76  CB       -34.9450  -20.5640   34.0940 C.3    26  LEU26       0.0297
     77  CG       -34.7800  -22.0410   34.4040 C.3    26  LEU26       0.0022
     78  CD1      -34.2090  -22.7870   33.2550 C.3    26  LEU26       0.0001
     79  CD2      -33.8990  -22.1760   35.5810 C.3    26  LEU26       0.0001
     80  N        -32.0960  -25.9680   47.9080 N.3    53  PRO53      -0.2102
     81  CA       -32.7080  -27.0780   47.1730 C.3    53  PRO53       0.1504
     82  C        -33.9680  -26.6960   46.4010 C.2    53  PRO53       0.2576
     83  O        -34.6270  -25.6920   46.6960 O.2    53  PRO53      -0.2718
     84  CB       -33.0930  -28.0490   48.2810 C.3    53  PRO53       0.0282
     85  CG       -33.3570  -27.1750   49.4460 C.3    53  PRO53       0.0208
     86  CD       -32.3680  -26.0460   49.3490 C.3    53  PRO53       0.0893
     87  N        -34.3030  -27.5130   45.4060 N.am   54  GLY54      -0.1943
     88  CA       -35.5240  -27.3250   44.6380 C.3    54  GLY54       0.2014
     89  C        -35.6370  -26.0510   43.8210 C.2    54  GLY54       0.2640
     90  O        -36.6880  -25.4090   43.8080 O.2    54  GLY54      -0.2714
     91  N        -34.5470  -25.6870   43.1480 N.am   55  THR55      -0.1936
     92  CA       -34.5380  -24.5480   42.2440 C.3    55  THR55       0.2028
     93  C        -34.7100  -24.9550   40.7900 C.2    55  THR55       0.2643
     94  O        -34.8540  -24.0940   39.9440 O.2    55  THR55      -0.2714
     95  CB       -33.2850  -23.6690   42.4030 C.3    55  THR55       0.1808
     96  OG1      -32.1080  -24.4330   42.1660 O.3    55  THR55      -0.2208
     97  CG2      -33.2170  -23.1250   43.7860 C.3    55  THR55       0.0379
     98  N        -34.7700  -26.2570   40.5100 N.am   56  GLY56      -0.1939
     99  CA       -34.9260  -26.7360   39.1410 C.3    56  GLY56       0.2014
    100  C        -33.7760  -27.4860   38.4760 C.2    56  GLY56       0.2639
    101  O        -33.9060  -27.9540   37.3440 O.2    56  GLY56      -0.2714
    102  N        -32.6440  -27.5900   39.1640 N.am   57  LYS57      -0.1963
    103  CA       -31.4940  -28.3290   38.6600 C.3    57  LYS57       0.1728
    104  C        -31.8550  -29.6890   38.1070 C.2    57  LYS57       0.2617
    105  O        -31.7350  -29.9330   36.9240 O.2    57  LYS57      -0.2715
    106  CB       -30.4930  -28.5480   39.7810 C.3    57  LYS57       0.0311
    107  CG       -29.9490  -27.3070   40.3990 C.3    57  LYS57       0.0038
    108  CD       -29.1210  -27.6700   41.5870 C.3    57  LYS57       0.0206
    109  CE       -30.0220  -28.0970   42.6890 C.3    57  LYS57       0.1093
    110  NZ       -30.9680  -26.9850   42.9110 N.3    57  LYS57      -0.1314
    111  N        -32.2790  -30.5920   38.9810 N.am   58  THR58      -0.1937
    112  CA       -32.4880  -31.9890   38.5830 C.3    58  THR58       0.2028
    113  C        -33.5950  -32.1190   37.5300 C.2    58  THR58       0.2642
    114  O        -33.6800  -33.1150   36.8330 O.2    58  THR58      -0.2714
    115  CB       -32.6530  -32.9380   39.8280 C.3    58  THR58       0.1808
    116  OG1      -33.6370  -32.4110   40.7250 O.3    58  THR58      -0.2208
    117  CG2      -31.3820  -32.9660   40.6020 C.3    58  THR58       0.0379
    118  N        -34.4170  -31.0790   37.4180 N.am   59  THR59      -0.1950
    119  CA       -35.4910  -31.0170   36.4380 C.3    59  THR59       0.1897
    120  C        -34.9690  -30.5940   35.0890 C.2    59  THR59       0.2313
    121  O        -35.3730  -31.1200   34.0530 O.2    59  THR59      -0.2863
    122  CB       -36.5330  -29.9730   36.8240 C.3    59  THR59       0.1794
    123  OG1      -37.1190  -30.3190   38.0810 O.3    59  THR59      -0.2208
    124  CG2      -37.5980  -29.9120   35.7640 C.3    59  THR59       0.0378
    125  N        -26.9350  -35.2210   42.0910 N.3   109  GLU109     -0.1245
    126  CA       -26.4840  -35.0840   43.4640 C.3   109  GLU109      0.1567
    127  C        -25.0980  -35.7470   43.6390 C.2   109  GLU109      0.2260
    128  O        -24.9350  -36.7100   44.4040 O.2   109  GLU109     -0.2867
    129  CB       -27.5550  -35.6090   44.4550 C.3   109  GLU109      0.0388
    130  CG       -29.0100  -35.0490   44.2440 C.3   109  GLU109      0.1160
    131  CD       -29.1710  -33.5090   44.4320 C.2   109  GLU109      0.3649
    132  OE1      -28.3000  -32.8780   45.0710 O.co2 109  GLU109     -0.2457
    133  OE2      -30.1760  -32.9280   43.9330 O.co2 109  GLU109     -0.2457
    134  N        -25.8740  -29.7830   45.2220 N.3   140  ASN140     -0.1240
    135  CA       -26.3160  -28.7110   46.0980 C.3   140  ASN140      0.1653
    136  C        -25.1850  -27.7990   46.4830 C.2   140  ASN140      0.2266
    137  O        -25.3870  -26.5970   46.4940 O.2   140  ASN140     -0.2867
    138  CB       -27.0250  -29.2360   47.3370 C.3   140  ASN140      0.1155
    139  CG       -28.3140  -29.9340   46.9970 C.2   140  ASN140      0.2627
    140  OD1      -29.2660  -29.2990   46.5510 O.2   140  ASN140     -0.2716
    141  ND2      -28.3470  -31.2560   47.1670 N.am  140  ASN140     -0.0877
    142  N        -44.6380  -18.2390   38.4910 N.3   173  MET173     -0.1245
    143  CA       -44.9590  -19.3520   39.3610 C.3   173  MET173      0.1570
    144  C        -46.3880  -19.2240   39.8600 C.2   173  MET173      0.2261
    145  O        -47.0870  -20.2160   40.0570 O.2   173  MET173     -0.2867
    146  CB       -43.9730  -19.4210   40.5270 C.3   173  MET173      0.0387
    147  CG       -44.1360  -20.6560   41.3960 C.3   173  MET173      0.0595
    148  SD       -43.7810  -22.1780   40.5120 S.3   173  MET173     -0.1393
    149  CE       -44.1310  -23.4080   41.7430 C.3   173  MET173      0.0692
    150  N        -48.2660  -20.6210   37.2120 N.3   176  ARG176     -0.1245
    151  CA       -48.0440  -22.0690   37.2150 C.3   176  ARG176      0.1563
    152  C        -48.8060  -22.7450   38.3420 C.2   176  ARG176      0.2260
    153  O        -49.3270  -23.8290   38.1650 O.2   176  ARG176     -0.2867
    154  CB       -46.5600  -22.4360   37.2890 C.3   176  ARG176      0.0307
    155  CG       -46.3160  -23.8800   36.9150 C.3   176  ARG176      0.0489
    156  CD       -45.0260  -24.4170   37.4700 C.3   176  ARG176      0.2205
    157  NE       -44.8820  -25.8480   37.2370 N.pl3 176  ARG176     -0.0865
    158  CZ       -45.0200  -26.4330   36.0530 C.cat 176  ARG176      0.5346
    159  NH1      -45.3120  -25.7220   34.9780 N.pl3 176  ARG176      0.1354
    160  NH2      -44.8620  -27.7380   35.9480 N.pl3 176  ARG176      0.1354
    161  N        -38.7010  -23.9560   44.6640 N.3   205  PHE205     -0.1227
    162  CA       -39.9890  -24.1560   44.0200 C.3   205  PHE205      0.1736
    163  C        -40.6110  -25.4850   44.4120 C.2   205  PHE205      0.2595
    164  O        -41.7250  -25.7910   44.0000 O.2   205  PHE205     -0.2718
    165  CB       -39.8590  -24.0710   42.4880 C.3   205  PHE205      0.0547
    166  CG       -39.6910  -22.6670   41.9570 C.ar  205  PHE205     -0.0202
    167  CD1      -40.5440  -21.6390   42.3340 C.ar  205  PHE205     -0.0042
    168  CD2      -38.6700  -22.3730   41.0790 C.ar  205  PHE205     -0.0042
    169  CE1      -40.3670  -20.3450   41.8350 C.ar  205  PHE205     -0.0003
    170  CE2      -38.4860  -21.0830   40.5820 C.ar  205  PHE205     -0.0003
    171  CZ       -39.3370  -20.0720   40.9600 C.ar  205  PHE205     -0.0000
    172  N        -39.8970  -26.2900   45.1880 N.am  206  ARG206     -0.1980
    173  CA       -40.4450  -27.5780   45.5720 C.3   206  ARG206      0.1597
    174  C        -41.3200  -27.4220   46.7850 C.2   206  ARG206      0.2287
    175  O        -42.5080  -27.6790   46.7020 O.2   206  ARG206     -0.2864
    176  CB       -39.3640  -28.6180   45.8190 C.3   206  ARG206      0.0334
    177  CG       -39.9390  -29.9770   46.0820 C.3   206  ARG206      0.0492
    178  CD       -38.9240  -30.9050   46.6990 C.3   206  ARG206      0.2205
    179  NE       -37.9760  -31.4170   45.7230 N.pl3 206  ARG206     -0.0865
    180  CZ       -36.6950  -31.0730   45.6800 C.cat 206  ARG206      0.5346
    181  NH1      -36.2140  -30.2140   46.5550 N.pl3 206  ARG206      0.1354
    182  NH2      -35.8920  -31.5890   44.7700 N.pl3 206  ARG206      0.1354
    183  N        -44.4710  -25.8620   46.1730 N.3   209  ILE209     -0.1245
    184  CA       -45.6370  -26.6290   45.7620 C.3   209  ILE209      0.1561
    185  C        -46.2090  -27.4410   46.9350 C.2   209  ILE209      0.2260
    186  O        -47.4130  -27.4690   47.1520 O.2   209  ILE209     -0.2867
    187  CB       -45.3420  -27.5250   44.5650 C.3   209  ILE209      0.0252
    188  CG1      -45.1880  -26.6850   43.3170 C.3   209  ILE209      0.0019
    189  CG2      -46.4590  -28.4670   44.3320 C.3   209  ILE209      0.0019
    190  CD1      -44.6530  -27.4540   42.1640 C.3   209  ILE209      0.0001
@<TRIPOS>BOND
     1    49    50    1
     2    56    55   ar
     3    50    53    1
     4    50    51    1
     5    53    54    1
     6    55    54    1
     7    55    57   ar
     8    51    58   am
     9    51    52    2
    10    58    59    1
    11    44    45    2
    12    44    43    1
    13    63    62    1
    14    61    60    2
    15    78    77    1
    16    62    59    1
    17    59    60    1
    18    43    46    1
    19    43    42    1
    20    60    64   am
    21   121   120    2
    22    46    47    1
    23    76    77    1
    24    76    73    1
    25    75    74    2
    26    77    79    1
    27    74    73    1
    28    34    33    2
    29   159   158    1
    30   120   119    1
    31    72    73    1
    32    72    66   am
    33    42    33   am
    34    42    48    1
    35    64    65    1
    36    47    48    1
    37    65    66    1
    38    65    68    1
    39    33    32    1
    40   124   122    1
    41   160   158    1
    42    66    67    2
    43   158   157    2
    44   119   122    1
    45   119   118    1
    46    69    68    1
    47    69    71    1
    48    36    37    1
    49    36    35    1
    50   122   123    1
    51   114   113    2
    52    68    70    1
    53   155   154    1
    54   155   156    1
    55   105   104    2
    56    22    21    2
    57    32    31    1
    58    32    35    1
    59   150   151    1
    60    37    38    1
    61   151   154    1
    62   151   152    1
    63   157   156    1
    64   101   100    2
    65   118   113   am
    66    21    31   am
    67    21    20    1
    68   113   112    1
    69    26    28   ar
    70    26    24   ar
    71    28    29   ar
    72    20    23    1
    73    20    19    1
    74    38    39    2
    75   104   103    1
    76   104   111   am
    77   153   152    2
    78   100    99    1
    79   100   102   am
    80   142   143    1
    81    23    24    1
    82   112   111    1
    83   112   115    1
    84    24    25   ar
    85   103   102    1
    86   103   106    1
    87    29    30    1
    88    29    27   ar
    89    99    98    1
    90    39    40    1
    91    39    41    1
    92   143   144    1
    93   143   146    1
    94    13    12    2
    95    25    27   ar
    96   106   107    1
    97   115   117    1
    98   115   116    1
    99   144   145    2
   100    94    93    2
   101    12    11    1
   102   107   108    1
   103    98    93   am
   104   148   147    1
   105   148   149    1
   106   146   147    1
   107   170   171   ar
   108   170   168   ar
   109    93    92    1
   110   171   169   ar
   111   168   166   ar
   112    15    16    1
   113    15    14    1
   114    18    16   am
   115    11    14    1
   116    11    10    1
   117   108   109    1
   118   169   167   ar
   119     4     3    2
   120   166   167   ar
   121   166   165    1
   122    16    17    2
   123   125   126    1
   124   190   188    1
   125    96    95    1
   126    92    95    1
   127    92    91    1
   128    95    97    1
   129   165   162    1
   130    10     3   am
   131     3     2    1
   132   109   110    1
   133    91    89   am
   134   188   187    1
   135   126   127    1
   136   126   129    1
   137     2     1    1
   138     2     5    1
   139   127   128    2
   140    90    89    2
   141    89    88    1
   142   133   131   ar
   143   164   163    2
   144   162   163    1
   145   162   161    1
   146   130   131    1
   147   130   129    1
   148   189   187    1
   149   163   172   am
   150   131   132   ar
   151   187   184    1
   152    88    87    1
   153     5     6    1
   154   182   180    1
   155   172   173    1
   156   134   135    1
   157    87    82   am
   158     6     7    1
   159   173   176    1
   160   173   174    1
   161   180   179    2
   162   180   181    1
   163   179   178    1
   164   184   183    1
   165   184   185    1
   166   176   177    1
   167   177   178    1
   168   135   136    1
   169   135   138    1
   170    82    83    2
   171    82    81    1
   172   136   137    2
   173   140   139    2
   174   175   174    2
   175   185   186    2
   176     7     8   ar
   177     7     9   ar
   178   139   141   am
   179   139   138    1
   180    81    80    1
   181    81    84    1
   182    80    86    1
   183    84    85    1
   184    86    85    1
