@<TRIPOS>MOLECULE
tmp/3u67A00.pdb
 170 160 0 0 0
SMALL
GASTEIGER

@<TRIPOS>ATOM
      1  N        -25.4510    6.0220  -12.1150 N.3    42  GLU42      -0.1231
      2  CA       -25.0770    6.8780  -13.2540 C.3    42  GLU42       0.1699
      3  C        -23.7480    6.4340  -13.8810 C.2    42  GLU42       0.2592
      4  O        -23.6390    6.4150  -15.1160 O.2    42  GLU42      -0.2718
      5  CB       -25.0200    8.3470  -12.8290 C.3    42  GLU42       0.0402
      6  CG       -26.4050    8.8940  -12.4780 C.3    42  GLU42       0.1161
      7  CD       -27.4560    8.7990  -13.5740 C.2    42  GLU42       0.3649
      8  OE1      -27.1010    8.9270  -14.7680 O.co2  42  GLU42      -0.2457
      9  OE2      -28.6450    8.6010  -13.2370 O.co2  42  GLU42      -0.2457
     10  N        -22.7680    6.0510  -13.0460 N.am   43  LEU43      -0.1980
     11  CA       -21.4560    5.5660  -13.5210 C.3    43  LEU43       0.1596
     12  C        -21.6160    4.2630  -14.3010 C.2    43  LEU43       0.2287
     13  O        -21.0460    4.1100  -15.3810 O.2    43  LEU43      -0.2864
     14  CB       -20.4750    5.3640  -12.3480 C.3    43  LEU43       0.0297
     15  CG       -20.1360    6.6130  -11.5230 C.3    43  LEU43       0.0022
     16  CD1      -19.2520    6.2590  -10.3410 C.3    43  LEU43       0.0001
     17  CD2      -19.4510    7.6650  -12.3780 C.3    43  LEU43       0.0001
     18  N        -24.4360    3.0700  -15.7370 N.3    45  SER45      -0.1202
     19  CA       -25.2070    3.3450  -16.9440 C.3    45  SER45       0.2020
     20  C        -24.2820    3.8850  -18.0590 C.2    45  SER45       0.2619
     21  O        -24.3710    3.4430  -19.2140 O.2    45  SER45      -0.2717
     22  CB       -26.3090    4.3600  -16.6320 C.3    45  SER45       0.2103
     23  OG       -27.0020    4.7450  -17.8070 O.3    45  SER45      -0.2182
     24  N        -23.3790    4.8080  -17.7120 N.am   46  ASN46      -0.1960
     25  CA       -22.4390    5.3460  -18.7000 C.3    46  ASN46       0.1819
     26  C        -21.4870    4.2710  -19.2360 C.2    46  ASN46       0.2621
     27  O        -21.2110    4.2680  -20.4390 O.2    46  ASN46      -0.2715
     28  CB       -21.6670    6.5390  -18.1410 C.3    46  ASN46       0.1195
     29  CG       -22.5100    7.7810  -18.0850 C.2    46  ASN46       0.2630
     30  OD1      -23.5620    7.8720  -18.7300 O.2    46  ASN46      -0.2716
     31  ND2      -22.1000    8.7450  -17.2640 N.am   46  ASN46      -0.0877
     32  N        -21.0200    3.3650  -18.3640 N.am   47  ALA47      -0.1977
     33  CA       -20.1520    2.2350  -18.7620 C.3    47  ALA47       0.1597
     34  C        -20.9020    1.3300  -19.7640 C.2    47  ALA47       0.2287
     35  O        -20.3630    0.9690  -20.8180 O.2    47  ALA47      -0.2864
     36  CB       -19.7250    1.4480  -17.5310 C.3    47  ALA47       0.0319
     37  N        -23.5670    2.1230  -21.6550 N.3    49  ASP49      -0.1225
     38  CA       -23.7980    2.8250  -22.9180 C.3    49  ASP49       0.1805
     39  C        -22.5370    2.7510  -23.8210 C.2    49  ASP49       0.2597
     40  O        -22.6430    2.5090  -25.0430 O.2    49  ASP49      -0.2718
     41  CB       -24.1800    4.2880  -22.6350 C.3    49  ASP49       0.1424
     42  CG       -25.5570    4.5260  -22.0070 C.2    49  ASP49       0.3668
     43  OD1      -26.3410    3.5420  -21.8650 O.co2  49  ASP49      -0.2456
     44  OD2      -25.8620    5.6910  -21.6870 O.co2  49  ASP49      -0.2456
     45  N        -21.3500    2.9400  -23.2040 N.am   50  ALA50      -0.1979
     46  CA       -20.0610    2.8960  -23.9150 C.3    50  ALA50       0.1597
     47  C        -19.7990    1.4840  -24.4950 C.2    50  ALA50       0.2287
     48  O        -19.2890    1.3570  -25.6150 O.2    50  ALA50      -0.2864
     49  CB       -18.9400    3.2770  -22.9630 C.3    50  ALA50       0.0319
     50  N        -21.9910    0.9840  -27.5810 N.3    53  LYS53      -0.1245
     51  CA       -21.4590    1.6500  -28.7670 C.3    53  LYS53       0.1561
     52  C        -20.4280    0.8080  -29.4930 C.2    53  LYS53       0.2260
     53  O        -20.5730    0.5910  -30.7040 O.2    53  LYS53      -0.2867
     54  CB       -20.9390    3.0590  -28.4610 C.3    53  LYS53       0.0271
     55  CG       -22.0960    4.0480  -28.2650 C.3    53  LYS53       0.0035
     56  CD       -21.5660    5.4100  -27.8690 C.3    53  LYS53       0.0206
     57  CE       -22.6700    6.3750  -27.4820 C.3    53  LYS53       0.1093
     58  NZ       -23.1790    6.1030  -26.1120 N.3    53  LYS53      -0.1314
     59  N        -14.5590    0.3890  -17.6780 N.3    88  ASP88      -0.1239
     60  CA       -15.1940   -0.3420  -18.7710 C.3    88  ASP88       0.1674
     61  C        -14.1930   -0.4260  -19.9280 C.2    88  ASP88       0.2266
     62  O        -13.2470    0.3610  -19.9670 O.2    88  ASP88      -0.2867
     63  CB       -16.5070    0.3470  -19.2310 C.3    88  ASP88       0.1410
     64  CG       -16.3200    1.6990  -19.9050 C.2    88  ASP88       0.3668
     65  OD1      -15.8220    1.7260  -21.0650 O.co2  88  ASP88      -0.2456
     66  OD2      -16.6510    2.7300  -19.2700 O.co2  88  ASP88      -0.2456
     67  N        -16.4390    1.9890  -25.8550 N.3    91  ILE91      -0.1231
     68  CA       -15.9180    2.7620  -26.9930 C.3    91  ILE91       0.1692
     69  C        -14.7530    3.7040  -26.6380 C.2    91  ILE91       0.2593
     70  O        -13.8940    3.9730  -27.4740 O.2    91  ILE91      -0.2718
     71  CB       -17.0770    3.4940  -27.7420 C.3    91  ILE91       0.0266
     72  CG1      -16.6250    4.0240  -29.1240 C.3    91  ILE91       0.0019
     73  CG2      -17.7400    4.5750  -26.8680 C.3    91  ILE91       0.0020
     74  CD1      -17.7390    4.2050  -30.1620 C.3    91  ILE91       0.0001
     75  N        -14.7590    4.2220  -25.4160 N.am   92  GLY92      -0.1942
     76  CA       -13.7940    5.2270  -24.9910 C.3    92  GLY92       0.2014
     77  C        -14.1150    6.6040  -25.5510 C.2    92  GLY92       0.2638
     78  O        -14.9380    6.7550  -26.4700 O.2    92  GLY92      -0.2714
     79  N        -13.4160    7.6280  -25.0400 N.am   93  MET93      -0.1976
     80  CA       -13.6190    9.0210  -25.4680 C.3    93  MET93       0.1605
     81  C        -12.3170    9.5870  -26.0310 C.2    93  MET93       0.2287
     82  O        -11.2620    9.3980  -25.4490 O.2    93  MET93      -0.2864
     83  CB       -14.0310    9.8830  -24.2450 C.3    93  MET93       0.0413
     84  CG       -15.5000    9.7500  -23.8970 C.3    93  MET93       0.0598
     85  SD       -15.9780   10.5530  -22.3550 S.3    93  MET93      -0.1393
     86  CE       -15.2130    9.3860  -21.1310 C.3    93  MET93       0.0692
     87  N        -17.9600   16.6280  -24.3270 N.3   101  ASN101     -0.1225
     88  CA       -19.0180   15.9380  -23.5890 C.3   101  ASN101      0.1785
     89  C        -18.9560   16.0180  -22.1000 C.2   101  ASN101      0.2597
     90  O        -19.9610   15.7250  -21.4480 O.2   101  ASN101     -0.2718
     91  CB       -19.1000   14.4800  -24.0560 C.3   101  ASN101      0.1169
     92  CG       -19.2390   14.3710  -25.5560 C.2   101  ASN101      0.2627
     93  OD1      -19.6650   15.3110  -26.2410 O.2   101  ASN101     -0.2716
     94  ND2      -18.9050   13.2250  -26.0850 N.am  101  ASN101     -0.0877
     95  N        -17.8050   16.4220  -21.5540 N.am  102  LEU102     -0.1980
     96  CA       -17.6140   16.5230  -20.1170 C.3   102  LEU102      0.1596
     97  C        -17.3070   17.9190  -19.6540 C.2   102  LEU102      0.2287
     98  O        -16.4760   18.1090  -18.7760 O.2   102  LEU102     -0.2864
     99  CB       -16.5900   15.4980  -19.5790 C.3   102  LEU102      0.0297
    100  CG       -16.9290   13.9980  -19.7490 C.3   102  LEU102      0.0022
    101  CD1      -15.7990   13.1260  -19.2050 C.3   102  LEU102      0.0001
    102  CD2      -18.2480   13.6480  -19.0780 C.3   102  LEU102      0.0001
    103  N        -25.8060   21.6260  -22.2000 N.3   107  ARG107     -0.1245
    104  CA       -26.8230   20.5830  -22.1160 C.3   107  ARG107      0.1563
    105  C        -28.1490   21.3150  -21.9320 C.2   107  ARG107      0.2260
    106  O        -28.2550   22.1570  -21.0270 O.2   107  ARG107     -0.2867
    107  CB       -26.5200   19.6240  -20.9340 C.3   107  ARG107      0.0307
    108  CG       -25.1290   18.9620  -20.9750 C.3   107  ARG107      0.0489
    109  CD       -24.9210   18.2400  -22.2900 C.3   107  ARG107      0.2205
    110  NE       -23.8030   17.3050  -22.2490 N.pl3 107  ARG107     -0.0865
    111  CZ       -23.5190   16.4460  -23.2200 C.cat 107  ARG107      0.5346
    112  NH1      -24.2660   16.4020  -24.3170 N.pl3 107  ARG107      0.1354
    113  NH2      -22.4930   15.6130  -23.0980 N.pl3 107  ARG107      0.1354
    114  N        -30.0780   12.0400  -14.3260 N.3   127  GLY127     -0.1225
    115  CA       -29.8200   11.3420  -15.5870 C.3   127  GLY127      0.1811
    116  C        -30.8310   11.6550  -16.6720 C.2   127  GLY127      0.2280
    117  O        -30.4830   11.7970  -17.8540 O.2   127  GLY127     -0.2866
    118  N        -30.1900   14.7970  -18.6830 N.3   130  GLY130     -0.1210
    119  CA       -29.0140   14.7180  -19.5470 C.3   130  GLY130      0.1956
    120  C        -27.7040   15.1620  -18.9130 C.2   130  GLY130      0.2612
    121  O        -26.7520   15.4580  -19.6310 O.2   130  GLY130     -0.2717
    122  N        -27.6240   15.1640  -17.5690 N.am  131  VAL131     -0.1965
    123  CA       -26.4380   15.6100  -16.7920 C.3   131  VAL131      0.1727
    124  C        -26.0380   14.5900  -15.7010 C.2   131  VAL131      0.2617
    125  O        -25.4580   14.9440  -14.6610 O.2   131  VAL131     -0.2715
    126  CB       -26.6280   17.0620  -16.2320 C.3   131  VAL131      0.0290
    127  CG1      -26.5240   18.1080  -17.3470 C.3   131  VAL131      0.0023
    128  CG2      -27.9720   17.2040  -15.4890 C.3   131  VAL131      0.0023
    129  N        -26.3430   13.3290  -15.9640 N.am  132  GLY132     -0.1940
    130  CA       -26.0730   12.2450  -15.0250 C.3   132  GLY132      0.2014
    131  C        -24.6530   12.1690  -14.4990 C.2   132  GLY132      0.2639
    132  O        -24.4300   11.8640  -13.3250 O.2   132  GLY132     -0.2714
    133  N        -23.6730   12.4130  -15.3670 N.am  133  PHE133     -0.1959
    134  CA       -22.2570   12.2980  -14.9870 C.3   133  PHE133      0.1771
    135  C        -21.9250   13.1080  -13.7180 C.2   133  PHE133      0.2619
    136  O        -21.1990   12.6350  -12.8430 O.2   133  PHE133     -0.2715
    137  CB       -21.3890   12.7880  -16.1530 C.3   133  PHE133      0.0574
    138  CG       -19.9350   12.9950  -15.7930 C.ar  133  PHE133     -0.0200
    139  CD1      -19.0550   11.9220  -15.7520 C.ar  133  PHE133     -0.0042
    140  CD2      -19.4540   14.2640  -15.4750 C.ar  133  PHE133     -0.0042
    141  CE1      -17.7040   12.1180  -15.4460 C.ar  133  PHE133     -0.0003
    142  CE2      -18.1050   14.4530  -15.1330 C.ar  133  PHE133     -0.0003
    143  CZ       -17.2410   13.3790  -15.1250 C.ar  133  PHE133     -0.0000
    144  N        -22.4680   14.3300  -13.6330 N.am  134  TYR134     -0.1974
    145  CA       -22.1690   15.2680  -12.5450 C.3   134  TYR134      0.1639
    146  C        -22.6180   14.8190  -11.1380 C.2   134  TYR134      0.2290
    147  O        -22.1230   15.3640  -10.1410 O.2   134  TYR134     -0.2864
    148  CB       -22.5580   16.7180  -12.9170 C.3   134  TYR134      0.0560
    149  CG       -21.9450   17.1370  -14.2460 C.ar  134  TYR134     -0.0198
    150  CD1      -20.6270   17.6000  -14.3180 C.ar  134  TYR134     -0.0009
    151  CD2      -22.6670   17.0320  -15.4330 C.ar  134  TYR134     -0.0009
    152  CE1      -20.0400   17.9270  -15.5460 C.ar  134  TYR134      0.0417
    153  CE2      -22.0760   17.3130  -16.6670 C.ar  134  TYR134      0.0417
    154  CZ       -20.7760   17.7990  -16.7140 C.ar  134  TYR134      0.1957
    155  OH       -20.2110   18.1110  -17.9330 O.3   134  TYR134     -0.2866
    156  N        -12.7370    3.3450  -20.5570 N.3   178  THR178     -0.1218
    157  CA       -12.7280    4.4820  -19.6350 C.3   178  THR178      0.1862
    158  C        -12.6670    3.9930  -18.2130 C.2   178  THR178      0.2287
    159  O        -13.3240    3.0090  -17.8660 O.2   178  THR178     -0.2866
    160  CB       -14.0440    5.3120  -19.8400 C.3   178  THR178      0.1770
    161  OG1      -14.1000    5.7690  -21.1870 O.3   178  THR178     -0.2211
    162  CG2      -14.1870    6.5110  -18.8920 C.3   178  THR178      0.0375
    163  N        -13.2380    5.7410  -14.4880 N.3   180  ILE180     -0.1245
    164  CA       -13.6810    6.9250  -13.7520 C.3   180  ILE180      0.1561
    165  C        -13.3810    6.7110  -12.2660 C.2   180  ILE180      0.2260
    166  O        -13.9290    5.8030  -11.6540 O.2   180  ILE180     -0.2867
    167  CB       -15.1410    7.3780  -14.0590 C.3   180  ILE180      0.0252
    168  CG1      -15.5710    8.5660  -13.1750 C.3   180  ILE180      0.0019
    169  CG2      -16.1650    6.2280  -14.0370 C.3   180  ILE180      0.0019
    170  CD1      -16.6390    9.3680  -13.7220 C.3   180  ILE180      0.0001
@<TRIPOS>BOND
     1    53    52    2
     2    74    72    1
     3    52    51    1
     4    72    71    1
     5    51    54    1
     6    51    50    1
     7    54    55    1
     8    55    56    1
     9    56    57    1
    10    71    68    1
    11    71    73    1
    12    57    58    1
    13    70    69    2
    14    68    69    1
    15    68    67    1
    16    69    75   am
    17    78    77    2
    18    93    92    2
    19    94    92   am
    20    81    80    1
    21    81    82    2
    22    48    47    2
    23    92    91    1
    24    77    79   am
    25    77    76    1
    26    80    79    1
    27    80    83    1
    28    75    76    1
    29    40    39    2
    30    47    46    1
    31    87    88    1
    32   112   111    1
    33    83    84    1
    34    91    88    1
    35    46    45    1
    36    46    49    1
    37    84    85    1
    38    39    45   am
    39    39    38    1
    40    88    89    1
    41   111   113    1
    42   111   110    2
    43    38    41    1
    44    38    37    1
    45    41    42    1
    46    85    86    1
    47   109   110    1
    48   109   108    1
    49   103   104    1
    50   104   105    1
    51   104   107    1
    52    89    95   am
    53    89    90    2
    54    42    43   ar
    55    42    44   ar
    56   105   106    2
    57    95    96    1
    58   161   160    1
    59    65    64   ar
    60   108   107    1
    61    35    34    2
    62   156   157    1
    63    27    26    2
    64    96    97    1
    65    96    99    1
    66    62    61    2
    67    61    60    1
    68    64    66   ar
    69    64    63    1
    70   160   157    1
    71   160   162    1
    72    34    33    1
    73   100    99    1
    74   100   101    1
    75   100   102    1
    76    97    98    2
    77   157   158    1
    78   121   120    2
    79   119   120    1
    80   119   118    1
    81    26    25    1
    82    26    32   am
    83    63    60    1
    84    21    20    2
    85   120   122   am
    86    60    59    1
    87    33    32    1
    88    33    36    1
    89    30    29    2
    90    25    28    1
    91    25    24    1
    92   158   159    2
    93    28    29    1
    94    29    31   am
    95    20    24   am
    96    20    19    1
    97   155   154    1
    98   117   116    2
    99    23    22    1
   100   122   123    1
   101   127   126    1
   102    19    22    1
   103    19    18    1
   104   123   126    1
   105   123   124    1
   106   154   153   ar
   107   154   152   ar
   108   116   115    1
   109   153   151   ar
   110   126   128    1
   111   137   138    1
   112   137   134    1
   113   129   124   am
   114   129   130    1
   115   138   139   ar
   116   138   140   ar
   117   139   141   ar
   118   124   125    2
   119   115   114    1
   120   152   150   ar
   121   140   142   ar
   122   141   143   ar
   123   151   149   ar
   124    13    12    2
   125   133   134    1
   126   133   131   am
   127   142   143   ar
   128     4     3    2
   129   130   131    1
   130   134   135    1
   131     8     7   ar
   132   131   132    2
   133   163   164    1
   134   150   149   ar
   135    12    11    1
   136   149   148    1
   137   167   169    1
   138   167   164    1
   139   167   168    1
   140     3     2    1
   141     3    10   am
   142   164   165    1
   143   170   168    1
   144   135   144   am
   145   135   136    2
   146   144   145    1
   147     7     9   ar
   148     7     6    1
   149    11    10    1
   150    11    14    1
   151     2     5    1
   152     2     1    1
   153   148   145    1
   154     5     6    1
   155   145   146    1
   156    17    15    1
   157    14    15    1
   158   165   166    2
   159    15    16    1
   160   146   147    2
