@<TRIPOS>MOLECULE
tmp/3u69B03.pdb
 97 98 0 0 0
SMALL
GASTEIGER

@<TRIPOS>ATOM
      1  N         23.7310  -17.5860  -26.0500 N.3    47  TYR47      -0.1241
      2  CA        23.4910  -18.9720  -25.7020 C.3    47  TYR47       0.1605
      3  C         23.8070  -19.8010  -26.9220 C.2    47  TYR47       0.2264
      4  O         22.9290  -20.1050  -27.7290 O.2    47  TYR47      -0.2867
      5  CB        22.0610  -19.2090  -25.2100 C.3    47  TYR47       0.0534
      6  CG        21.8960  -20.5620  -24.5600 C.ar   47  TYR47      -0.0201
      7  CD1       22.5340  -20.8560  -23.3560 C.ar   47  TYR47      -0.0009
      8  CD2       21.1150  -21.5510  -25.1510 C.ar   47  TYR47      -0.0009
      9  CE1       22.3990  -22.1010  -22.7540 C.ar   47  TYR47       0.0417
     10  CE2       20.9650  -22.8000  -24.5540 C.ar   47  TYR47       0.0417
     11  CZ        21.6080  -23.0680  -23.3600 C.ar   47  TYR47       0.1957
     12  OH        21.4640  -24.3070  -22.7790 O.3    47  TYR47      -0.2866
     13  N         27.4800  -21.0570  -19.5080 N.3    92  TRP92      -0.1227
     14  CA        26.3140  -21.5580  -20.2320 C.3    92  TRP92       0.1737
     15  C         26.3840  -23.0570  -20.5140 C.2    92  TRP92       0.2595
     16  O         25.3680  -23.7090  -20.7410 O.2    92  TRP92      -0.2718
     17  CB        26.1210  -20.7880  -21.5420 C.3    92  TRP92       0.0564
     18  CG        27.2850  -20.7850  -22.4640 C.ar   92  TRP92       0.0003
     19  CD1       28.2550  -19.8280  -22.5550 C.ar   92  TRP92       0.0946
     20  CD2       27.6070  -21.7800  -23.4410 C.ar   92  TRP92       0.0152
     21  NE1       29.1530  -20.1610  -23.5340 N.ar   92  TRP92      -0.2442
     22  CE2       28.7810  -21.3570  -24.0930 C.ar   92  TRP92       0.0810
     23  CE3       27.0140  -22.9850  -23.8300 C.ar   92  TRP92       0.0012
     24  CZ2       29.3860  -22.1020  -25.1090 C.ar   92  TRP92       0.0191
     25  CZ3       27.6090  -23.7230  -24.8460 C.ar   92  TRP92       0.0001
     26  CH2       28.7840  -23.2770  -25.4730 C.ar   92  TRP92       0.0015
     27  N         27.5820  -23.6080  -20.4720 N.am   93  ARG93      -0.1966
     28  CA        27.7660  -25.0150  -20.8170 C.3    93  ARG93       0.1729
     29  C         27.3110  -25.9490  -19.7110 C.2    93  ARG93       0.2616
     30  O         27.0150  -27.1100  -19.9620 O.2    93  ARG93      -0.2715
     31  CB        29.2260  -25.2760  -21.1600 C.3    93  ARG93       0.0348
     32  CG        29.6160  -24.5910  -22.4350 C.3    93  ARG93       0.0492
     33  CD        31.0520  -24.8340  -22.7800 C.3    93  ARG93       0.2205
     34  NE        31.2820  -26.2010  -23.2170 N.pl3  93  ARG93      -0.0865
     35  CZ        32.4780  -26.6540  -23.5580 C.cat  93  ARG93       0.5346
     36  NH1       32.6290  -27.9080  -23.9560 N.pl3  93  ARG93       0.1354
     37  NH2       33.5220  -25.8410  -23.4960 N.pl3  93  ARG93       0.1354
     38  N         27.2360  -25.4380  -18.4880 N.am   94  GLU94      -0.1963
     39  CA        26.9710  -26.2960  -17.3440 C.3    94  GLU94       0.1733
     40  C         25.6980  -25.9500  -16.5560 C.2    94  GLU94       0.2616
     41  O         24.7980  -26.7920  -16.4230 O.2    94  GLU94      -0.2715
     42  CB        28.1700  -26.2570  -16.3900 C.3    94  GLU94       0.0429
     43  CG        28.0990  -27.3300  -15.3130 C.3    94  GLU94       0.1163
     44  CD        29.2900  -27.3400  -14.3580 C.2    94  GLU94       0.3649
     45  OE1       30.1660  -26.4460  -14.4570 O.co2  94  GLU94      -0.2457
     46  OE2       29.3370  -28.2570  -13.5030 O.co2  94  GLU94      -0.2457
     47  N         25.6320  -24.7350  -16.0070 N.am   95  ASN95      -0.1958
     48  CA        24.6120  -24.3950  -15.0120 C.3    95  ASN95       0.1819
     49  C         24.1060  -22.9570  -15.0620 C.2    95  ASN95       0.2621
     50  O         23.3460  -22.5360  -14.1900 O.2    95  ASN95      -0.2715
     51  CB        25.1710  -24.6650  -13.6110 C.3    95  ASN95       0.1195
     52  CG        26.4850  -23.9690  -13.3730 C.2    95  ASN95       0.2630
     53  OD1       26.9510  -23.2020  -14.2080 O.2    95  ASN95      -0.2716
     54  ND2       27.0920  -24.2270  -12.2330 N.am   95  ASN95      -0.0877
     55  N         24.5060  -22.2080  -16.0850 N.am   96  LEU96      -0.1977
     56  CA        24.1800  -20.7780  -16.1880 C.3    96  LEU96       0.1596
     57  C         24.6910  -19.9750  -14.9790 C.2    96  LEU96       0.2287
     58  O         24.1280  -18.9540  -14.6110 O.2    96  LEU96      -0.2864
     59  CB        22.6820  -20.5390  -16.4000 C.3    96  LEU96       0.0297
     60  CG        22.0290  -21.0160  -17.6910 C.3    96  LEU96       0.0022
     61  CD1       20.5840  -20.4880  -17.7350 C.3    96  LEU96       0.0001
     62  CD2       22.7330  -20.6020  -18.9400 C.3    96  LEU96       0.0001
     63  N         20.9120  -29.9020  -11.5420 N.3   171  ILE171     -0.1245
     64  CA        21.8640  -28.8990  -11.9740 C.3   171  ILE171      0.1561
     65  C         22.7500  -28.5320  -10.7910 C.2   171  ILE171      0.2260
     66  O         22.2710  -28.4150   -9.6460 O.2   171  ILE171     -0.2867
     67  CB        21.1520  -27.6350  -12.5050 C.3   171  ILE171      0.0252
     68  CG1       20.3070  -27.9820  -13.7360 C.3   171  ILE171      0.0019
     69  CG2       22.1460  -26.5350  -12.7920 C.3   171  ILE171      0.0019
     70  CD1       21.1040  -28.4830  -14.9220 C.3   171  ILE171      0.0001
     71  N         16.7700  -19.1170  -14.7050 N.3   219  TRP219     -0.1227
     72  CA        16.2940  -20.3720  -15.2730 C.3   219  TRP219      0.1737
     73  C         15.3470  -21.1390  -14.3610 C.2   219  TRP219      0.2596
     74  O         15.3120  -20.9260  -13.1530 O.2   219  TRP219     -0.2718
     75  CB        17.4740  -21.2630  -15.6710 C.3   219  TRP219      0.0564
     76  CG        18.3470  -21.7050  -14.5260 C.ar  219  TRP219      0.0003
     77  CD1       19.3880  -21.0160  -13.9880 C.ar  219  TRP219      0.0946
     78  CD2       18.2600  -22.9380  -13.7960 C.ar  219  TRP219      0.0152
     79  NE1       19.9610  -21.7310  -12.9730 N.ar  219  TRP219     -0.2442
     80  CE2       19.2890  -22.9190  -12.8300 C.ar  219  TRP219      0.0810
     81  CE3       17.4190  -24.0540  -13.8640 C.ar  219  TRP219      0.0012
     82  CZ2       19.4980  -23.9750  -11.9430 C.ar  219  TRP219      0.0191
     83  CZ3       17.6260  -25.0980  -12.9790 C.ar  219  TRP219      0.0001
     84  CH2       18.6570  -25.0520  -12.0340 C.ar  219  TRP219      0.0015
     85  N         14.5790  -22.0300  -14.9770 N.am  220  GLY220     -0.1942
     86  CA        13.6980  -22.9330  -14.2610 C.3   220  GLY220      0.2014
     87  C         13.4560  -24.1590  -15.1100 C.2   220  GLY220      0.2638
     88  O         13.6200  -24.1100  -16.3150 O.2   220  GLY220     -0.2714
     89  N         13.0360  -25.2460  -14.4850 N.am  221  GLU221     -0.1977
     90  CA        12.6980  -26.4610  -15.2210 C.3   221  GLU221      0.1602
     91  C         11.2050  -26.4720  -15.3930 C.2   221  GLU221      0.2287
     92  O         10.4700  -26.8030  -14.4630 O.2   221  GLU221     -0.2864
     93  CB        13.1580  -27.6820  -14.4500 C.3   221  GLU221      0.0415
     94  CG        14.6470  -27.8240  -14.4410 C.3   221  GLU221      0.1163
     95  CD        15.0820  -28.8970  -13.4850 C.2   221  GLU221      0.3649
     96  OE1       15.6490  -28.5400  -12.4610 O.co2 221  GLU221     -0.2457
     97  OE2       14.8120  -30.0870  -13.7420 O.co2 221  GLU221     -0.2457
@<TRIPOS>BOND
     1     4     3    2
     2     3     2    1
     3     1     2    1
     4     2     5    1
     5    26    24   ar
     6    26    25   ar
     7     5     6    1
     8     8     6   ar
     9     8    10   ar
    10    24    22   ar
    11    25    23   ar
    12     6     7   ar
    13    10    11   ar
    14    22    21   ar
    15    22    20   ar
    16    36    35    1
    17    23    20   ar
    18    35    37    1
    19    35    34    2
    20    21    19   ar
    21    20    18   ar
    22    11    12    1
    23    11     9   ar
    24     7     9   ar
    25    34    33    1
    26    33    32    1
    27    19    18   ar
    28    18    17    1
    29    32    31    1
    30    17    14    1
    31    31    28    1
    32    28    27    1
    33    28    29    1
    34    16    15    2
    35    15    27   am
    36    15    14    1
    37    14    13    1
    38    30    29    2
    39    29    38   am
    40    62    60    1
    41    38    39    1
    42    61    60    1
    43    60    59    1
    44    39    40    1
    45    39    42    1
    46    40    41    2
    47    40    47   am
    48    59    56    1
    49    42    43    1
    50    88    87    2
    51    56    55    1
    52    56    57    1
    53    55    49   am
    54    47    48    1
    55    75    72    1
    56    75    76    1
    57    91    90    1
    58    91    92    2
    59    43    44    1
    60    72    71    1
    61    72    73    1
    62    90    89    1
    63    90    93    1
    64    87    89   am
    65    87    86    1
    66    49    48    1
    67    49    50    2
    68    48    51    1
    69    57    58    2
    70    85    73   am
    71    85    86    1
    72    70    68    1
    73    76    77   ar
    74    76    78   ar
    75    45    44   ar
    76    93    94    1
    77    94    95    1
    78    73    74    2
    79    44    46   ar
    80    53    52    2
    81    77    79   ar
    82    81    78   ar
    83    81    83   ar
    84    78    80   ar
    85    97    95   ar
    86    68    67    1
    87    51    52    1
    88    95    96   ar
    89    52    54   am
    90    83    84   ar
    91    79    80   ar
    92    80    82   ar
    93    69    67    1
    94    67    64    1
    95    84    82   ar
    96    64    63    1
    97    64    65    1
    98    65    66    2
