@<TRIPOS>MOLECULE
tmp/3u69B01.pdb
 103 99 0 0 0
SMALL
GASTEIGER

@<TRIPOS>ATOM
      1  N         21.6460   -6.9630    1.3290 N.3   126  ALA126     -0.1245
      2  CA        21.5710   -8.3370    0.8580 C.3   126  ALA126      0.1562
      3  C         21.5590   -9.3520    2.0110 C.2   126  ALA126      0.2260
      4  O         20.7710  -10.2940    2.0090 O.2   126  ALA126     -0.2867
      5  CB        22.7260   -8.6340   -0.0940 C.3   126  ALA126      0.0290
      6  N         17.9370  -11.1730    1.8910 N.3   130  LEU130     -0.1231
      7  CA        17.9170  -12.4120    1.1210 C.3   130  LEU130      0.1693
      8  C         17.9740  -13.5800    2.1100 C.2   130  LEU130      0.2592
      9  O         19.0090  -14.2180    2.3110 O.2   130  LEU130     -0.2718
     10  CB        19.0260  -12.4320    0.0580 C.3   130  LEU130      0.0284
     11  CG        18.7280  -13.2340   -1.2220 C.3   130  LEU130      0.0019
     12  CD1       17.7720  -12.5010   -2.1250 C.3   130  LEU130      0.0001
     13  CD2       19.9920  -13.5430   -1.9950 C.3   130  LEU130      0.0001
     14  N         16.8170  -13.8230    2.7220 N.am  131  GLN131     -0.1966
     15  CA        16.6410  -14.8940    3.6860 C.3   131  GLN131      0.1733
     16  C         15.3990  -15.7000    3.3460 C.2   131  GLN131      0.2616
     17  O         14.3750  -15.1450    2.9230 O.2   131  GLN131     -0.2715
     18  CB        16.5230  -14.3280    5.1000 C.3   131  GLN131      0.0408
     19  CG        17.7410  -13.5520    5.5520 C.3   131  GLN131      0.0908
     20  CD        17.7700  -13.3620    7.0540 C.2   131  GLN131      0.2608
     21  OE1       17.7530  -14.3340    7.8180 O.2   131  GLN131     -0.2717
     22  NE2       17.8020  -12.1170    7.4890 N.am  131  GLN131     -0.0878
     23  N         15.4970  -17.0120    3.5380 N.am  132  ALA132     -0.1977
     24  CA        14.3850  -17.9060    3.2590 C.3   132  ALA132      0.1597
     25  C         13.1300  -17.4550    3.9960 C.2   132  ALA132      0.2287
     26  O         13.1670  -17.1490    5.1820 O.2   132  ALA132     -0.2864
     27  CB        14.7130  -19.3310    3.6380 C.3   132  ALA132      0.0319
     28  N         11.6750  -16.4390   -1.0150 N.3   159  ILE159     -0.1231
     29  CA        12.9990  -17.0180   -1.1450 C.3   159  ILE159      0.1692
     30  C         13.0160  -18.3740   -0.4260 C.2   159  ILE159      0.2592
     31  O         12.4100  -18.5390    0.6330 O.2   159  ILE159     -0.2718
     32  CB        14.0310  -16.0480   -0.5430 C.3   159  ILE159      0.0266
     33  CG1       14.0580  -14.7500   -1.3570 C.3   159  ILE159      0.0019
     34  CG2       15.4140  -16.6490   -0.5110 C.3   159  ILE159      0.0020
     35  CD1       14.6920  -13.6210   -0.6070 C.3   159  ILE159      0.0001
     36  N         13.7090  -19.3360   -1.0200 N.am  160  VAL160     -0.1966
     37  CA        13.7260  -20.7190   -0.5440 C.3   160  VAL160      0.1727
     38  C         15.0990  -21.0840    0.0340 C.2   160  VAL160      0.2616
     39  O         16.1290  -20.5910   -0.4210 O.2   160  VAL160     -0.2715
     40  CB        13.3320  -21.6670   -1.6980 C.3   160  VAL160      0.0290
     41  CG1       13.5460  -23.1300   -1.3290 C.3   160  VAL160      0.0023
     42  CG2       11.8660  -21.4130   -2.0920 C.3   160  VAL160      0.0023
     43  N         15.0820  -21.9060    1.0750 N.am  161  GLU161     -0.1963
     44  CA        16.2770  -22.4210    1.7150 C.3   161  GLU161      0.1733
     45  C         17.1890  -23.1010    0.7060 C.2   161  GLU161      0.2616
     46  O         16.7330  -23.9030   -0.1160 O.2   161  GLU161     -0.2715
     47  CB        15.8930  -23.4430    2.7980 C.3   161  GLU161      0.0429
     48  CG        15.1330  -22.8740    3.9760 C.3   161  GLU161      0.1163
     49  CD        13.6240  -22.7750    3.7710 C.2   161  GLU161      0.3649
     50  OE1       13.1230  -22.9940    2.6440 O.co2 161  GLU161     -0.2457
     51  OE2       12.9360  -22.4920    4.7810 O.co2 161  GLU161     -0.2457
     52  N         18.4840  -22.8280    0.7930 N.am  162  ARG162     -0.1977
     53  CA        19.4080  -23.3630   -0.2090 C.3   162  ARG162      0.1597
     54  C         19.3730  -24.8970   -0.3280 C.2   162  ARG162      0.2287
     55  O         19.4180  -25.4120   -1.4410 O.2   162  ARG162     -0.2864
     56  CB        20.8420  -22.8370   -0.0080 C.3   162  ARG162      0.0334
     57  CG        21.8140  -23.2880   -1.1310 C.3   162  ARG162      0.0492
     58  CD        23.1370  -22.4990   -1.1310 C.3   162  ARG162      0.2205
     59  NE        22.8520  -21.1000   -1.3660 N.pl3 162  ARG162     -0.0865
     60  CZ        22.8310  -20.5340   -2.5720 C.cat 162  ARG162      0.5346
     61  NH1       23.1250  -21.2360   -3.6490 N.pl3 162  ARG162      0.1354
     62  NH2       22.5140  -19.2560   -2.6980 N.pl3 162  ARG162      0.1354
     63  N         16.4810  -25.7360   -2.5460 N.3   165  CYS165     -0.1235
     64  CA        16.8390  -25.4130   -3.9200 C.3   165  CYS165      0.1677
     65  C         17.7300  -26.4990   -4.5140 C.2   165  CYS165      0.2270
     66  O         17.4880  -26.9780   -5.6140 O.2   165  CYS165     -0.2867
     67  CB        17.5720  -24.0650   -3.9880 C.3   165  CYS165      0.0956
     68  SG        16.6230  -22.6390   -3.3970 S.3   165  CYS165     -0.0801
     69  N         26.6660  -20.3830   -5.3690 N.3   175  ASP175     -0.1239
     70  CA        26.3060  -19.2860   -4.4910 C.3   175  ASP175      0.1674
     71  C         26.0000  -18.0080   -5.2680 C.2   175  ASP175      0.2266
     72  O         25.5690  -17.0210   -4.6780 O.2   175  ASP175     -0.2867
     73  CB        27.4000  -19.0410   -3.4620 C.3   175  ASP175      0.1410
     74  CG        27.4400  -20.1320   -2.4020 C.2   175  ASP175      0.3668
     75  OD1       26.4110  -20.7990   -2.1580 O.co2 175  ASP175     -0.2456
     76  OD2       28.5080  -20.3560   -1.8410 O.co2 175  ASP175     -0.2456
     77  N         20.1910  -17.9320   -6.4010 N.3   178  PHE178     -0.1227
     78  CA        19.2680  -18.3160   -5.3400 C.3   178  PHE178      0.1736
     79  C         17.9810  -18.7950   -5.9900 C.2   178  PHE178      0.2595
     80  O         17.7750  -18.5850   -7.1780 O.2   178  PHE178     -0.2718
     81  CB        19.0290  -17.1740   -4.3280 C.3   178  PHE178      0.0547
     82  CG        18.3110  -15.9490   -4.8910 C.ar  178  PHE178     -0.0202
     83  CD1       16.9150  -15.8580   -4.8510 C.ar  178  PHE178     -0.0042
     84  CD2       19.0310  -14.8870   -5.4210 C.ar  178  PHE178     -0.0042
     85  CE1       16.2620  -14.7300   -5.3390 C.ar  178  PHE178     -0.0003
     86  CE2       18.3850  -13.7500   -5.8930 C.ar  178  PHE178     -0.0003
     87  CZ        16.9920  -13.6830   -5.8590 C.ar  178  PHE178     -0.0000
     88  N         17.1370  -19.4820   -5.2340 N.am  179  CYS179     -0.1970
     89  CA        15.8570  -19.8920   -5.7950 C.3   179  CYS179      0.1712
     90  C         14.7050  -19.3570   -4.9680 C.2   179  CYS179      0.2296
     91  O         14.8650  -18.9940   -3.7970 O.2   179  CYS179     -0.2864
     92  CB        15.7790  -21.4160   -6.0580 C.3   179  CYS179      0.0983
     93  SG        15.1480  -22.4940   -4.7600 S.3   179  CYS179     -0.0798
     94  N         22.2200  -13.9410   -8.4030 N.3   234  HIS234     -0.1241
     95  CA        22.3920  -13.2200   -7.1340 C.3   234  HIS234      0.1621
     96  C         23.1030  -11.9000   -7.4130 C.2   234  HIS234      0.2264
     97  O         24.3150  -11.8560   -7.6010 O.2   234  HIS234     -0.2867
     98  CB        23.2180  -14.1410   -6.2270 C.3   234  HIS234      0.0745
     99  CG        23.2050  -13.7950   -4.7770 C.ar  234  HIS234      0.0817
    100  ND1       23.5120  -12.5420   -4.2940 N.ar  234  HIS234     -0.2268
    101  CD2       22.9980  -14.5760   -3.6940 C.ar  234  HIS234      0.1154
    102  CE1       23.4610  -12.5620   -2.9750 C.ar  234  HIS234      0.1986
    103  NE2       23.1600  -13.7870   -2.5860 N.ar  234  HIS234     -0.2212
@<TRIPOS>BOND
     1    94    95    1
     2    97    96    2
     3    96    95    1
     4    80    79    2
     5    95    98    1
     6    77    78    1
     7    98    99    1
     8    92    89    1
     9    92    93    1
    10    79    78    1
    11    79    88   am
    12    86    87   ar
    13    86    84   ar
    14    87    85   ar
    15    89    88    1
    16    89    90    1
    17    66    65    2
    18    84    82   ar
    19    69    70    1
    20    78    81    1
    21    85    83   ar
    22    71    72    2
    23    71    70    1
    24    90    91    2
    25    82    83   ar
    26    82    81    1
    27    99   100   ar
    28    99   101   ar
    29    93    68    1
    30    65    64    1
    31    70    73    1
    32   100   102   ar
    33    67    64    1
    34    67    68    1
    35    64    63    1
    36   101   103   ar
    37    61    60    1
    38    73    74    1
    39   102   103   ar
    40    62    60    1
    41    60    59    2
    42    74    75   ar
    43    74    76   ar
    44    12    11    1
    45    42    40    1
    46    13    11    1
    47    40    41    1
    48    40    37    1
    49    55    54    2
    50    59    58    1
    51    33    35    1
    52    33    32    1
    53    11    10    1
    54    29    28    1
    55    29    32    1
    56    29    30    1
    57    57    58    1
    58    57    56    1
    59    36    37    1
    60    36    30   am
    61    37    38    1
    62    32    34    1
    63    30    31    2
    64    39    38    2
    65    54    53    1
    66    53    56    1
    67    53    52    1
    68    46    45    2
    69     5     2    1
    70    38    43   am
    71    10     7    1
    72    45    52   am
    73    45    44    1
    74     2     1    1
    75     2     3    1
    76    43    44    1
    77     7     6    1
    78     7     8    1
    79    44    47    1
    80     4     3    2
    81     8     9    2
    82     8    14   am
    83    50    49   ar
    84    14    15    1
    85    47    48    1
    86    17    16    2
    87    24    23    1
    88    24    27    1
    89    24    25    1
    90    16    23   am
    91    16    15    1
    92    15    18    1
    93    49    48    1
    94    49    51   ar
    95    25    26    2
    96    18    19    1
    97    19    20    1
    98    20    22   am
    99    20    21    2
