@<TRIPOS>MOLECULE
tmp/3u6aC00.pdb
 172 165 0 0 0
SMALL
GASTEIGER

@<TRIPOS>ATOM
      1  N         19.4970    5.4460   19.2790 N.3    16  GLY16      -0.1210
      2  CA        20.2920    6.5910   18.8690 C.3    16  GLY16       0.1956
      3  C         21.7290    6.1980   18.6120 C.2    16  GLY16       0.2612
      4  O         22.4820    6.9150   17.9480 O.2    16  GLY16      -0.2717
      5  N         22.1060    5.0370   19.1390 N.am   17  GLN17      -0.1965
      6  CA        23.4760    4.5510   19.0470 C.3    17  GLN17       0.1733
      7  C         23.5310    3.2120   18.2980 C.2    17  GLN17       0.2617
      8  O         22.4900    2.6230   17.9760 O.2    17  GLN17      -0.2715
      9  CB        24.0570    4.4170   20.4510 C.3    17  GLN17       0.0408
     10  CG        23.9740    5.7030   21.2640 C.3    17  GLN17       0.0908
     11  CD        24.7210    6.8680   20.6070 C.2    17  GLN17       0.2608
     12  OE1       25.5220    6.6770   19.6920 O.2    17  GLN17      -0.2717
     13  NE2       24.4520    8.0810   21.0750 N.am   17  GLN17      -0.0878
     14  N         24.7400    2.7240   18.0330 N.am   18  GLY18      -0.1940
     15  CA        24.9210    1.5460   17.1930 C.3    18  GLY18       0.2014
     16  C         24.3880    0.2350   17.7510 C.2    18  GLY18       0.2638
     17  O         24.2160    0.0830   18.9600 O.2    18  GLY18      -0.2714
     18  N         24.1070   -0.7090   16.8530 N.am   19  TYR19      -0.1973
     19  CA        23.7960   -2.0770   17.2320 C.3    19  TYR19       0.1639
     20  C         25.1050   -2.8440   17.4250 C.2    19  TYR19       0.2290
     21  O         25.9730   -2.8260   16.5610 O.2    19  TYR19      -0.2864
     22  CB        22.9800   -2.7650   16.1330 C.3    19  TYR19       0.0560
     23  CG        21.5570   -2.2670   15.9820 C.ar   19  TYR19      -0.0198
     24  CD1       21.2670   -1.1620   15.1890 C.ar   19  TYR19      -0.0009
     25  CD2       20.5020   -2.9140   16.6220 C.ar   19  TYR19      -0.0009
     26  CE1       19.9680   -0.7060   15.0440 C.ar   19  TYR19       0.0417
     27  CE2       19.1930   -2.4570   16.4890 C.ar   19  TYR19       0.0417
     28  CZ        18.9350   -1.3590   15.6950 C.ar   19  TYR19       0.1957
     29  OH        17.6440   -0.9100   15.5450 O.3    19  TYR19      -0.2866
     30  N         30.4030   -2.9470   17.6450 N.3    35  LEU35      -0.1245
     31  CA        29.4770   -2.3160   16.7070 C.3    35  LEU35       0.1561
     32  C         29.4850   -3.0010   15.3560 C.2    35  LEU35       0.2260
     33  O         30.5370   -3.1330   14.7290 O.2    35  LEU35      -0.2867
     34  CB        29.8470   -0.8480   16.5070 C.3    35  LEU35       0.0270
     35  CG        28.8800   -0.0610   15.6180 C.3    35  LEU35       0.0019
     36  CD1       28.0050    0.7670   16.5020 C.3    35  LEU35       0.0001
     37  CD2       29.6390    0.8440   14.6950 C.3    35  LEU35       0.0001
     38  N         29.0080   -2.9470   11.6080 N.3    37  ASP37      -0.1239
     39  CA        29.1220   -1.8690   10.6320 C.3    37  ASP37       0.1674
     40  C         29.3200   -2.3900    9.2050 C.2    37  ASP37       0.2266
     41  O         30.4200   -2.7720    8.8430 O.2    37  ASP37      -0.2867
     42  CB        30.2800   -0.9320   11.0340 C.3    37  ASP37       0.1410
     43  CG        30.3920    0.3010   10.1280 C.2    37  ASP37       0.3668
     44  OD1       31.3930    1.0340   10.2270 O.co2  37  ASP37      -0.2456
     45  OD2       29.4980    0.5270    9.2960 O.co2  37  ASP37      -0.2456
     46  N         29.3080   -0.5510    6.8010 N.3    39  GLY39      -0.1210
     47  CA        29.7940    0.6080    6.0850 C.3    39  GLY39       0.1956
     48  C         31.2980    0.7520    6.1200 C.2    39  GLY39       0.2612
     49  O         31.8050    1.7380    5.6190 O.2    39  GLY39      -0.2717
     50  N         32.0020   -0.2210    6.7070 N.am   40  SER40      -0.1952
     51  CA        33.4590   -0.1760    6.7980 C.3    40  SER40       0.1924
     52  C         34.0510   -1.5860    6.8780 C.2    40  SER40       0.2314
     53  O         33.3100   -2.5610    6.9390 O.2    40  SER40      -0.2863
     54  CB        33.9080    0.6720    7.9920 C.3    40  SER40       0.2116
     55  OG        33.5530    0.0500    9.2190 O.3    40  SER40      -0.2180
     56  N         38.6130    9.4460    9.8350 N.3    76  TYR76      -0.1227
     57  CA        37.2000    9.9250    9.8350 C.3    76  TYR76       0.1736
     58  C         36.9520   11.4830    9.7360 C.2    76  TYR76       0.2596
     59  O         37.8820   12.2730    9.8760 O.2    76  TYR76      -0.2718
     60  CB        36.3970    9.3200   11.0080 C.3    76  TYR76       0.0548
     61  CG        36.4230    7.8050   11.1740 C.ar   76  TYR76      -0.0200
     62  CD1       36.8190    6.9620   10.1450 C.ar   76  TYR76      -0.0009
     63  CD2       36.0280    7.2260   12.3840 C.ar   76  TYR76      -0.0009
     64  CE1       36.8250    5.5780   10.3240 C.ar   76  TYR76       0.0417
     65  CE2       36.0450    5.8690   12.5730 C.ar   76  TYR76       0.0417
     66  CZ        36.4470    5.0430   11.5490 C.ar   76  TYR76       0.1957
     67  OH        36.4540    3.6840   11.7870 O.3    76  TYR76      -0.2866
     68  N         35.7290   11.9620    9.5140 N.am   77  THR77      -0.1939
     69  CA        34.4650   11.2350    9.4680 C.3    77  THR77       0.2028
     70  C         33.8110   11.2990   10.8490 C.2    77  THR77       0.2642
     71  O         33.6110   12.3980   11.3980 O.2    77  THR77      -0.2714
     72  CB        34.5840    9.7930    8.8980 C.3    77  THR77       0.1808
     73  OG1       35.4030    9.8090    7.7190 O.3    77  THR77      -0.2208
     74  CG2       33.2380    9.2470    8.5400 C.3    77  THR77       0.0379
     75  N         33.4840   10.1400   11.4150 N.am   78  GLN78      -0.1976
     76  CA        32.8880   10.1120   12.7410 C.3    78  GLN78       0.1601
     77  C         33.9460    9.9190   13.8260 C.2    78  GLN78       0.2287
     78  O         34.0700    8.8270   14.4010 O.2    78  GLN78      -0.2864
     79  CB        31.7980    9.0400   12.8370 C.3    78  GLN78       0.0394
     80  CG        30.7060    9.4360   13.8310 C.3    78  GLN78       0.0908
     81  CD        29.6030    8.4070   13.9570 C.2    78  GLN78       0.2608
     82  OE1       28.8640    8.1530   13.0010 O.2    78  GLN78      -0.2717
     83  NE2       29.4870    7.8020   15.1460 N.am   78  GLN78      -0.0878
     84  N         35.5900    9.3280   18.9180 N.3   113  PHE113     -0.1241
     85  CA        35.2150    8.0800   18.2680 C.3   113  PHE113      0.1605
     86  C         34.3470    7.2580   19.2030 C.2   113  PHE113      0.2264
     87  O         33.2080    6.9480   18.8860 O.2   113  PHE113     -0.2867
     88  CB        36.4580    7.2840   17.8640 C.3   113  PHE113      0.0534
     89  CG        36.1470    5.9390   17.2460 C.ar  113  PHE113     -0.0203
     90  CD1       35.5220    5.8590   16.0090 C.ar  113  PHE113     -0.0042
     91  CD2       36.4860    4.7670   17.8970 C.ar  113  PHE113     -0.0042
     92  CE1       35.2350    4.6490   15.4380 C.ar  113  PHE113     -0.0003
     93  CE2       36.2110    3.5370   17.3310 C.ar  113  PHE113     -0.0003
     94  CZ        35.5860    3.4720   16.1010 C.ar  113  PHE113     -0.0000
     95  N         31.7960    6.5860   22.1030 N.3   115  ILE115     -0.1245
     96  CA        30.6380    7.3960   22.4660 C.3   115  ILE115      0.1561
     97  C         30.1640    7.0700   23.8680 C.2   115  ILE115      0.2260
     98  O         29.9090    5.9110   24.2020 O.2   115  ILE115     -0.2867
     99  CB        29.4780    7.2010   21.4820 C.3   115  ILE115      0.0252
    100  CG1       29.8810    7.6710   20.0830 C.3   115  ILE115      0.0019
    101  CG2       28.2510    7.9840   21.9480 C.3   115  ILE115      0.0019
    102  CD1       28.8880    7.2580   18.9980 C.3   115  ILE115      0.0001
    103  N         29.5370    0.0860   23.4160 N.3   120  TRP120     -0.1241
    104  CA        30.4310   -0.6890   22.5480 C.3   120  TRP120      0.1605
    105  C         31.8730   -0.2080   22.6550 C.2   120  TRP120      0.2264
    106  O         32.1270    0.9690   22.8910 O.2   120  TRP120     -0.2867
    107  CB        29.9710   -0.7430   21.0860 C.3   120  TRP120      0.0550
    108  CG        29.7190    0.5890   20.4190 C.ar  120  TRP120      0.0003
    109  CD1       28.5140    1.2040   20.2630 C.ar  120  TRP120      0.0946
    110  CD2       30.6870    1.4460   19.7930 C.ar  120  TRP120      0.0152
    111  NE1       28.6650    2.4000   19.6040 N.ar  120  TRP120     -0.2442
    112  CE2       29.9870    2.5790   19.3040 C.ar  120  TRP120      0.0810
    113  CE3       32.0770    1.3850   19.6220 C.ar  120  TRP120      0.0012
    114  CZ2       30.6230    3.6230   18.6330 C.ar  120  TRP120      0.0191
    115  CZ3       32.7130    2.4250   18.9640 C.ar  120  TRP120      0.0001
    116  CH2       31.9850    3.5340   18.4760 C.ar  120  TRP120      0.0015
    117  N         34.5300   -1.9360   16.7970 N.3   123  ILE123     -0.1245
    118  CA        33.7480   -1.8930   15.5870 C.3   123  ILE123      0.1561
    119  C         34.0790   -3.0560   14.6710 C.2   123  ILE123      0.2260
    120  O         35.2490   -3.3950   14.4530 O.2   123  ILE123     -0.2867
    121  CB        33.9760   -0.5430   14.8560 C.3   123  ILE123      0.0252
    122  CG1       33.0360   -0.3930   13.6690 C.3   123  ILE123      0.0019
    123  CG2       35.4130   -0.4140   14.4130 C.3   123  ILE123      0.0019
    124  CD1       33.1820    0.9340   12.9630 C.3   123  ILE123      0.0001
    125  N         24.2020    0.4690    4.8140 N.3   227  ASP227     -0.1225
    126  CA        25.1650    0.7160    5.8740 C.3   227  ASP227      0.1805
    127  C         24.5740    0.6760    7.2790 C.2   227  ASP227      0.2598
    128  O         23.9820    1.6490    7.7320 O.2   227  ASP227     -0.2718
    129  CB        25.8360    2.0510    5.5910 C.3   227  ASP227      0.1424
    130  CG        26.7220    2.5040    6.7010 C.2   227  ASP227      0.3668
    131  OD1       27.0950    1.6490    7.5400 O.co2 227  ASP227     -0.2456
    132  OD2       27.0480    3.7240    6.7220 O.co2 227  ASP227     -0.2456
    133  N         24.7480   -0.4510    7.9750 N.am  228  SER228     -0.1938
    134  CA        24.2420   -0.5850    9.3380 C.3   228  SER228      0.2055
    135  C         24.9170    0.3390   10.3440 C.2   228  SER228      0.2644
    136  O         24.4690    0.4390   11.4780 O.2   228  SER228     -0.2714
    137  CB        24.3970   -2.0170    9.8370 C.3   228  SER228      0.2130
    138  OG        25.7710   -2.3430   10.0160 O.3   228  SER228     -0.2179
    139  N         26.0090    0.9860    9.9590 N.am  229  GLY229     -0.1939
    140  CA        26.7020    1.8800   10.8800 C.3   229  GLY229      0.2014
    141  C         26.3360    3.3460   10.7130 C.2   229  GLY229      0.2640
    142  O         27.1220    4.2360   11.0620 O.2   229  GLY229     -0.2714
    143  N         25.1570    3.6020   10.1530 N.am  230  THR230     -0.1936
    144  CA        24.6510    4.9660    9.9940 C.3   230  THR230      0.2028
    145  C         23.1880    4.9780   10.3750 C.2   230  THR230      0.2642
    146  O         22.4020    4.1850    9.8600 O.2   230  THR230     -0.2714
    147  CB        24.7450    5.4400    8.5380 C.3   230  THR230      0.1808
    148  OG1       26.1120    5.6180    8.1850 O.3   230  THR230     -0.2208
    149  CG2       23.9620    6.7840    8.3120 C.3   230  THR230      0.0379
    150  N         22.8030    5.8710   11.2730 N.am  231  THR231     -0.1950
    151  CA        21.3820    6.0160   11.5900 C.3   231  THR231      0.1897
    152  C         20.5230    6.4640   10.4000 C.2   231  THR231      0.2313
    153  O         19.5150    5.8460   10.0550 O.2   231  THR231     -0.2863
    154  CB        21.1740    7.0180   12.7130 C.3   231  THR231      0.1794
    155  OG1       21.5970    6.4360   13.9480 O.3   231  THR231     -0.2208
    156  CG2       19.7000    7.4130   12.8050 C.3   231  THR231      0.0378
    157  N         12.7680    9.5510   14.4990 N.3   306  ARG306     -0.1245
    158  CA        13.4480    8.7840   15.5410 C.3   306  ARG306      0.1563
    159  C         13.0390    9.2510   16.9340 C.2   306  ARG306      0.2260
    160  O         13.1660   10.4330   17.2610 O.2   306  ARG306     -0.2867
    161  CB        14.9700    8.9160   15.3990 C.3   306  ARG306      0.0307
    162  CG        15.5040    8.8570   13.9770 C.3   306  ARG306      0.0489
    163  CD        15.3300    7.4840   13.3620 C.3   306  ARG306      0.2205
    164  NE        16.2010    6.4840   13.9730 N.pl3 306  ARG306     -0.0865
    165  CZ        16.1880    5.1940   13.6490 C.cat 306  ARG306      0.5346
    166  NH1       15.3450    4.7520   12.7200 N.pl3 306  ARG306      0.1354
    167  NH2       17.0100    4.3460   14.2550 N.pl3 306  ARG306      0.1354
    168  N         20.1200    2.8190    9.1650 N.3   334  ALA334     -0.1245
    169  CA        19.1060    2.1830    9.9970 C.3   334  ALA334      0.1562
    170  C         17.6580    2.6300    9.7070 C.2   334  ALA334      0.2260
    171  O         16.7270    1.8250    9.8580 O.2   334  ALA334     -0.2867
    172  CB        19.4340    2.3780   11.4700 C.3   334  ALA334      0.0290
@<TRIPOS>BOND
     1   125   126    1
     2   129   126    1
     3   129   130    1
     4    49    48    2
     5   126   127    1
     6    47    48    1
     7    47    46    1
     8    48    50   am
     9   130   132   ar
    10   130   131   ar
    11    50    51    1
    12    51    52    1
    13    51    54    1
    14    52    53    2
    15   127   128    2
    16   127   133   am
    17    73    72    1
    18   133   134    1
    19    54    55    1
    20   148   147    1
    21   149   147    1
    22   147   144    1
    23    74    72    1
    24    41    40    2
    25    72    69    1
    26   168   169    1
    27    40    39    1
    28    45    43   ar
    29   134   137    1
    30   134   135    1
    31    69    68    1
    32    69    70    1
    33    68    58   am
    34   170   171    2
    35   170   169    1
    36    58    57    1
    37    58    59    2
    38    56    57    1
    39    57    60    1
    40   137   138    1
    41   146   145    2
    42   139   135   am
    43   139   140    1
    44   144   143    1
    45   144   145    1
    46   169   172    1
    47   153   152    2
    48    43    44   ar
    49    43    42    1
    50    62    64   ar
    51    62    61   ar
    52   143   141   am
    53    64    66   ar
    54   135   136    2
    55   145   150   am
    56   152   151    1
    57    39    42    1
    58    39    38    1
    59   141   140    1
    60   141   142    2
    61    70    71    2
    62    70    75   am
    63    60    61    1
    64    61    63   ar
    65   150   151    1
    66    75    76    1
    67    66    67    1
    68    66    65   ar
    69   151   154    1
    70    63    65   ar
    71   154   156    1
    72   154   155    1
    73   166   165    1
    74    76    79    1
    75    76    77    1
    76    79    80    1
    77   124   122    1
    78    82    81    2
    79   163   164    1
    80   163   162    1
    81   165   164    2
    82   165   167    1
    83   122   121    1
    84    77    78    2
    85    80    81    1
    86    81    83   am
    87   162   161    1
    88   123   121    1
    89   120   119    2
    90   157   158    1
    91   119   118    1
    92    37    35    1
    93    33    32    2
    94   121   118    1
    95    26    24   ar
    96    26    28   ar
    97    24    23   ar
    98    32    31    1
    99   161   158    1
   100    92    90   ar
   101    92    94   ar
   102   158   159    1
   103    29    28    1
   104   118   117    1
   105    35    36    1
   106    35    34    1
   107    28    27   ar
   108    23    22    1
   109    23    25   ar
   110    90    89   ar
   111    94    93   ar
   112    22    19    1
   113    27    25   ar
   114    34    31    1
   115    21    20    2
   116    31    30    1
   117    18    19    1
   118    18    16   am
   119   159   160    2
   120    15    16    1
   121    15    14    1
   122    19    20    1
   123    89    88    1
   124    89    91   ar
   125    93    91   ar
   126    16    17    2
   127    88    85    1
   128     4     3    2
   129     8     7    2
   130    14     7   am
   131    85    84    1
   132    85    86    1
   133     7     6    1
   134   116   114   ar
   135   116   115   ar
   136     3     2    1
   137     3     5   am
   138   114   112   ar
   139     2     1    1
   140    87    86    2
   141   115   113   ar
   142   102   100    1
   143     6     5    1
   144     6     9    1
   145   112   111   ar
   146   112   110   ar
   147   111   109   ar
   148   113   110   ar
   149    12    11    2
   150   110   108   ar
   151   100    99    1
   152   109   108   ar
   153   108   107    1
   154     9    10    1
   155    11    13   am
   156    11    10    1
   157   107   104    1
   158    99   101    1
   159    99    96    1
   160    95    96    1
   161    96    97    1
   162   104   105    1
   163   104   103    1
   164   105   106    2
   165    97    98    2
