@<TRIPOS>MOLECULE
tmp/3u6bB00.pdb
 157 150 0 0 0
SMALL
GASTEIGER

@<TRIPOS>ATOM
      1  N        -12.3070    9.0290   15.0120 N.3   202  GLU202     -0.1231
      2  CA       -11.7980   10.2650   14.4390 C.3   202  GLU202      0.1699
      3  C        -12.7290   11.4220   14.7680 C.2   202  GLU202      0.2592
      4  O        -12.3560   12.2630   15.5640 O.2   202  GLU202     -0.2718
      5  CB       -11.5760   10.1500   12.9220 C.3   202  GLU202      0.0402
      6  CG       -10.4560    9.2090   12.5220 C.3   202  GLU202      0.1161
      7  CD        -9.0320    9.7100   12.6680 C.2   202  GLU202      0.3649
      8  OE1       -8.8350   10.8890   13.0430 O.co2 202  GLU202     -0.2457
      9  OE2       -8.1090    8.9230   12.3620 O.co2 202  GLU202     -0.2457
     10  N        -13.9420   11.4500   14.1970 N.am  203  ASP203     -0.1974
     11  CA       -14.9130   12.5360   14.3910 C.3   203  ASP203      0.1709
     12  C        -16.1420   12.0490   15.1230 C.2   203  ASP203      0.2293
     13  O        -16.5080   10.8780   15.0180 O.2   203  ASP203     -0.2864
     14  CB       -15.3140   13.1580   13.0320 C.3   203  ASP203      0.1436
     15  CG       -14.1680   13.7290   12.1900 C.2   203  ASP203      0.3671
     16  OD1      -13.2440   14.3420   12.7770 O.co2 203  ASP203     -0.2456
     17  OD2      -14.2560   13.6590   10.9360 O.co2 203  ASP203     -0.2456
     18  N        -20.1800   13.4570   16.1290 N.3   205  PHE205     -0.1241
     19  CA       -21.2590   14.4340   15.8700 C.3   205  PHE205      0.1605
     20  C        -22.6600   13.8500   16.0860 C.2   205  PHE205      0.2264
     21  O        -22.8410   12.6340   16.0050 O.2   205  PHE205     -0.2867
     22  CB       -21.1190   15.1010   14.4850 C.3   205  PHE205      0.0534
     23  CG       -21.1290   14.1490   13.3130 C.ar  205  PHE205     -0.0203
     24  CD1      -19.9570   13.5440   12.8790 C.ar  205  PHE205     -0.0042
     25  CD2      -22.2980   13.9170   12.5950 C.ar  205  PHE205     -0.0042
     26  CE1      -19.9620   12.6770   11.7920 C.ar  205  PHE205     -0.0003
     27  CE2      -22.2990   13.0580   11.4940 C.ar  205  PHE205     -0.0003
     28  CZ       -21.1280   12.4560   11.0930 C.ar  205  PHE205     -0.0000
     29  N        -26.7100   13.1140   15.4050 N.3   207  ILE207     -0.1245
     30  CA       -27.6850   12.7300   14.3700 C.3   207  ILE207      0.1561
     31  C        -27.1090   12.5740   12.9660 C.2   207  ILE207      0.2260
     32  O        -27.1870   11.4870   12.3890 O.2   207  ILE207     -0.2867
     33  CB       -28.9800   13.5780   14.4030 C.3   207  ILE207      0.0252
     34  CG1      -29.7810   13.2010   15.6660 C.3   207  ILE207      0.0019
     35  CG2      -29.7870   13.4000   13.1400 C.3   207  ILE207      0.0019
     36  CD1      -30.9240   14.1320   15.9650 C.3   207  ILE207      0.0001
     37  N        -23.0640    9.9450   15.8260 N.3   209  VAL209     -0.1245
     38  CA       -22.2270    9.2550   14.8430 C.3   209  VAL209      0.1561
     39  C        -20.7420    9.3550   15.2880 C.2   209  VAL209      0.2260
     40  O        -20.2830   10.4380   15.6800 O.2   209  VAL209     -0.2867
     41  CB       -22.3960    9.8280   13.4000 C.3   209  VAL209      0.0252
     42  CG1      -21.4810    9.1120   12.4040 C.3   209  VAL209      0.0019
     43  CG2      -23.8470    9.7700   12.9190 C.3   209  VAL209      0.0019
     44  N        -16.9620    8.4070   13.5920 N.3   211  THR211     -0.1203
     45  CA       -16.3240    8.0730   12.3190 C.3   211  THR211      0.1994
     46  C        -14.8830    7.5850   12.5320 C.2   211  THR211      0.2618
     47  O        -14.3110    7.7940   13.6020 O.2   211  THR211     -0.2717
     48  CB       -16.4120    9.2370   11.3070 C.3   211  THR211      0.1784
     49  OG1      -15.4640   10.2390   11.6600 O.3   211  THR211     -0.2211
     50  CG2      -17.8090    9.8230   11.1930 C.3   211  THR211      0.0376
     51  N        -14.3280    6.9490   11.5040 N.am  212  GLY212     -0.1942
     52  CA       -12.9670    6.4280   11.4900 C.3   212  GLY212      0.2014
     53  C        -12.8430    5.3230   10.4700 C.2   212  GLY212      0.2638
     54  O        -13.8170    5.0230    9.7630 O.2   212  GLY212     -0.2714
     55  N        -11.6410    4.7210   10.3720 N.am  213  ARG213     -0.1977
     56  CA       -11.3650    3.5940    9.4830 C.3   213  ARG213      0.1597
     57  C        -11.5350    2.3330   10.3220 C.2   213  ARG213      0.2287
     58  O        -11.0060    2.2840   11.4340 O.2   213  ARG213     -0.2864
     59  CB        -9.9310    3.6640    8.9260 C.3   213  ARG213      0.0334
     60  CG        -9.6760    2.7100    7.7700 C.3   213  ARG213      0.0492
     61  CD        -8.3220    2.9480    7.1540 C.3   213  ARG213      0.2205
     62  NE        -8.2940    2.5780    5.7390 N.pl3 213  ARG213     -0.0865
     63  CZ        -8.0970    3.4350    4.7410 C.cat 213  ARG213      0.5346
     64  NH1       -7.9020    4.7250    4.9930 N.pl3 213  ARG213      0.1354
     65  NH2       -8.0830    3.0090    3.4850 N.pl3 213  ARG213      0.1354
     66  N        -26.6490    1.4180   15.3530 N.3   239  THR239     -0.1203
     67  CA       -27.9610    1.5660   14.7360 C.3   239  THR239      0.1994
     68  C        -27.8600    2.0680   13.3030 C.2   239  THR239      0.2618
     69  O        -28.8090    2.6520   12.7750 O.2   239  THR239     -0.2717
     70  CB       -28.9530    2.2940   15.6420 C.3   239  THR239      0.1784
     71  OG1      -28.3930    3.5250   16.0470 O.3   239  THR239     -0.2211
     72  CG2      -29.3260    1.4830   16.8570 C.3   239  THR239      0.0376
     73  N        -26.7170    1.8040   12.6800 N.am  240  GLY240     -0.1942
     74  CA       -26.4800    2.1520   11.2920 C.3   240  GLY240      0.2014
     75  C        -25.0360    2.4090   10.9490 C.2   240  GLY240      0.2639
     76  O        -24.2210    2.7020   11.8200 O.2   240  GLY240     -0.2714
     77  N        -24.7350    2.3060    9.6550 N.am  241  VAL241     -0.1963
     78  CA       -23.4200    2.5620    9.0540 C.3   241  VAL241      0.1727
     79  C        -23.6870    3.3440    7.7740 C.2   241  VAL241      0.2616
     80  O        -24.6450    3.0290    7.0780 O.2   241  VAL241     -0.2715
     81  CB       -22.5730    1.2700    8.7890 C.3   241  VAL241      0.0290
     82  CG1      -21.3010    1.5840    7.9950 C.3   241  VAL241      0.0023
     83  CG2      -22.2140    0.5680   10.0860 C.3   241  VAL241      0.0023
     84  N        -22.8750    4.3820    7.5000 N.am  242  GLU242     -0.1963
     85  CA       -22.9570    5.2280    6.2990 C.3   242  GLU242      0.1733
     86  C        -21.5790    5.4040    5.6970 C.2   242  GLU242      0.2616
     87  O        -20.5940    5.5170    6.4370 O.2   242  GLU242     -0.2715
     88  CB       -23.5610    6.6000    6.6280 C.3   242  GLU242      0.0429
     89  CG       -24.0050    7.4060    5.4220 C.3   242  GLU242      0.1163
     90  CD       -23.6940    8.8840    5.5410 C.2   242  GLU242      0.3649
     91  OE1      -22.5350    9.2790    5.2700 O.co2 242  GLU242     -0.2457
     92  OE2      -24.6270    9.6530    5.8660 O.co2 242  GLU242     -0.2457
     93  N        -21.5100    5.4500    4.3560 N.am  243  MET243     -0.1963
     94  CA       -20.2580    5.6130    3.6330 C.3   243  MET243      0.1736
     95  C        -20.4620    6.4870    2.4120 C.2   243  MET243      0.2616
     96  O        -21.2240    6.1130    1.5180 O.2   243  MET243     -0.2715
     97  CB       -19.7400    4.2430    3.1900 C.3   243  MET243      0.0427
     98  CG       -18.7020    3.6620    4.0740 C.3   243  MET243      0.0599
     99  SD       -17.7180    2.5690    3.0390 S.3   243  MET243     -0.1393
    100  CE       -16.6500    3.7340    2.2500 C.3   243  MET243      0.0692
    101  N        -19.7660    7.6340    2.3490 N.am  244  PHE244     -0.1960
    102  CA       -19.8830    8.5940    1.2340 C.3   244  PHE244      0.1771
    103  C        -21.3690    8.9400    0.8830 C.2   244  PHE244      0.2619
    104  O        -21.7430    9.0670   -0.2920 O.2   244  PHE244     -0.2715
    105  CB       -19.0110    8.1990    0.0120 C.3   244  PHE244      0.0574
    106  CG       -17.5290    8.0260    0.2820 C.ar  244  PHE244     -0.0200
    107  CD1      -16.7280    9.1200    0.5960 C.ar  244  PHE244     -0.0042
    108  CD2      -16.9220    6.7770    0.1630 C.ar  244  PHE244     -0.0042
    109  CE1      -15.3490    8.9650    0.8170 C.ar  244  PHE244     -0.0003
    110  CE2      -15.5420    6.6250    0.3790 C.ar  244  PHE244     -0.0003
    111  CZ       -14.7670    7.7200    0.7090 C.ar  244  PHE244     -0.0000
    112  N        -22.1890    9.1010    1.9630 N.am  245  ARG245     -0.1977
    113  CA       -23.6190    9.4330    2.0290 C.3   245  ARG245      0.1597
    114  C        -24.5880    8.2420    1.8500 C.2   245  ARG245      0.2287
    115  O        -25.7950    8.3930    2.0500 O.2   245  ARG245     -0.2864
    116  CB       -24.0070   10.6930    1.2040 C.3   245  ARG245      0.0334
    117  CG       -23.0940   11.9000    1.4500 C.3   245  ARG245      0.0492
    118  CD       -23.8420   13.1770    1.7700 C.3   245  ARG245      0.2205
    119  NE       -23.9160   13.4350    3.2100 N.pl3 245  ARG245     -0.0865
    120  CZ       -23.4320   14.5190    3.8060 C.cat 245  ARG245      0.5346
    121  NH1      -22.8240   15.4600    3.0980 N.pl3 245  ARG245      0.1354
    122  NH2      -23.5660   14.6770    5.1120 N.pl3 245  ARG245      0.1354
    123  N        -26.2310    4.7400    3.0700 N.3   247  LEU247     -0.1245
    124  CA       -26.4670    3.9190    4.2550 C.3   247  LEU247      0.1561
    125  C        -26.0060    2.4950    3.8970 C.2   247  LEU247      0.2260
    126  O        -26.1880    2.0490    2.7530 O.2   247  LEU247     -0.2867
    127  CB       -27.9610    3.9480    4.6480 C.3   247  LEU247      0.0270
    128  CG       -28.3680    3.1430    5.9000 C.3   247  LEU247      0.0019
    129  CD1      -29.2470    3.9600    6.8200 C.3   247  LEU247      0.0001
    130  CD2      -29.0870    1.8500    5.5190 C.3   247  LEU247      0.0001
    131  N        -13.4080    3.6590    5.5490 N.3   256  ASN256     -0.1225
    132  CA       -13.7090    4.8300    6.3710 C.3   256  ASN256      0.1785
    133  C        -15.2150    4.8370    6.4690 C.2   256  ASN256      0.2597
    134  O        -15.8870    4.8630    5.4360 O.2   256  ASN256     -0.2718
    135  CB       -13.2030    6.1150    5.7240 C.3   256  ASN256      0.1169
    136  CG       -11.7260    6.2890    5.8610 C.2   256  ASN256      0.2627
    137  OD1      -11.0470    5.4810    6.4890 O.2   256  ASN256     -0.2716
    138  ND2      -11.1990    7.3530    5.2840 N.am  256  ASN256     -0.0877
    139  N        -15.7390    4.6810    7.6980 N.am  257  VAL257     -0.1966
    140  CA       -17.1680    4.6060    7.9860 C.3   257  VAL257      0.1727
    141  C        -17.6200    5.6110    9.0600 C.2   257  VAL257      0.2616
    142  O        -16.8060    6.2080    9.7540 O.2   257  VAL257     -0.2715
    143  CB       -17.6130    3.1540    8.3680 C.3   257  VAL257      0.0290
    144  CG1      -17.0440    2.1070    7.4170 C.3   257  VAL257      0.0023
    145  CG2      -17.2640    2.8120    9.8060 C.3   257  VAL257      0.0023
    146  N        -18.9310    5.7420    9.1820 N.am  258  GLY258     -0.1955
    147  CA       -19.6400    6.4970   10.2010 C.3   258  GLY258      0.1869
    148  C        -20.5250    5.4800   10.8790 C.2   258  GLY258      0.2309
    149  O        -21.1260    4.6450   10.1950 O.2   258  GLY258     -0.2863
    150  N        -23.5520    5.0780   13.7430 N.3   260  LEU260     -0.1245
    151  CA       -24.5650    5.6550   14.6270 C.3   260  LEU260      0.1561
    152  C        -24.6820    4.7910   15.8650 C.2   260  LEU260      0.2260
    153  O        -24.9600    3.5970   15.7710 O.2   260  LEU260     -0.2867
    154  CB       -25.9450    5.8310   13.9270 C.3   260  LEU260      0.0270
    155  CG       -26.9490    6.9100   14.4680 C.3   260  LEU260      0.0019
    156  CD1      -27.6860    6.4700   15.7040 C.3   260  LEU260      0.0001
    157  CD2      -26.2910    8.2190   14.7920 C.3   260  LEU260      0.0001
@<TRIPOS>BOND
     1   104   103    2
     2   105   106    1
     3   105   102    1
     4   108   106   ar
     5   108   110   ar
     6   106   107   ar
     7   110   111   ar
     8   107   109   ar
     9   111   109   ar
    10   103   102    1
    11   103   112   am
    12   116   117    1
    13   116   113    1
    14   102   101    1
    15   117   118    1
    16    96    95    2
    17   118   119    1
    18   114   113    1
    19   114   115    2
    20   112   113    1
    21   100    99    1
    22   101    95   am
    23    95    94    1
    24   126   125    2
    25    99    98    1
    26   123   124    1
    27   121   120    1
    28    97    94    1
    29    97    98    1
    30   119   120    2
    31    65    63    1
    32    94    93    1
    33   120   122    1
    34   125   124    1
    35   124   127    1
    36    93    86   am
    37   127   128    1
    38    63    64    1
    39    63    62    2
    40    91    90   ar
    41   138   136   am
    42    89    90    1
    43    89    88    1
    44   134   133    2
    45   130   128    1
    46    90    92   ar
    47   131   132    1
    48    86    85    1
    49    86    87    2
    50   135   136    1
    51   135   132    1
    52    62    61    1
    53   136   137    2
    54   128   129    1
    55    85    88    1
    56    85    84    1
    57   132   133    1
    58   133   139   am
    59    80    79    2
    60    61    60    1
    61   144   143    1
    62    84    79   am
    63   139   140    1
    64    60    59    1
    65    79    78    1
    66   140   143    1
    67   140   141    1
    68    82    81    1
    69   143   145    1
    70    81    78    1
    71    81    83    1
    72    59    56    1
    73    78    77    1
    74   141   146   am
    75   141   142    2
    76   146   147    1
    77    56    57    1
    78    56    55    1
    79    77    75   am
    80    54    53    2
    81   149   148    2
    82   147   148    1
    83    57    58    2
    84    55    53   am
    85    53    52    1
    86    17    15   ar
    87    75    74    1
    88    75    76    2
    89    28    27   ar
    90    28    26   ar
    91    50    48    1
    92    74    73    1
    93    48    49    1
    94    48    45    1
    95    52    51    1
    96    27    25   ar
    97    51    46   am
    98    26    24   ar
    99    15    16   ar
   100    15    14    1
   101    45    46    1
   102    45    44    1
   103     9     7   ar
   104    32    31    2
   105    42    41    1
   106     6     7    1
   107     6     5    1
   108    46    47    2
   109    25    23   ar
   110     7     8   ar
   111    73    68   am
   112    69    68    2
   113    24    23   ar
   114    43    41    1
   115     5     2    1
   116    31    30    1
   117    14    11    1
   118    35    33    1
   119    68    67    1
   120    23    22    1
   121    41    38    1
   122   150   151    1
   123   154   155    1
   124   154   151    1
   125    10    11    1
   126    10     3   am
   127    30    33    1
   128    30    29    1
   129    11    12    1
   130    33    34    1
   131     2     3    1
   132     2     1    1
   133   155   157    1
   134   155   156    1
   135    22    19    1
   136   151   152    1
   137    67    66    1
   138    67    70    1
   139     3     4    2
   140    38    39    1
   141    38    37    1
   142    13    12    2
   143    39    40    2
   144    70    71    1
   145    70    72    1
   146    34    36    1
   147   153   152    2
   148    19    20    1
   149    19    18    1
   150    21    20    2
