@<TRIPOS>MOLECULE
tmp/3u6jA00.pdb
 211 201 0 0 0
SMALL
GASTEIGER

@<TRIPOS>ATOM
      1  N         12.5910  -13.1130   19.4990 N.3    26  LEU26      -0.1231
      2  CA        11.3480  -12.8980   20.2360 C.3    26  LEU26       0.1693
      3  C         10.1610  -13.5170   19.5020 C.2    26  LEU26       0.2592
      4  O          9.3570  -14.2350   20.1020 O.2    26  LEU26      -0.2718
      5  CB        11.1020  -11.4030   20.4590 C.3    26  LEU26       0.0284
      6  CG        12.0150  -10.6300   21.4110 C.3    26  LEU26       0.0019
      7  CD1       11.9160   -9.1380   21.1310 C.3    26  LEU26       0.0001
      8  CD2       11.6890  -10.9360   22.8750 C.3    26  LEU26       0.0001
      9  N         10.0620  -13.2330   18.2050 N.am   27  GLY27      -0.1957
     10  CA         8.9430  -13.6890   17.3830 C.3    27  GLY27       0.1869
     11  C          9.3530  -14.0510   15.9680 C.2    27  GLY27       0.2309
     12  O         10.2130  -13.3970   15.3690 O.2    27  GLY27      -0.2863
     13  N         11.6510  -10.9330   14.6530 N.3    34  VAL34      -0.1245
     14  CA        11.9790   -9.9210   15.6510 C.3    34  VAL34       0.1561
     15  C         12.9440  -10.5200   16.6710 C.2    34  VAL34       0.2260
     16  O         12.6760  -11.5790   17.2430 O.2    34  VAL34      -0.2867
     17  CB        10.7120   -9.3650   16.3490 C.3    34  VAL34       0.0252
     18  CG1       11.0880   -8.4280   17.4990 C.3    34  VAL34       0.0019
     19  CG2        9.8220   -8.6470   15.3420 C.3    34  VAL34       0.0019
     20  N         14.0920   -3.8940   20.1940 N.3    50  ALA50      -0.1245
     21  CA        13.5610   -4.9370   19.3230 C.3    50  ALA50       0.1562
     22  C         14.0390   -4.6890   17.8940 C.2    50  ALA50       0.2260
     23  O         13.8920   -3.5890   17.3560 O.2    50  ALA50      -0.2867
     24  CB        12.0480   -4.9770   19.3880 C.3    50  ALA50       0.0290
     25  N         13.7840   -5.8580   14.0320 N.3    52  LYS52      -0.1245
     26  CA        13.1250   -6.5790   12.9620 C.3    52  LYS52       0.1561
     27  C         14.0690   -6.6990   11.7690 C.2    52  LYS52       0.2260
     28  O         14.6170   -5.7000   11.2910 O.2    52  LYS52      -0.2867
     29  CB        11.8310   -5.8760   12.5670 C.3    52  LYS52       0.0271
     30  CG        11.0700   -6.5570   11.4390 C.3    52  LYS52       0.0035
     31  CD         9.8530   -5.7460   11.0290 C.3    52  LYS52       0.0206
     32  CE         8.6110   -6.1540   11.8030 C.3    52  LYS52       0.1093
     33  NZ         7.4220   -5.4930   11.2200 N.3    52  LYS52      -0.1314
     34  N          8.2410   -1.1150    5.0270 N.3    69  GLU69      -0.1245
     35  CA         7.9000   -1.0280    6.4480 C.3    69  GLU69       0.1567
     36  C          8.6780    0.0770    7.1790 C.2    69  GLU69       0.2260
     37  O          8.0860    0.8810    7.9030 O.2    69  GLU69      -0.2867
     38  CB         8.1160   -2.3780    7.1320 C.3    69  GLU69       0.0388
     39  CG         7.0170   -3.3870    6.8450 C.3    69  GLU69       0.1160
     40  CD         7.0960   -4.6130    7.7250 C.2    69  GLU69       0.3649
     41  OE1        8.0390   -4.6980    8.5350 O.co2  69  GLU69      -0.2457
     42  OE2        6.2160   -5.4980    7.6050 O.co2  69  GLU69      -0.2457
     43  N          7.4210    3.6200    6.0650 N.3    72  ILE72      -0.1231
     44  CA         6.1240    3.8890    6.6750 C.3    72  ILE72       0.1692
     45  C          6.2920    4.3050    8.1490 C.2    72  ILE72       0.2591
     46  O          5.6710    5.2720    8.5900 O.2    72  ILE72      -0.2718
     47  CB         5.1370    2.6960    6.5180 C.3    72  ILE72       0.0266
     48  CG1        4.8330    2.4510    5.0370 C.3    72  ILE72       0.0019
     49  CG2        3.8230    2.9740    7.2670 C.3    72  ILE72       0.0020
     50  CD1        4.1920    1.0940    4.7330 C.3    72  ILE72       0.0001
     51  N          7.1320    3.5850    8.8930 N.am   73  LEU73      -0.1980
     52  CA         7.4630    3.9600   10.2760 C.3    73  LEU73       0.1596
     53  C          8.0020    5.3900   10.3710 C.2    73  LEU73       0.2287
     54  O          7.5860    6.1570   11.2420 O.2    73  LEU73      -0.2864
     55  CB         8.4880    2.9950   10.8840 C.3    73  LEU73       0.0297
     56  CG         8.0230    1.7610   11.6580 C.3    73  LEU73       0.0022
     57  CD1        9.2220    0.8900   11.9980 C.3    73  LEU73       0.0001
     58  CD2        7.2470    2.1250   12.9290 C.3    73  LEU73       0.0001
     59  N          5.1780    7.9640    9.6610 N.3    76  ILE76      -0.1245
     60  CA         4.2660    8.0530   10.8100 C.3    76  ILE76       0.1561
     61  C          4.8190    8.9660   11.9100 C.2    76  ILE76       0.2260
     62  O          4.1290    9.8770   12.3650 O.2    76  ILE76      -0.2867
     63  CB         3.8860    6.6420   11.3740 C.3    76  ILE76       0.0252
     64  CG1        3.0000    5.8880   10.3710 C.3    76  ILE76       0.0019
     65  CG2        3.1650    6.7650   12.7180 C.3    76  ILE76       0.0019
     66  CD1        2.8610    4.3990   10.6360 C.3    76  ILE76       0.0001
     67  N          2.4040    4.8670   19.9080 N.3    82  VAL82      -0.1231
     68  CA         2.7800    4.1230   18.7170 C.3    82  VAL82       0.1692
     69  C          4.1700    3.5360   18.9870 C.2    82  VAL82       0.2591
     70  O          4.9860    4.1630   19.6650 O.2    82  VAL82      -0.2718
     71  CB         2.7680    5.0500   17.4650 C.3    82  VAL82       0.0266
     72  CG1        3.4810    4.4120   16.2800 C.3    82  VAL82       0.0020
     73  CG2        1.3330    5.4210   17.0900 C.3    82  VAL82       0.0020
     74  N          4.4280    2.3220   18.5030 N.am   83  VAL83      -0.1980
     75  CA         5.7570    1.7250   18.6480 C.3    83  VAL83       0.1595
     76  C          6.7320    2.5860   17.8480 C.2    83  VAL83       0.2287
     77  O          6.5690    2.7660   16.6440 O.2    83  VAL83      -0.2864
     78  CB         5.8050    0.2400   18.1930 C.3    83  VAL83       0.0276
     79  CG1        7.2080   -0.3300   18.3590 C.3    83  VAL83       0.0022
     80  CG2        4.8200   -0.5970   18.9990 C.3    83  VAL83       0.0022
     81  N         15.5900   -3.0370   11.2220 N.3    98  VAL98      -0.1245
     82  CA        14.7340   -1.9850   11.7560 C.3    98  VAL98       0.1561
     83  C         14.6850   -2.0880   13.2870 C.2    98  VAL98       0.2260
     84  O         14.2330   -3.0870   13.8390 O.2    98  VAL98      -0.2867
     85  CB        13.3120   -2.0620   11.1490 C.3    98  VAL98       0.0252
     86  CG1       12.4680   -0.8670   11.5930 C.3    98  VAL98       0.0019
     87  CG2       13.3830   -2.1260    9.6190 C.3    98  VAL98       0.0019
     88  N         13.2910   -0.8910   16.8020 N.3   100  THR100     -0.1203
     89  CA        12.2170   -0.2020   17.5200 C.3   100  THR100      0.1994
     90  C         12.3540   -0.3800   19.0320 C.2   100  THR100      0.2618
     91  O         13.1360   -1.2130   19.5040 O.2   100  THR100     -0.2717
     92  CB        10.8010   -0.6360   17.0400 C.3   100  THR100      0.1784
     93  OG1       10.5360   -1.9920   17.4270 O.3   100  THR100     -0.2211
     94  CG2       10.6640   -0.4960   15.5160 C.3   100  THR100      0.0376
     95  N         11.6040    0.4230   19.7840 N.am  101  GLU101     -0.1965
     96  CA        11.5760    0.3110   21.2390 C.3   101  GLU101      0.1733
     97  C         11.0480   -1.0560   21.6790 C.2   101  GLU101      0.2616
     98  O         10.1420   -1.6230   21.0560 O.2   101  GLU101     -0.2715
     99  CB        10.7930    1.4740   21.8820 C.3   101  GLU101      0.0429
    100  CG         9.3910    1.7010   21.3390 C.3   101  GLU101      0.1163
    101  CD         8.8280    3.0960   21.6570 C.2   101  GLU101      0.3649
    102  OE1        7.6360    3.3290   21.3700 O.co2 101  GLU101     -0.2457
    103  OE2        9.5640    3.9640   22.1800 O.co2 101  GLU101     -0.2457
    104  N         11.6660   -1.5860   22.7290 N.am  102  PHE102     -0.1960
    105  CA        11.3220   -2.8840   23.2830 C.3   102  PHE102      0.1771
    106  C         10.1840   -2.7250   24.2800 C.2   102  PHE102      0.2620
    107  O         10.2510   -1.8810   25.1750 O.2   102  PHE102     -0.2715
    108  CB        12.5480   -3.4920   23.9700 C.3   102  PHE102      0.0574
    109  CG        12.3080   -4.8480   24.5830 C.ar  102  PHE102     -0.0200
    110  CD1       12.0660   -5.9630   23.7790 C.ar  102  PHE102     -0.0042
    111  CD2       12.3490   -5.0160   25.9630 C.ar  102  PHE102     -0.0042
    112  CE1       11.8620   -7.2230   24.3470 C.ar  102  PHE102     -0.0003
    113  CE2       12.1470   -6.2710   26.5380 C.ar  102  PHE102     -0.0003
    114  CZ        11.9010   -7.3760   25.7290 C.ar  102  PHE102     -0.0000
    115  N          9.1420   -3.5340   24.1020 N.am  103  CYS103     -0.1954
    116  CA         7.9770   -3.5340   24.9770 C.3   103  CYS103      0.1843
    117  C          7.9500   -4.8670   25.7140 C.2   103  CYS103      0.2625
    118  O          7.5100   -5.8810   25.1730 O.2   103  CYS103     -0.2714
    119  CB         6.6980   -3.3160   24.1630 C.3   103  CYS103      0.0997
    120  SG         6.6870   -1.7850   23.1820 S.3   103  CYS103     -0.0797
    121  N          8.4220   -4.8480   26.9590 N.am  104  LYS104     -0.1963
    122  CA         8.7850   -6.0720   27.6720 C.3   104  LYS104      0.1728
    123  C          7.6340   -7.0250   27.9970 C.2   104  LYS104      0.2616
    124  O          7.8540   -8.2270   28.1390 O.2   104  LYS104     -0.2715
    125  CB         9.6280   -5.7590   28.9250 C.3   104  LYS104      0.0311
    126  CG         8.8840   -5.1340   30.0980 C.3   104  LYS104      0.0038
    127  CD         9.7070   -5.2090   31.3920 C.3   104  LYS104      0.0206
    128  CE         9.7260   -6.6230   31.9810 C.3   104  LYS104      0.1093
    129  NZ        10.4930   -6.7010   33.2650 N.3   104  LYS104     -0.1314
    130  N          6.4170   -6.4950   28.0990 N.am  105  PHE105     -0.1960
    131  CA         5.2560   -7.3170   28.4530 C.3   105  PHE105      0.1771
    132  C          4.5340   -7.9270   27.2490 C.2   105  PHE105      0.2620
    133  O          3.5950   -8.7140   27.4100 O.2   105  PHE105     -0.2715
    134  CB         4.3020   -6.5350   29.3620 C.3   105  PHE105      0.0574
    135  CG         4.9230   -6.1330   30.6780 C.ar  105  PHE105     -0.0200
    136  CD1        5.4010   -4.8390   30.8730 C.ar  105  PHE105     -0.0042
    137  CD2        5.0540   -7.0590   31.7130 C.ar  105  PHE105     -0.0042
    138  CE1        5.9900   -4.4690   32.0860 C.ar  105  PHE105     -0.0003
    139  CE2        5.6360   -6.6960   32.9300 C.ar  105  PHE105     -0.0003
    140  CZ         6.1090   -5.4010   33.1150 C.ar  105  PHE105     -0.0000
    141  N          4.9930   -7.5800   26.0480 N.am  106  GLY106     -0.1954
    142  CA         4.4740   -8.1710   24.8170 C.3   106  GLY106      0.1869
    143  C          3.0970   -7.6690   24.4440 C.2   106  GLY106      0.2309
    144  O          2.6950   -6.5700   24.8520 O.2   106  GLY106     -0.2863
    145  N         -2.4180    8.5720   14.3510 N.3   153  LEU153     -0.1245
    146  CA        -2.2240    7.8670   13.0830 C.3   153  LEU153      0.1561
    147  C         -3.0910    8.4800   11.9810 C.2   153  LEU153      0.2260
    148  O         -2.6120    8.7090   10.8710 O.2   153  LEU153     -0.2867
    149  CB        -2.5030    6.3590   13.2250 C.3   153  LEU153      0.0270
    150  CG        -1.9220    5.4600   12.1170 C.3   153  LEU153      0.0019
    151  CD1       -0.3970    5.4420   12.1680 C.3   153  LEU153      0.0001
    152  CD2       -2.4740    4.0290   12.1630 C.3   153  LEU153      0.0001
    153  N         -4.0600    4.6390    7.6630 N.3   159  ILE159     -0.1231
    154  CA        -5.1000    3.6970    8.0790 C.3   159  ILE159      0.1692
    155  C         -4.3750    2.4380    8.5780 C.2   159  ILE159      0.2592
    156  O         -3.4220    1.9770    7.9400 O.2   159  ILE159     -0.2718
    157  CB        -6.0650    3.3580    6.8950 C.3   159  ILE159      0.0266
    158  CG1       -6.7980    4.6200    6.4220 C.3   159  ILE159      0.0019
    159  CG2       -7.0850    2.2830    7.2880 C.3   159  ILE159      0.0020
    160  CD1       -7.3040    4.5570    4.9770 C.3   159  ILE159      0.0001
    161  N         -4.8000    1.8980    9.7170 N.am  160  HIS160     -0.1976
    162  CA        -4.1230    0.7380   10.2920 C.3   160  HIS160      0.1656
    163  C         -4.4330   -0.5550    9.5350 C.2   160  HIS160      0.2291
    164  O         -3.5140   -1.2450    9.0930 O.2   160  HIS160     -0.2864
    165  CB        -4.4350    0.5770   11.7840 C.3   160  HIS160      0.0771
    166  CG        -3.4970   -0.3500   12.4960 C.ar  160  HIS160      0.0820
    167  ND1       -3.3260   -1.6690   12.1300 N.ar  160  HIS160     -0.2267
    168  CD2       -2.6790   -0.1450   13.5540 C.ar  160  HIS160      0.1154
    169  CE1       -2.4430   -2.2350   12.9320 C.ar  160  HIS160      0.1986
    170  NE2       -2.0390   -1.3330   13.8100 N.ar  160  HIS160     -0.2212
    171  N          1.0720   -3.4330   22.0250 N.3   169  LEU169     -0.1245
    172  CA         2.1450   -3.8840   22.9000 C.3   169  LEU169      0.1561
    173  C          2.1410   -3.0760   24.1860 C.2   169  LEU169      0.2260
    174  O          1.8150   -1.8810   24.1820 O.2   169  LEU169     -0.2867
    175  CB         3.5070   -3.7420   22.2100 C.3   169  LEU169      0.0270
    176  CG         3.7960   -4.5110   20.9210 C.3   169  LEU169      0.0019
    177  CD1        5.1650   -4.1140   20.3770 C.3   169  LEU169      0.0001
    178  CD2        3.7090   -6.0230   21.1070 C.3   169  LEU169      0.0001
    179  N          0.4010    1.0710   19.8870 N.3   178  ILE178     -0.1231
    180  CA        -0.1220    0.5060   18.6490 C.3   178  ILE178      0.1692
    181  C          1.0390    0.1000   17.7400 C.2   178  ILE178      0.2592
    182  O          2.0010    0.8540   17.5680 O.2   178  ILE178     -0.2718
    183  CB        -1.0310    1.5260   17.9120 C.3   178  ILE178      0.0266
    184  CG1       -2.2510    1.8720   18.7690 C.3   178  ILE178      0.0019
    185  CG2       -1.4670    0.9930   16.5470 C.3   178  ILE178      0.0020
    186  CD1       -2.9370    3.1430   18.3490 C.3   178  ILE178      0.0001
    187  N          0.9410   -1.0990   17.1730 N.am  179  CYS179     -0.1956
    188  CA         1.9240   -1.5800   16.2170 C.3   179  CYS179      0.1843
    189  C          1.2720   -2.4310   15.1320 C.2   179  CYS179      0.2625
    190  O          0.0520   -2.6200   15.1090 O.2   179  CYS179     -0.2714
    191  CB         3.0010   -2.4150   16.9250 C.3   179  CYS179      0.0997
    192  SG         2.4460   -4.0560   17.4300 S.3   179  CYS179     -0.0797
    193  N          2.1110   -2.9360   14.2370 N.am  180  ASP180     -0.1957
    194  CA         1.7450   -3.9980   13.3220 C.3   180  ASP180      0.1840
    195  C          3.0000   -4.8320   13.1120 C.2   180  ASP180      0.2622
    196  O          4.0380   -4.3110   12.6940 O.2   180  ASP180     -0.2715
    197  CB         1.2350   -3.4090   12.0000 C.3   180  ASP180      0.1450
    198  CG         0.5900   -4.4480   11.0910 C.2   180  ASP180      0.3671
    199  OD1       -0.1880   -4.0480   10.2040 O.co2 180  ASP180     -0.2456
    200  OD2        0.8540   -5.6560   11.2460 O.co2 180  ASP180     -0.2456
    201  N          2.9170   -6.1230   13.4220 N.am  181  PHE181     -0.1974
    202  CA         4.0520   -7.0250   13.2210 C.3   181  PHE181      0.1639
    203  C          4.4260   -7.1960   11.7520 C.2   181  PHE181      0.2290
    204  O          5.5840   -7.4680   11.4350 O.2   181  PHE181     -0.2864
    205  CB         3.8000   -8.3880   13.8650 C.3   181  PHE181      0.0560
    206  CG         3.9870   -8.3950   15.3520 C.ar  181  PHE181     -0.0200
    207  CD1        5.1570   -8.8880   15.9130 C.ar  181  PHE181     -0.0042
    208  CD2        2.9920   -7.9100   16.1930 C.ar  181  PHE181     -0.0042
    209  CE1        5.3340   -8.8970   17.2890 C.ar  181  PHE181     -0.0003
    210  CE2        3.1570   -7.9140   17.5680 C.ar  181  PHE181     -0.0003
    211  CZ         4.3340   -8.4120   18.1200 C.ar  181  PHE181     -0.0000
@<TRIPOS>BOND
     1    50    48    1
     2   160   158    1
     3    34    35    1
     4    48    47    1
     5    43    44    1
     6   158   157    1
     7    35    38    1
     8    35    36    1
     9    47    44    1
    10    47    49    1
    11    44    45    1
    12    39    38    1
    13    39    40    1
    14   157   159    1
    15   157   154    1
    16    36    37    2
    17    42    40   ar
    18   153   154    1
    19    40    41   ar
    20   156   155    2
    21   154   155    1
    22    45    46    2
    23    45    51   am
    24   155   161   am
    25    51    52    1
    26   164   163    2
    27   163   162    1
    28    87    85    1
    29    59    60    1
    30   161   162    1
    31   199   198   ar
    32    52    53    1
    33    52    55    1
    34   162   165    1
    35    53    54    2
    36    64    66    1
    37    64    63    1
    38    60    63    1
    39    60    61    1
    40   148   147    2
    41    55    56    1
    42    31    30    1
    43    31    32    1
    44   198   200   ar
    45   198   197    1
    46    85    86    1
    47    85    82    1
    48    33    32    1
    49    81    82    1
    50    28    27    2
    51    63    65    1
    52   204   203    2
    53    30    29    1
    54    56    57    1
    55    56    58    1
    56   203   202    1
    57    82    83    1
    58    27    26    1
    59   165   166    1
    60    61    62    2
    61   147   146    1
    62   197   194    1
    63   150   152    1
    64   150   151    1
    65   150   149    1
    66   167   166   ar
    67   167   169   ar
    68   166   168   ar
    69    29    26    1
    70   196   195    2
    71   169   170   ar
    72    26    25    1
    73   146   149    1
    74   146   145    1
    75   195   194    1
    76   195   201   am
    77   202   201    1
    78   202   205    1
    79    83    84    2
    80   194   193    1
    81   168   170   ar
    82   205   206    1
    83   193   189   am
    84    13    14    1
    85   190   189    2
    86   189   188    1
    87    19    17    1
    88   206   207   ar
    89   206   208   ar
    90    12    11    2
    91    94    92    1
    92    14    17    1
    93    14    15    1
    94   207   209   ar
    95    11    10    1
    96   208   210   ar
    97   188   191    1
    98   188   187    1
    99    72    71    1
   100    17    18    1
   101   185   183    1
   102    77    76    2
   103    15    16    2
   104    88    89    1
   105   191   192    1
   106    92    93    1
   107    92    89    1
   108    73    71    1
   109   187   181   am
   110   209   211   ar
   111    23    22    2
   112    10     9    1
   113    71    68    1
   114    89    90    1
   115   182   181    2
   116   210   211   ar
   117   181   180    1
   118    76    75    1
   119    22    21    1
   120   183   180    1
   121   183   184    1
   122    78    79    1
   123    78    75    1
   124    78    80    1
   125     9     3   am
   126   186   184    1
   127    74    75    1
   128    74    69   am
   129   180   179    1
   130    68    69    1
   131    68    67    1
   132    69    70    2
   133    90    91    2
   134    90    95   am
   135    21    24    1
   136    21    20    1
   137     1     2    1
   138     3     4    2
   139     3     2    1
   140    95    96    1
   141     2     5    1
   142   177   176    1
   143     5     6    1
   144   176   178    1
   145   176   175    1
   146    98    97    2
   147     7     6    1
   148    96    97    1
   149    96    99    1
   150   100   101    1
   151   100    99    1
   152   102   101   ar
   153     6     8    1
   154   101   103   ar
   155    97   104   am
   156   171   172    1
   157   175   172    1
   158   104   105    1
   159   172   173    1
   160   120   119    1
   161   105   108    1
   162   105   106    1
   163   110   112   ar
   164   110   109   ar
   165   108   109    1
   166   115   106   am
   167   115   116    1
   168   119   116    1
   169   174   173    2
   170   106   107    2
   171   112   114   ar
   172   143   142    1
   173   143   144    2
   174   109   111   ar
   175   142   141    1
   176   116   117    1
   177   118   117    2
   178   117   121   am
   179   114   113   ar
   180   111   113   ar
   181   141   132   am
   182   121   122    1
   183   132   133    2
   184   132   131    1
   185   122   123    1
   186   122   125    1
   187   123   130   am
   188   123   124    2
   189   130   131    1
   190   131   134    1
   191   125   126    1
   192   134   135    1
   193   126   127    1
   194   135   136   ar
   195   135   137   ar
   196   136   138   ar
   197   127   128    1
   198   137   139   ar
   199   128   129    1
   200   138   140   ar
   201   139   140   ar
